MODEL 1
REMARK VINA RESULT:     -11.5      0.000      0.000
REMARK  Name = 10250490
REMARK  6 active torsions:
REMARK  status: ('A' for Active; 'I' for Inactive)
REMARK    1  A    between atoms: N_2  and  C_18
REMARK    2  A    between atoms: C_3  and  C_6
REMARK    3  A    between atoms: C_5  and  N_12
REMARK    4  A    between atoms: C_18  and  C_19
REMARK    5  A    between atoms: C_19  and  N_21
REMARK    6  A    between atoms: C_22  and  C_26
REMARK                            x       y       z     vdW  Elec       q    Type
REMARK                         _______ _______ _______ _____ _____    ______ ____
ROOT
ATOM      1  O   UNL     1      34.220 -23.543 -17.766  0.00  0.00    -0.270 OA
ATOM      2  N   UNL     1      32.026 -22.804 -17.658  0.00  0.00    -0.299 N 
ATOM      3  C   UNL     1      33.321 -22.795 -18.188  0.00  0.00    +0.246 C 
ATOM      4  H   UNL     1      31.361 -22.185 -18.040  0.00  0.00    +0.150 HD
ENDROOT
BRANCH   3   6
ATOM      5  C   UNL     1      34.107 -20.019 -21.301  0.00  0.00    +0.058 C 
ATOM      6  C   UNL     1      33.591 -21.845 -19.255  0.00  0.00    +0.053 C 
ATOM      7  C   UNL     1      35.160 -20.703 -20.693  0.00  0.00    +0.015 C 
ATOM      8  C   UNL     1      32.795 -20.250 -20.886  0.00  0.00    +0.015 C 
ATOM      9  C   UNL     1      34.902 -21.615 -19.670  0.00  0.00    +0.006 C 
ATOM     10  C   UNL     1      32.537 -21.162 -19.863  0.00  0.00    +0.006 C 
BRANCH   5  12
ATOM     11  O   UNL     1      35.277 -17.399 -20.944  0.00  0.00    -0.269 OA
ATOM     12  N   UNL     1      34.376 -19.070 -22.364  0.00  0.00    -0.233 N 
ATOM     13  C   UNL     1      34.993 -17.828 -22.062  0.00  0.00    +0.257 C 
ATOM     14  C   UNL     1      34.013 -19.359 -23.680  0.00  0.00    +0.072 C 
ATOM     15  C   UNL     1      35.278 -16.928 -23.223  0.00  0.00    +0.059 C 
ATOM     16  C   UNL     1      34.248 -18.522 -24.697  0.00  0.00    +0.017 C 
ATOM     17  C   UNL     1      34.907 -17.273 -24.458  0.00  0.00    +0.006 C 
ENDBRANCH   5  12
ENDBRANCH   3   6
BRANCH   2  18
ATOM     18  C   UNL     1      31.609 -23.673 -16.581  0.00  0.00    +0.111 C 
BRANCH  18  19
ATOM     19  C   UNL     1      31.815 -23.036 -15.217  0.00  0.00    +0.111 C 
BRANCH  19  21
ATOM     20  O   UNL     1      32.516 -24.892 -13.143  0.00  0.00    -0.270 OA
ATOM     21  N   UNL     1      33.133 -23.287 -14.699  0.00  0.00    -0.299 N 
ATOM     22  C   UNL     1      33.378 -24.209 -13.689  0.00  0.00    +0.252 C 
ATOM     23  H   UNL     1      33.892 -22.785 -15.076  0.00  0.00    +0.150 HD
BRANCH  22  26
ATOM     24 CL   UNL     1      38.738 -25.326 -13.559  0.00  0.00    -0.075 Cl
ATOM     25  S   UNL     1      35.885 -25.022 -14.326  0.00  0.00    -0.071 S 
ATOM     26  C   UNL     1      34.791 -24.333 -13.246  0.00  0.00    +0.084 C 
ATOM     27  C   UNL     1      35.301 -23.952 -12.064  0.00  0.00    +0.012 C 
ATOM     28  C   UNL     1      36.696 -24.239 -12.018  0.00  0.00    +0.019 C 
ATOM     29  C   UNL     1      37.144 -24.822 -13.182  0.00  0.00    +0.087 C 
ENDBRANCH  22  26
ENDBRANCH  19  21
ENDBRANCH  18  19
ENDBRANCH   2  18
TORSDOF 6
ENDMDL
MODEL 2
REMARK VINA RESULT:     -11.5      2.945      3.899
REMARK  Name = 10250490
REMARK  6 active torsions:
REMARK  status: ('A' for Active; 'I' for Inactive)
REMARK    1  A    between atoms: N_2  and  C_18
REMARK    2  A    between atoms: C_3  and  C_6
REMARK    3  A    between atoms: C_5  and  N_12
REMARK    4  A    between atoms: C_18  and  C_19
REMARK    5  A    between atoms: C_19  and  N_21
REMARK    6  A    between atoms: C_22  and  C_26
REMARK                            x       y       z     vdW  Elec       q    Type
REMARK                         _______ _______ _______ _____ _____    ______ ____
ROOT
ATOM      1  O   UNL     1      33.784 -23.756 -18.335  0.00  0.00    -0.270 OA
ATOM      2  N   UNL     1      35.445 -22.590 -17.215  0.00  0.00    -0.299 N 
ATOM      3  C   UNL     1      34.552 -22.780 -18.275  0.00  0.00    +0.246 C 
ATOM      4  H   UNL     1      36.025 -21.794 -17.230  0.00  0.00    +0.150 HD
ENDROOT
BRANCH   3   6
ATOM      5  C   UNL     1      34.598 -19.882 -21.376  0.00  0.00    +0.058 C 
ATOM      6  C   UNL     1      34.568 -21.788 -19.338  0.00  0.00    +0.053 C 
ATOM      7  C   UNL     1      35.798 -20.360 -20.849  0.00  0.00    +0.015 C 
ATOM      8  C   UNL     1      33.383 -20.359 -20.884  0.00  0.00    +0.015 C 
ATOM      9  C   UNL     1      35.783 -21.312 -19.830  0.00  0.00    +0.006 C 
ATOM     10  C   UNL     1      33.368 -21.311 -19.865  0.00  0.00    +0.006 C 
BRANCH   5  12
ATOM     11  O   UNL     1      35.148 -17.065 -21.020  0.00  0.00    -0.269 OA
ATOM     12  N   UNL     1      34.615 -18.891 -22.434  0.00  0.00    -0.233 N 
ATOM     13  C   UNL     1      34.939 -17.543 -22.135  0.00  0.00    +0.257 C 
ATOM     14  C   UNL     1      34.291 -19.249 -23.745  0.00  0.00    +0.072 C 
ATOM     15  C   UNL     1      34.980 -16.595 -23.292  0.00  0.00    +0.059 C 
ATOM     16  C   UNL     1      34.302 -18.375 -24.758  0.00  0.00    +0.017 C 
ATOM     17  C   UNL     1      34.664 -17.010 -24.522  0.00  0.00    +0.006 C 
ENDBRANCH   5  12
ENDBRANCH   3   6
BRANCH   2  18
ATOM     18  C   UNL     1      35.564 -23.499 -16.097  0.00  0.00    +0.111 C 
BRANCH  18  19
ATOM     19  C   UNL     1      34.645 -23.120 -14.948  0.00  0.00    +0.111 C 
BRANCH  19  21
ATOM     20  O   UNL     1      32.828 -24.654 -13.342  0.00  0.00    -0.270 OA
ATOM     21  N   UNL     1      33.267 -23.402 -15.245  0.00  0.00    -0.299 N 
ATOM     22  C   UNL     1      32.460 -24.159 -14.404  0.00  0.00    +0.252 C 
ATOM     23  H   UNL     1      32.880 -23.046 -16.077  0.00  0.00    +0.150 HD
BRANCH  22  26
ATOM     24 CL   UNL     1      27.744 -23.800 -17.165  0.00  0.00    -0.075 Cl
ATOM     25  S   UNL     1      30.512 -23.445 -16.151  0.00  0.00    -0.071 S 
ATOM     26  C   UNL     1      31.065 -24.383 -14.865  0.00  0.00    +0.084 C 
ATOM     27  C   UNL     1      30.183 -25.262 -14.364  0.00  0.00    +0.012 C 
ATOM     28  C   UNL     1      28.950 -25.177 -15.074  0.00  0.00    +0.019 C 
ATOM     29  C   UNL     1      28.992 -24.230 -16.072  0.00  0.00    +0.087 C 
ENDBRANCH  22  26
ENDBRANCH  19  21
ENDBRANCH  18  19
ENDBRANCH   2  18
TORSDOF 6
ENDMDL
MODEL 3
REMARK VINA RESULT:     -11.3      1.493      1.866
REMARK  Name = 10250490
REMARK  6 active torsions:
REMARK  status: ('A' for Active; 'I' for Inactive)
REMARK    1  A    between atoms: N_2  and  C_18
REMARK    2  A    between atoms: C_3  and  C_6
REMARK    3  A    between atoms: C_5  and  N_12
REMARK    4  A    between atoms: C_18  and  C_19
REMARK    5  A    between atoms: C_19  and  N_21
REMARK    6  A    between atoms: C_22  and  C_26
REMARK                            x       y       z     vdW  Elec       q    Type
REMARK                         _______ _______ _______ _____ _____    ______ ____
ROOT
ATOM      1  O   UNL     1      33.849 -23.889 -18.320  0.00  0.00    -0.270 OA
ATOM      2  N   UNL     1      32.058 -22.610 -17.592  0.00  0.00    -0.299 N 
ATOM      3  C   UNL     1      33.149 -22.868 -18.430  0.00  0.00    +0.246 C 
ATOM      4  H   UNL     1      31.546 -21.781 -17.735  0.00  0.00    +0.150 HD
ENDROOT
BRANCH   3   6
ATOM      5  C   UNL     1      34.050 -19.950 -21.378  0.00  0.00    +0.058 C 
ATOM      6  C   UNL     1      33.457 -21.867 -19.439  0.00  0.00    +0.053 C 
ATOM      7  C   UNL     1      32.725 -20.186 -21.011  0.00  0.00    +0.015 C 
ATOM      8  C   UNL     1      35.079 -20.674 -20.774  0.00  0.00    +0.015 C 
ATOM      9  C   UNL     1      32.429 -21.144 -20.041  0.00  0.00    +0.006 C 
ATOM     10  C   UNL     1      34.783 -21.633 -19.806  0.00  0.00    +0.006 C 
BRANCH   5  12
ATOM     11  O   UNL     1      35.213 -17.352 -20.863  0.00  0.00    -0.269 OA
ATOM     12  N   UNL     1      34.358 -18.954 -22.386  0.00  0.00    -0.233 N 
ATOM     13  C   UNL     1      34.966 -17.730 -22.008  0.00  0.00    +0.257 C 
ATOM     14  C   UNL     1      34.039 -19.182 -23.726  0.00  0.00    +0.072 C 
ATOM     15  C   UNL     1      35.293 -16.779 -23.116  0.00  0.00    +0.059 C 
ATOM     16  C   UNL     1      34.311 -18.301 -24.696  0.00  0.00    +0.017 C 
ATOM     17  C   UNL     1      34.963 -17.067 -24.378  0.00  0.00    +0.006 C 
ENDBRANCH   5  12
ENDBRANCH   3   6
BRANCH   2  18
ATOM     18  C   UNL     1      31.641 -23.494 -16.528  0.00  0.00    +0.111 C 
BRANCH  18  19
ATOM     19  C   UNL     1      32.406 -23.243 -15.239  0.00  0.00    +0.111 C 
BRANCH  19  21
ATOM     20  O   UNL     1      35.154 -22.445 -15.457  0.00  0.00    -0.270 OA
ATOM     21  N   UNL     1      33.559 -24.095 -15.123  0.00  0.00    -0.299 N 
ATOM     22  C   UNL     1      34.858 -23.617 -15.244  0.00  0.00    +0.252 C 
ATOM     23  H   UNL     1      33.421 -25.055 -14.951  0.00  0.00    +0.150 HD
BRANCH  22  26
ATOM     24 CL   UNL     1      39.724 -26.000 -14.447  0.00  0.00    -0.075 Cl
ATOM     25  S   UNL     1      37.478 -24.077 -14.718  0.00  0.00    -0.071 S 
ATOM     26  C   UNL     1      35.940 -24.629 -15.124  0.00  0.00    +0.084 C 
ATOM     27  C   UNL     1      35.826 -25.954 -15.306  0.00  0.00    +0.012 C 
ATOM     28  C   UNL     1      37.087 -26.586 -15.102  0.00  0.00    +0.019 C 
ATOM     29  C   UNL     1      38.073 -25.681 -14.777  0.00  0.00    +0.087 C 
ENDBRANCH  22  26
ENDBRANCH  19  21
ENDBRANCH  18  19
ENDBRANCH   2  18
TORSDOF 6
ENDMDL
MODEL 4
REMARK VINA RESULT:     -10.9      1.291      1.688
REMARK  Name = 10250490
REMARK  6 active torsions:
REMARK  status: ('A' for Active; 'I' for Inactive)
REMARK    1  A    between atoms: N_2  and  C_18
REMARK    2  A    between atoms: C_3  and  C_6
REMARK    3  A    between atoms: C_5  and  N_12
REMARK    4  A    between atoms: C_18  and  C_19
REMARK    5  A    between atoms: C_19  and  N_21
REMARK    6  A    between atoms: C_22  and  C_26
REMARK                            x       y       z     vdW  Elec       q    Type
REMARK                         _______ _______ _______ _____ _____    ______ ____
ROOT
ATOM      1  O   UNL     1      33.576 -24.213 -19.100  0.00  0.00    -0.270 OA
ATOM      2  N   UNL     1      32.844 -22.750 -17.458  0.00  0.00    -0.299 N 
ATOM      3  C   UNL     1      33.365 -23.048 -18.722  0.00  0.00    +0.246 C 
ATOM      4  H   UNL     1      32.701 -21.804 -17.222  0.00  0.00    +0.150 HD
ENDROOT
BRANCH   3   6
ATOM      5  C   UNL     1      34.280 -19.761 -21.248  0.00  0.00    +0.058 C 
ATOM      6  C   UNL     1      33.679 -21.922 -19.588  0.00  0.00    +0.053 C 
ATOM      7  C   UNL     1      35.309 -20.507 -20.672  0.00  0.00    +0.015 C 
ATOM      8  C   UNL     1      32.950 -20.097 -20.994  0.00  0.00    +0.015 C 
ATOM      9  C   UNL     1      35.008 -21.588 -19.842  0.00  0.00    +0.006 C 
ATOM     10  C   UNL     1      32.650 -21.177 -20.163  0.00  0.00    +0.006 C 
BRANCH   5  12
ATOM     11  O   UNL     1      34.612 -19.897 -24.118  0.00  0.00    -0.269 OA
ATOM     12  N   UNL     1      34.594 -18.638 -22.109  0.00  0.00    -0.233 N 
ATOM     13  C   UNL     1      34.691 -18.828 -23.512  0.00  0.00    +0.257 C 
ATOM     14  C   UNL     1      34.823 -17.372 -21.567  0.00  0.00    +0.072 C 
ATOM     15  C   UNL     1      34.970 -17.608 -24.331  0.00  0.00    +0.059 C 
ATOM     16  C   UNL     1      35.105 -16.302 -22.318  0.00  0.00    +0.017 C 
ATOM     17  C   UNL     1      35.173 -16.426 -23.743  0.00  0.00    +0.006 C 
ENDBRANCH   5  12
ENDBRANCH   3   6
BRANCH   2  18
ATOM     18  C   UNL     1      32.504 -23.755 -16.476  0.00  0.00    +0.111 C 
BRANCH  18  19
ATOM     19  C   UNL     1      33.022 -23.405 -15.092  0.00  0.00    +0.111 C 
BRANCH  19  21
ATOM     20  O   UNL     1      34.018 -24.509 -12.636  0.00  0.00    -0.270 OA
ATOM     21  N   UNL     1      34.340 -23.933 -14.860  0.00  0.00    -0.299 N 
ATOM     22  C   UNL     1      34.735 -24.449 -13.632  0.00  0.00    +0.252 C 
ATOM     23  H   UNL     1      34.987 -23.927 -15.602  0.00  0.00    +0.150 HD
BRANCH  22  26
ATOM     24 CL   UNL     1      39.950 -25.600 -14.841  0.00  0.00    -0.075 Cl
ATOM     25  S   UNL     1      37.127 -24.682 -14.887  0.00  0.00    -0.071 S 
ATOM     26  C   UNL     1      36.137 -24.932 -13.547  0.00  0.00    +0.084 C 
ATOM     27  C   UNL     1      36.712 -25.555 -12.507  0.00  0.00    +0.012 C 
ATOM     28  C   UNL     1      38.071 -25.862 -12.810  0.00  0.00    +0.019 C 
ATOM     29  C   UNL     1      38.427 -25.441 -14.072  0.00  0.00    +0.087 C 
ENDBRANCH  22  26
ENDBRANCH  19  21
ENDBRANCH  18  19
ENDBRANCH   2  18
TORSDOF 6
ENDMDL
MODEL 5
REMARK VINA RESULT:     -10.5      8.241     13.428
REMARK  Name = 10250490
REMARK  6 active torsions:
REMARK  status: ('A' for Active; 'I' for Inactive)
REMARK    1  A    between atoms: N_2  and  C_18
REMARK    2  A    between atoms: C_3  and  C_6
REMARK    3  A    between atoms: C_5  and  N_12
REMARK    4  A    between atoms: C_18  and  C_19
REMARK    5  A    between atoms: C_19  and  N_21
REMARK    6  A    between atoms: C_22  and  C_26
REMARK                            x       y       z     vdW  Elec       q    Type
REMARK                         _______ _______ _______ _____ _____    ______ ____
ROOT
ATOM      1  O   UNL     1      33.808 -15.291 -26.233  0.00  0.00    -0.270 OA
ATOM      2  N   UNL     1      33.780 -13.801 -24.457  0.00  0.00    -0.299 N 
ATOM      3  C   UNL     1      33.949 -15.072 -25.017  0.00  0.00    +0.246 C 
ATOM      4  H   UNL     1      33.908 -13.698 -23.486  0.00  0.00    +0.150 HD
ENDROOT
BRANCH   3   6
ATOM      5  C   UNL     1      34.916 -18.234 -22.355  0.00  0.00    +0.058 C 
ATOM      6  C   UNL     1      34.281 -16.156 -24.106  0.00  0.00    +0.053 C 
ATOM      7  C   UNL     1      34.538 -18.517 -23.667  0.00  0.00    +0.015 C 
ATOM      8  C   UNL     1      34.977 -16.910 -21.918  0.00  0.00    +0.015 C 
ATOM      9  C   UNL     1      34.221 -17.478 -24.543  0.00  0.00    +0.006 C 
ATOM     10  C   UNL     1      34.659 -15.871 -22.793  0.00  0.00    +0.006 C 
BRANCH   5  12
ATOM     11  O   UNL     1      37.581 -18.913 -21.459  0.00  0.00    -0.269 OA
ATOM     12  N   UNL     1      35.244 -19.314 -21.445  0.00  0.00    -0.233 N 
ATOM     13  C   UNL     1      36.591 -19.520 -21.049  0.00  0.00    +0.257 C 
ATOM     14  C   UNL     1      34.247 -20.169 -20.972  0.00  0.00    +0.072 C 
ATOM     15  C   UNL     1      36.836 -20.625 -20.072  0.00  0.00    +0.059 C 
ATOM     16  C   UNL     1      34.496 -21.173 -20.124  0.00  0.00    +0.017 C 
ATOM     17  C   UNL     1      35.831 -21.401 -19.657  0.00  0.00    +0.006 C 
ENDBRANCH   5  12
ENDBRANCH   3   6
BRANCH   2  18
ATOM     18  C   UNL     1      33.427 -12.629 -25.227  0.00  0.00    +0.111 C 
BRANCH  18  19
ATOM     19  C   UNL     1      34.428 -11.501 -25.046  0.00  0.00    +0.111 C 
BRANCH  19  21
ATOM     20  O   UNL     1      35.725  -9.049 -24.306  0.00  0.00    -0.270 OA
ATOM     21  N   UNL     1      33.787 -10.262 -24.698  0.00  0.00    -0.299 N 
ATOM     22  C   UNL     1      34.499  -9.121 -24.351  0.00  0.00    +0.252 C 
ATOM     23  H   UNL     1      32.803 -10.221 -24.706  0.00  0.00    +0.150 HD
BRANCH  22  26
ATOM     24 CL   UNL     1      30.691  -5.186 -24.378  0.00  0.00    -0.075 Cl
ATOM     25  S   UNL     1      32.388  -7.545 -24.990  0.00  0.00    -0.071 S 
ATOM     26  C   UNL     1      33.689  -7.928 -23.992  0.00  0.00    +0.084 C 
ATOM     27  C   UNL     1      33.881  -7.110 -22.945  0.00  0.00    +0.012 C 
ATOM     28  C   UNL     1      32.896  -6.080 -22.942  0.00  0.00    +0.019 C 
ATOM     29  C   UNL     1      32.020  -6.197 -23.998  0.00  0.00    +0.087 C 
ENDBRANCH  22  26
ENDBRANCH  19  21
ENDBRANCH  18  19
ENDBRANCH   2  18
TORSDOF 6
ENDMDL
MODEL 6
REMARK VINA RESULT:     -10.5      7.939     13.060
REMARK  Name = 10250490
REMARK  6 active torsions:
REMARK  status: ('A' for Active; 'I' for Inactive)
REMARK    1  A    between atoms: N_2  and  C_18
REMARK    2  A    between atoms: C_3  and  C_6
REMARK    3  A    between atoms: C_5  and  N_12
REMARK    4  A    between atoms: C_18  and  C_19
REMARK    5  A    between atoms: C_19  and  N_21
REMARK    6  A    between atoms: C_22  and  C_26
REMARK                            x       y       z     vdW  Elec       q    Type
REMARK                         _______ _______ _______ _____ _____    ______ ____
ROOT
ATOM      1  O   UNL     1      34.613 -16.078 -25.708  0.00  0.00    -0.270 OA
ATOM      2  N   UNL     1      34.310 -14.603 -23.945  0.00  0.00    -0.299 N 
ATOM      3  C   UNL     1      34.510 -15.878 -24.486  0.00  0.00    +0.246 C 
ATOM      4  H   UNL     1      34.237 -14.517 -22.967  0.00  0.00    +0.150 HD
ENDROOT
BRANCH   3   6
ATOM      5  C   UNL     1      34.689 -19.123 -21.755  0.00  0.00    +0.058 C 
ATOM      6  C   UNL     1      34.571 -16.990 -23.549  0.00  0.00    +0.053 C 
ATOM      7  C   UNL     1      35.039 -17.839 -21.337  0.00  0.00    +0.015 C 
ATOM      8  C   UNL     1      34.278 -19.340 -23.071  0.00  0.00    +0.015 C 
ATOM      9  C   UNL     1      34.980 -16.773 -22.234  0.00  0.00    +0.006 C 
ATOM     10  C   UNL     1      34.220 -18.273 -23.968  0.00  0.00    +0.006 C 
BRANCH   5  12
ATOM     11  O   UNL     1      32.404 -20.496 -20.633  0.00  0.00    -0.269 OA
ATOM     12  N   UNL     1      34.752 -20.231 -20.822  0.00  0.00    -0.233 N 
ATOM     13  C   UNL     1      33.555 -20.848 -20.374  0.00  0.00    +0.257 C 
ATOM     14  C   UNL     1      35.982 -20.684 -20.342  0.00  0.00    +0.072 C 
ATOM     15  C   UNL     1      33.711 -22.014 -19.451  0.00  0.00    +0.059 C 
ATOM     16  C   UNL     1      36.095 -21.709 -19.490  0.00  0.00    +0.017 C 
ATOM     17  C   UNL     1      34.923 -22.396 -19.038  0.00  0.00    +0.006 C 
ENDBRANCH   5  12
ENDBRANCH   3   6
BRANCH   2  18
ATOM     18  C   UNL     1      34.204 -13.404 -24.746  0.00  0.00    +0.111 C 
BRANCH  18  19
ATOM     19  C   UNL     1      33.310 -12.359 -24.099  0.00  0.00    +0.111 C 
BRANCH  19  21
ATOM     20  O   UNL     1      32.220  -9.934 -23.017  0.00  0.00    -0.270 OA
ATOM     21  N   UNL     1      33.777 -11.022 -24.349  0.00  0.00    -0.299 N 
ATOM     22  C   UNL     1      33.184  -9.903 -23.778  0.00  0.00    +0.252 C 
ATOM     23  H   UNL     1      34.548 -10.895 -24.949  0.00  0.00    +0.150 HD
BRANCH  22  26
ATOM     24 CL   UNL     1      33.751  -4.727 -25.477  0.00  0.00    -0.075 Cl
ATOM     25  S   UNL     1      32.708  -7.394 -24.691  0.00  0.00    -0.071 S 
ATOM     26  C   UNL     1      33.767  -8.590 -24.157  0.00  0.00    +0.084 C 
ATOM     27  C   UNL     1      35.064  -8.245 -24.120  0.00  0.00    +0.012 C 
ATOM     28  C   UNL     1      35.225  -6.899 -24.561  0.00  0.00    +0.019 C 
ATOM     29  C   UNL     1      34.023  -6.319 -24.902  0.00  0.00    +0.087 C 
ENDBRANCH  22  26
ENDBRANCH  19  21
ENDBRANCH  18  19
ENDBRANCH   2  18
TORSDOF 6
ENDMDL
MODEL 7
REMARK VINA RESULT:     -10.2      5.915      9.637
REMARK  Name = 10250490
REMARK  6 active torsions:
REMARK  status: ('A' for Active; 'I' for Inactive)
REMARK    1  A    between atoms: N_2  and  C_18
REMARK    2  A    between atoms: C_3  and  C_6
REMARK    3  A    between atoms: C_5  and  N_12
REMARK    4  A    between atoms: C_18  and  C_19
REMARK    5  A    between atoms: C_19  and  N_21
REMARK    6  A    between atoms: C_22  and  C_26
REMARK                            x       y       z     vdW  Elec       q    Type
REMARK                         _______ _______ _______ _____ _____    ______ ____
ROOT
ATOM      1  O   UNL     1      33.423 -15.514 -26.164  0.00  0.00    -0.270 OA
ATOM      2  N   UNL     1      34.433 -15.836 -24.103  0.00  0.00    -0.299 N 
ATOM      3  C   UNL     1      33.830 -15.046 -25.087  0.00  0.00    +0.246 C 
ATOM      4  H   UNL     1      34.732 -15.400 -23.272  0.00  0.00    +0.150 HD
ENDROOT
BRANCH   3   6
ATOM      5  C   UNL     1      33.492 -10.892 -24.277  0.00  0.00    +0.058 C 
ATOM      6  C   UNL     1      33.713 -13.622 -24.811  0.00  0.00    +0.053 C 
ATOM      7  C   UNL     1      33.707 -11.334 -25.583  0.00  0.00    +0.015 C 
ATOM      8  C   UNL     1      33.387 -11.817 -23.238  0.00  0.00    +0.015 C 
ATOM      9  C   UNL     1      33.817 -12.699 -25.850  0.00  0.00    +0.006 C 
ATOM     10  C   UNL     1      33.498 -13.182 -23.504  0.00  0.00    +0.006 C 
BRANCH   5  12
ATOM     11  O   UNL     1      35.693  -9.017 -24.233  0.00  0.00    -0.269 OA
ATOM     12  N   UNL     1      33.379  -9.474 -24.001  0.00  0.00    -0.233 N 
ATOM     13  C   UNL     1      34.533  -8.650 -24.049  0.00  0.00    +0.257 C 
ATOM     14  C   UNL     1      32.144  -8.914 -23.665  0.00  0.00    +0.072 C 
ATOM     15  C   UNL     1      34.319  -7.190 -23.798  0.00  0.00    +0.059 C 
ATOM     16  C   UNL     1      31.984  -7.610 -23.412  0.00  0.00    +0.017 C 
ATOM     17  C   UNL     1      33.107  -6.724 -23.488  0.00  0.00    +0.006 C 
ENDBRANCH   5  12
ENDBRANCH   3   6
BRANCH   2  18
ATOM     18  C   UNL     1      34.642 -17.260 -24.239  0.00  0.00    +0.111 C 
BRANCH  18  19
ATOM     19  C   UNL     1      35.473 -17.830 -23.102  0.00  0.00    +0.111 C 
BRANCH  19  21
ATOM     20  O   UNL     1      36.492 -19.459 -20.969  0.00  0.00    -0.270 OA
ATOM     21  N   UNL     1      34.727 -18.766 -22.305  0.00  0.00    -0.299 N 
ATOM     22  C   UNL     1      35.307 -19.515 -21.289  0.00  0.00    +0.252 C 
ATOM     23  H   UNL     1      33.766 -18.881 -22.489  0.00  0.00    +0.150 HD
BRANCH  22  26
ATOM     24 CL   UNL     1      33.432 -23.598 -18.158  0.00  0.00    -0.075 Cl
ATOM     25  S   UNL     1      35.125 -21.654 -19.633  0.00  0.00    -0.071 S 
ATOM     26  C   UNL     1      34.407 -20.458 -20.576  0.00  0.00    +0.084 C 
ATOM     27  C   UNL     1      33.065 -20.463 -20.602  0.00  0.00    +0.012 C 
ATOM     28  C   UNL     1      32.564 -21.523 -19.791  0.00  0.00    +0.019 C 
ATOM     29  C   UNL     1      33.577 -22.249 -19.204  0.00  0.00    +0.087 C 
ENDBRANCH  22  26
ENDBRANCH  19  21
ENDBRANCH  18  19
ENDBRANCH   2  18
TORSDOF 6
ENDMDL
MODEL 8
REMARK VINA RESULT:     -10.1      4.795     10.456
REMARK  Name = 10250490
REMARK  6 active torsions:
REMARK  status: ('A' for Active; 'I' for Inactive)
REMARK    1  A    between atoms: N_2  and  C_18
REMARK    2  A    between atoms: C_3  and  C_6
REMARK    3  A    between atoms: C_5  and  N_12
REMARK    4  A    between atoms: C_18  and  C_19
REMARK    5  A    between atoms: C_19  and  N_21
REMARK    6  A    between atoms: C_22  and  C_26
REMARK                            x       y       z     vdW  Elec       q    Type
REMARK                         _______ _______ _______ _____ _____    ______ ____
ROOT
ATOM      1  O   UNL     1      32.698 -22.300 -19.883  0.00  0.00    -0.270 OA
ATOM      2  N   UNL     1      34.448 -20.803 -20.143  0.00  0.00    -0.299 N 
ATOM      3  C   UNL     1      33.787 -21.848 -19.489  0.00  0.00    +0.246 C 
ATOM      4  H   UNL     1      35.308 -20.493 -19.777  0.00  0.00    +0.150 HD
ENDROOT
BRANCH   3   6
ATOM      5  C   UNL     1      35.635 -23.411 -16.002  0.00  0.00    +0.058 C 
ATOM      6  C   UNL     1      34.420 -22.385 -18.294  0.00  0.00    +0.053 C 
ATOM      7  C   UNL     1      34.301 -23.710 -16.279  0.00  0.00    +0.015 C 
ATOM      8  C   UNL     1      36.362 -22.598 -16.873  0.00  0.00    +0.015 C 
ATOM      9  C   UNL     1      33.693 -23.197 -17.425  0.00  0.00    +0.006 C 
ATOM     10  C   UNL     1      35.754 -22.085 -18.019  0.00  0.00    +0.006 C 
BRANCH   5  12
ATOM     11  O   UNL     1      36.540 -26.137 -15.665  0.00  0.00    -0.269 OA
ATOM     12  N   UNL     1      36.266 -23.943 -14.810  0.00  0.00    -0.233 N 
ATOM     13  C   UNL     1      36.703 -25.293 -14.784  0.00  0.00    +0.257 C 
ATOM     14  C   UNL     1      36.426 -23.143 -13.677  0.00  0.00    +0.072 C 
ATOM     15  C   UNL     1      37.386 -25.747 -13.533  0.00  0.00    +0.059 C 
ATOM     16  C   UNL     1      37.011 -23.583 -12.556  0.00  0.00    +0.017 C 
ATOM     17  C   UNL     1      37.510 -24.924 -12.489  0.00  0.00    +0.006 C 
ENDBRANCH   5  12
ENDBRANCH   3   6
BRANCH   2  18
ATOM     18  C   UNL     1      33.936 -20.150 -21.327  0.00  0.00    +0.111 C 
BRANCH  18  19
ATOM     19  C   UNL     1      35.048 -19.674 -22.246  0.00  0.00    +0.111 C 
BRANCH  19  21
ATOM     20  O   UNL     1      35.271 -17.126 -20.943  0.00  0.00    -0.270 OA
ATOM     21  N   UNL     1      34.759 -18.387 -22.820  0.00  0.00    -0.299 N 
ATOM     22  C   UNL     1      34.896 -17.201 -22.110  0.00  0.00    +0.252 C 
ATOM     23  H   UNL     1      34.451 -18.347 -23.755  0.00  0.00    +0.150 HD
BRANCH  22  26
ATOM     24 CL   UNL     1      33.440 -13.682 -26.045  0.00  0.00    -0.075 Cl
ATOM     25  S   UNL     1      34.182 -16.094 -24.479  0.00  0.00    -0.071 S 
ATOM     26  C   UNL     1      34.532 -15.958 -22.838  0.00  0.00    +0.084 C 
ATOM     27  C   UNL     1      34.451 -14.721 -22.325  0.00  0.00    +0.012 C 
ATOM     28  C   UNL     1      34.073 -13.794 -23.340  0.00  0.00    +0.019 C 
ATOM     29  C   UNL     1      33.894 -14.408 -24.560  0.00  0.00    +0.087 C 
ENDBRANCH  22  26
ENDBRANCH  19  21
ENDBRANCH  18  19
ENDBRANCH   2  18
TORSDOF 6
ENDMDL
MODEL 9
REMARK VINA RESULT:      -9.8      7.492     13.065
REMARK  Name = 10250490
REMARK  6 active torsions:
REMARK  status: ('A' for Active; 'I' for Inactive)
REMARK    1  A    between atoms: N_2  and  C_18
REMARK    2  A    between atoms: C_3  and  C_6
REMARK    3  A    between atoms: C_5  and  N_12
REMARK    4  A    between atoms: C_18  and  C_19
REMARK    5  A    between atoms: C_19  and  N_21
REMARK    6  A    between atoms: C_22  and  C_26
REMARK                            x       y       z     vdW  Elec       q    Type
REMARK                         _______ _______ _______ _____ _____    ______ ____
ROOT
ATOM      1  O   UNL     1      33.505 -12.907 -23.967  0.00  0.00    -0.270 OA
ATOM      2  N   UNL     1      33.509 -14.130 -25.936  0.00  0.00    -0.299 N 
ATOM      3  C   UNL     1      33.688 -13.986 -24.556  0.00  0.00    +0.246 C 
ATOM      4  H   UNL     1      33.670 -15.015 -26.338  0.00  0.00    +0.150 HD
ENDROOT
BRANCH   3   6
ATOM      5  C   UNL     1      34.974 -17.419 -22.415  0.00  0.00    +0.058 C 
ATOM      6  C   UNL     1      34.128 -15.162 -23.821  0.00  0.00    +0.053 C 
ATOM      7  C   UNL     1      34.747 -16.219 -21.740  0.00  0.00    +0.015 C 
ATOM      8  C   UNL     1      34.777 -17.490 -23.794  0.00  0.00    +0.015 C 
ATOM      9  C   UNL     1      34.324 -15.091 -22.443  0.00  0.00    +0.006 C 
ATOM     10  C   UNL     1      34.355 -16.361 -24.497  0.00  0.00    +0.006 C 
BRANCH   5  12
ATOM     11  O   UNL     1      33.287 -19.634 -21.633  0.00  0.00    -0.269 OA
ATOM     12  N   UNL     1      35.415 -18.590 -21.683  0.00  0.00    -0.233 N 
ATOM     13  C   UNL     1      34.495 -19.631 -21.394  0.00  0.00    +0.257 C 
ATOM     14  C   UNL     1      36.735 -18.694 -21.241  0.00  0.00    +0.072 C 
ATOM     15  C   UNL     1      35.043 -20.825 -20.678  0.00  0.00    +0.059 C 
ATOM     16  C   UNL     1      37.194 -19.757 -20.572  0.00  0.00    +0.017 C 
ATOM     17  C   UNL     1      36.320 -20.857 -20.290  0.00  0.00    +0.006 C 
ENDBRANCH   5  12
ENDBRANCH   3   6
BRANCH   2  18
ATOM     18  C   UNL     1      33.098 -13.051 -26.805  0.00  0.00    +0.111 C 
BRANCH  18  19
ATOM     19  C   UNL     1      34.162 -11.973 -26.924  0.00  0.00    +0.111 C 
BRANCH  19  21
ATOM     20  O   UNL     1      36.151 -10.157 -25.930  0.00  0.00    -0.270 OA
ATOM     21  N   UNL     1      33.956 -10.905 -25.983  0.00  0.00    -0.299 N 
ATOM     22  C   UNL     1      34.984 -10.073 -25.557  0.00  0.00    +0.252 C 
ATOM     23  H   UNL     1      33.050 -10.759 -25.626  0.00  0.00    +0.150 HD
BRANCH  22  26
ATOM     24 CL   UNL     1      32.324  -7.245 -21.695  0.00  0.00    -0.075 Cl
ATOM     25  S   UNL     1      33.175  -9.251 -23.712  0.00  0.00    -0.071 S 
ATOM     26  C   UNL     1      34.613  -9.034 -24.562  0.00  0.00    +0.084 C 
ATOM     27  C   UNL     1      35.306  -7.925 -24.260  0.00  0.00    +0.012 C 
ATOM     28  C   UNL     1      34.624  -7.179 -23.256  0.00  0.00    +0.019 C 
ATOM     29  C   UNL     1      33.450  -7.787 -22.867  0.00  0.00    +0.087 C 
ENDBRANCH  22  26
ENDBRANCH  19  21
ENDBRANCH  18  19
ENDBRANCH   2  18
TORSDOF 6
ENDMDL
