MODEL 1
REMARK VINA RESULT:     -12.4      0.000      0.000
REMARK  Name = 11633167
REMARK  7 active torsions:
REMARK  status: ('A' for Active; 'I' for Inactive)
REMARK    1  A    between atoms: C_1  and  C_8
REMARK    2  A    between atoms: C_2  and  C_25
REMARK    3  A    between atoms: C_4  and  O_17
REMARK    4  A    between atoms: O_17  and  C_18
REMARK    5  A    between atoms: C_18  and  C_20
REMARK    6  A    between atoms: C_25  and  N_26
REMARK    7  A    between atoms: N_26  and  C_29
REMARK                            x       y       z     vdW  Elec       q    Type
REMARK                         _______ _______ _______ _____ _____    ______ ____
ROOT
ATOM      1  C   UNL     1      35.066 -20.330 -20.725  0.00  0.00    -0.000 C 
ATOM      2  C   UNL     1      34.122 -21.944 -19.197  0.00  0.00    +0.031 C 
ATOM      3  C   UNL     1      33.967 -21.051 -20.258  0.00  0.00    +0.000 C 
ATOM      4  C   UNL     1      35.372 -22.114 -18.605  0.00  0.00    +0.137 C 
ATOM      5  C   UNL     1      36.316 -20.500 -20.134  0.00  0.00    +0.003 C 
ATOM      6  C   UNL     1      36.470 -21.394 -19.074  0.00  0.00    +0.037 C 
ENDROOT
BRANCH   1   8
ATOM      7  N   UNL     1      34.945 -15.797 -22.750  0.00  0.00    -0.312 N 
ATOM      8  C   UNL     1      34.906 -19.403 -21.826  0.00  0.00    +0.001 C 
ATOM      9  C   UNL     1      34.874 -17.170 -22.683  0.00  0.00    +0.048 C 
ATOM     10  C   UNL     1      34.595 -17.630 -23.972  0.00  0.00    +0.015 C 
ATOM     11  C   UNL     1      35.035 -18.031 -21.592  0.00  0.00    +0.015 C 
ATOM     12  C   UNL     1      34.629 -19.891 -23.101  0.00  0.00    +0.000 C 
ATOM     13  C   UNL     1      34.470 -19.018 -24.184  0.00  0.00    +0.001 C 
ATOM     14  C   UNL     1      34.502 -16.487 -24.813  0.00  0.00    +0.017 C 
ATOM     15  C   UNL     1      34.720 -15.374 -24.034  0.00  0.00    +0.062 C 
ATOM     16  H   UNL     1      35.129 -15.204 -21.986  0.00  0.00    +0.152 HD
ENDBRANCH   1   8
BRANCH   4  17
ATOM     17  O   UNL     1      35.541 -22.982 -17.568  0.00  0.00    -0.469 OA
BRANCH  17  18
ATOM     18  C   UNL     1      36.534 -22.651 -16.600  0.00  0.00    +0.251 C 
BRANCH  18  20
ATOM     19  N   UNL     1      35.865 -24.808 -15.728  0.00  0.00    -0.244 NA
ATOM     20  C   UNL     1      36.825 -23.861 -15.763  0.00  0.00    +0.103 C 
ATOM     21  C   UNL     1      38.029 -23.940 -15.091  0.00  0.00    +0.018 C 
ATOM     22  C   UNL     1      38.267 -25.074 -14.324  0.00  0.00    +0.003 C 
ATOM     23  C   UNL     1      36.132 -25.896 -14.972  0.00  0.00    +0.099 C 
ATOM     24  C   UNL     1      37.306 -26.077 -14.258  0.00  0.00    +0.021 C 
ENDBRANCH  18  20
ENDBRANCH  17  18
ENDBRANCH   4  17
BRANCH   2  25
ATOM     25  C   UNL     1      32.936 -22.708 -18.708  0.00  0.00    +0.117 C 
BRANCH  25  26
ATOM     26  N   UNL     1      33.102 -23.169 -17.329  0.00  0.00    -0.327 N 
ATOM     27  H   UNL     1      33.991 -23.478 -17.040  0.00  0.00    +0.147 HD
BRANCH  26  29
ATOM     28  N   UNL     1      31.289 -23.270 -14.100  0.00  0.00    -0.228 NA
ATOM     29  C   UNL     1      32.074 -23.192 -16.416  0.00  0.00    +0.077 C 
ATOM     30  C   UNL     1      32.273 -23.245 -15.028  0.00  0.00    +0.139 C 
ATOM     31  C   UNL     1      30.732 -23.161 -16.838  0.00  0.00    +0.019 C 
ATOM     32  C   UNL     1      29.692 -23.184 -15.914  0.00  0.00    +0.022 C 
ATOM     33  C   UNL     1      30.022 -23.238 -14.569  0.00  0.00    +0.100 C 
ATOM     34  N   UNL     1      33.613 -23.278 -14.568  0.00  0.00    -0.342 N 
ATOM     35  H   UNL     1      33.801 -23.316 -13.602  0.00  0.00    +0.144 HD
ATOM     36  H   UNL     1      34.357 -23.262 -15.214  0.00  0.00    +0.144 HD
ENDBRANCH  26  29
ENDBRANCH  25  26
ENDBRANCH   2  25
TORSDOF 7
ENDMDL
MODEL 2
REMARK VINA RESULT:     -12.3      1.305      1.587
REMARK  Name = 11633167
REMARK  7 active torsions:
REMARK  status: ('A' for Active; 'I' for Inactive)
REMARK    1  A    between atoms: C_1  and  C_8
REMARK    2  A    between atoms: C_2  and  C_25
REMARK    3  A    between atoms: C_4  and  O_17
REMARK    4  A    between atoms: O_17  and  C_18
REMARK    5  A    between atoms: C_18  and  C_20
REMARK    6  A    between atoms: C_25  and  N_26
REMARK    7  A    between atoms: N_26  and  C_29
REMARK                            x       y       z     vdW  Elec       q    Type
REMARK                         _______ _______ _______ _____ _____    ______ ____
ROOT
ATOM      1  C   UNL     1      35.294 -20.902 -20.000  0.00  0.00    -0.000 C 
ATOM      2  C   UNL     1      34.136 -22.405 -18.507  0.00  0.00    +0.031 C 
ATOM      3  C   UNL     1      34.123 -21.550 -19.609  0.00  0.00    +0.000 C 
ATOM      4  C   UNL     1      35.319 -22.611 -17.798  0.00  0.00    +0.137 C 
ATOM      5  C   UNL     1      36.477 -21.108 -19.292  0.00  0.00    +0.003 C 
ATOM      6  C   UNL     1      36.490 -21.964 -18.190  0.00  0.00    +0.037 C 
ENDROOT
BRANCH   1   8
ATOM      7  N   UNL     1      33.309 -18.981 -24.127  0.00  0.00    -0.312 N 
ATOM      8  C   UNL     1      35.282 -20.014 -21.144  0.00  0.00    +0.001 C 
ATOM      9  C   UNL     1      34.223 -19.169 -23.116  0.00  0.00    +0.048 C 
ATOM     10  C   UNL     1      35.281 -18.286 -23.349  0.00  0.00    +0.015 C 
ATOM     11  C   UNL     1      34.196 -20.044 -22.023  0.00  0.00    +0.015 C 
ATOM     12  C   UNL     1      36.350 -19.145 -21.351  0.00  0.00    +0.000 C 
ATOM     13  C   UNL     1      36.365 -18.275 -22.448  0.00  0.00    +0.001 C 
ATOM     14  C   UNL     1      34.968 -17.562 -24.532  0.00  0.00    +0.017 C 
ATOM     15  C   UNL     1      33.750 -18.012 -24.989  0.00  0.00    +0.062 C 
ATOM     16  H   UNL     1      32.460 -19.472 -24.219  0.00  0.00    +0.152 HD
ENDBRANCH   1   8
BRANCH   4  17
ATOM     17  O   UNL     1      35.349 -23.443 -16.719  0.00  0.00    -0.469 OA
BRANCH  17  18
ATOM     18  C   UNL     1      36.369 -23.211 -15.750  0.00  0.00    +0.251 C 
BRANCH  18  20
ATOM     19  N   UNL     1      36.190 -25.623 -15.631  0.00  0.00    -0.244 NA
ATOM     20  C   UNL     1      36.710 -24.508 -15.077  0.00  0.00    +0.103 C 
ATOM     21  C   UNL     1      37.517 -24.492 -13.957  0.00  0.00    +0.018 C 
ATOM     22  C   UNL     1      37.813 -25.711 -13.358  0.00  0.00    +0.003 C 
ATOM     23  C   UNL     1      36.499 -26.788 -15.022  0.00  0.00    +0.099 C 
ATOM     24  C   UNL     1      37.299 -26.886 -13.894  0.00  0.00    +0.021 C 
ENDBRANCH  18  20
ENDBRANCH  17  18
ENDBRANCH   4  17
BRANCH   2  25
ATOM     25  C   UNL     1      32.874 -23.091 -18.100  0.00  0.00    +0.117 C 
BRANCH  25  26
ATOM     26  N   UNL     1      32.597 -22.944 -16.671  0.00  0.00    -0.327 N 
ATOM     27  H   UNL     1      33.135 -22.304 -16.151  0.00  0.00    +0.147 HD
BRANCH  26  29
ATOM     28  N   UNL     1      30.957 -25.291 -14.321  0.00  0.00    -0.228 NA
ATOM     29  C   UNL     1      31.620 -23.660 -16.018  0.00  0.00    +0.077 C 
ATOM     30  C   UNL     1      31.888 -24.570 -14.985  0.00  0.00    +0.139 C 
ATOM     31  C   UNL     1      30.264 -23.511 -16.362  0.00  0.00    +0.019 C 
ATOM     32  C   UNL     1      29.277 -24.234 -15.701  0.00  0.00    +0.022 C 
ATOM     33  C   UNL     1      29.673 -25.104 -14.697  0.00  0.00    +0.100 C 
ATOM     34  N   UNL     1      33.245 -24.746 -14.613  0.00  0.00    -0.342 N 
ATOM     35  H   UNL     1      33.481 -25.374 -13.893  0.00  0.00    +0.144 HD
ATOM     36  H   UNL     1      33.952 -24.238 -15.075  0.00  0.00    +0.144 HD
ENDBRANCH  26  29
ENDBRANCH  25  26
ENDBRANCH   2  25
TORSDOF 7
ENDMDL
MODEL 3
REMARK VINA RESULT:     -12.3      1.628      4.967
REMARK  Name = 11633167
REMARK  7 active torsions:
REMARK  status: ('A' for Active; 'I' for Inactive)
REMARK    1  A    between atoms: C_1  and  C_8
REMARK    2  A    between atoms: C_2  and  C_25
REMARK    3  A    between atoms: C_4  and  O_17
REMARK    4  A    between atoms: O_17  and  C_18
REMARK    5  A    between atoms: C_18  and  C_20
REMARK    6  A    between atoms: C_25  and  N_26
REMARK    7  A    between atoms: N_26  and  C_29
REMARK                            x       y       z     vdW  Elec       q    Type
REMARK                         _______ _______ _______ _____ _____    ______ ____
ROOT
ATOM      1  C   UNL     1      34.890 -21.677 -19.097  0.00  0.00    -0.000 C 
ATOM      2  C   UNL     1      35.570 -22.697 -17.017  0.00  0.00    +0.031 C 
ATOM      3  C   UNL     1      35.830 -21.831 -18.080  0.00  0.00    +0.000 C 
ATOM      4  C   UNL     1      34.372 -23.407 -16.973  0.00  0.00    +0.137 C 
ATOM      5  C   UNL     1      33.691 -22.386 -19.054  0.00  0.00    +0.003 C 
ATOM      6  C   UNL     1      33.431 -23.252 -17.991  0.00  0.00    +0.037 C 
ENDROOT
BRANCH   1   8
ATOM      7  N   UNL     1      33.648 -19.148 -23.187  0.00  0.00    -0.312 N 
ATOM      8  C   UNL     1      35.158 -20.779 -20.201  0.00  0.00    +0.001 C 
ATOM      9  C   UNL     1      34.440 -19.611 -22.161  0.00  0.00    +0.048 C 
ATOM     10  C   UNL     1      35.703 -19.038 -22.326  0.00  0.00    +0.015 C 
ATOM     11  C   UNL     1      34.138 -20.484 -21.109  0.00  0.00    +0.015 C 
ATOM     12  C   UNL     1      36.427 -20.222 -20.340  0.00  0.00    +0.000 C 
ATOM     13  C   UNL     1      36.716 -19.350 -21.397  0.00  0.00    +0.001 C 
ATOM     14  C   UNL     1      35.641 -18.215 -23.485  0.00  0.00    +0.017 C 
ATOM     15  C   UNL     1      34.365 -18.304 -23.994  0.00  0.00    +0.062 C 
ATOM     16  H   UNL     1      32.703 -19.389 -23.324  0.00  0.00    +0.152 HD
ENDBRANCH   1   8
BRANCH   4  17
ATOM     17  O   UNL     1      34.102 -24.257 -15.943  0.00  0.00    -0.469 OA
BRANCH  17  18
ATOM     18  C   UNL     1      33.479 -23.699 -14.788  0.00  0.00    +0.251 C 
BRANCH  18  20
ATOM     19  N   UNL     1      31.624 -25.228 -14.505  0.00  0.00    -0.244 NA
ATOM     20  C   UNL     1      32.006 -23.980 -14.841  0.00  0.00    +0.103 C 
ATOM     21  C   UNL     1      31.143 -22.970 -15.220  0.00  0.00    +0.018 C 
ATOM     22  C   UNL     1      29.785 -23.263 -15.259  0.00  0.00    +0.003 C 
ATOM     23  C   UNL     1      30.296 -25.476 -14.554  0.00  0.00    +0.099 C 
ATOM     24  C   UNL     1      29.345 -24.538 -14.920  0.00  0.00    +0.021 C 
ENDBRANCH  18  20
ENDBRANCH  17  18
ENDBRANCH   4  17
BRANCH   2  25
ATOM     25  C   UNL     1      36.588 -22.851 -15.935  0.00  0.00    +0.117 C 
BRANCH  25  26
ATOM     26  N   UNL     1      37.032 -24.237 -15.784  0.00  0.00    -0.327 N 
ATOM     27  H   UNL     1      37.274 -24.744 -16.593  0.00  0.00    +0.147 HD
BRANCH  26  29
ATOM     28  N   UNL     1      36.686 -26.794 -13.127  0.00  0.00    -0.228 NA
ATOM     29  C   UNL     1      37.129 -24.866 -14.564  0.00  0.00    +0.077 C 
ATOM     30  C   UNL     1      36.612 -26.145 -14.311  0.00  0.00    +0.139 C 
ATOM     31  C   UNL     1      37.769 -24.241 -13.479  0.00  0.00    +0.019 C 
ATOM     32  C   UNL     1      37.866 -24.877 -12.245  0.00  0.00    +0.022 C 
ATOM     33  C   UNL     1      37.313 -26.142 -12.124  0.00  0.00    +0.100 C 
ATOM     34  N   UNL     1      35.959 -26.803 -15.384  0.00  0.00    -0.342 N 
ATOM     35  H   UNL     1      35.580 -27.702 -15.251  0.00  0.00    +0.144 HD
ATOM     36  H   UNL     1      35.884 -26.361 -16.261  0.00  0.00    +0.144 HD
ENDBRANCH  26  29
ENDBRANCH  25  26
ENDBRANCH   2  25
TORSDOF 7
ENDMDL
MODEL 4
REMARK VINA RESULT:     -12.1      1.082      4.197
REMARK  Name = 11633167
REMARK  7 active torsions:
REMARK  status: ('A' for Active; 'I' for Inactive)
REMARK    1  A    between atoms: C_1  and  C_8
REMARK    2  A    between atoms: C_2  and  C_25
REMARK    3  A    between atoms: C_4  and  O_17
REMARK    4  A    between atoms: O_17  and  C_18
REMARK    5  A    between atoms: C_18  and  C_20
REMARK    6  A    between atoms: C_25  and  N_26
REMARK    7  A    between atoms: N_26  and  C_29
REMARK                            x       y       z     vdW  Elec       q    Type
REMARK                         _______ _______ _______ _____ _____    ______ ____
ROOT
ATOM      1  C   UNL     1      34.450 -20.339 -20.827  0.00  0.00    -0.000 C 
ATOM      2  C   UNL     1      35.507 -21.668 -19.109  0.00  0.00    +0.031 C 
ATOM      3  C   UNL     1      35.601 -20.749 -20.155  0.00  0.00    +0.000 C 
ATOM      4  C   UNL     1      34.263 -22.175 -18.737  0.00  0.00    +0.137 C 
ATOM      5  C   UNL     1      33.206 -20.846 -20.455  0.00  0.00    +0.003 C 
ATOM      6  C   UNL     1      33.112 -21.765 -19.409  0.00  0.00    +0.037 C 
ENDROOT
BRANCH   1   8
ATOM      7  N   UNL     1      34.854 -15.763 -22.714  0.00  0.00    -0.312 N 
ATOM      8  C   UNL     1      34.546 -19.386 -21.912  0.00  0.00    +0.001 C 
ATOM      9  C   UNL     1      34.742 -17.135 -22.699  0.00  0.00    +0.048 C 
ATOM     10  C   UNL     1      34.733 -17.561 -24.029  0.00  0.00    +0.015 C 
ATOM     11  C   UNL     1      34.651 -18.023 -21.620  0.00  0.00    +0.015 C 
ATOM     12  C   UNL     1      34.535 -19.840 -23.229  0.00  0.00    +0.000 C 
ATOM     13  C   UNL     1      34.627 -18.941 -24.298  0.00  0.00    +0.001 C 
ATOM     14  C   UNL     1      34.844 -16.399 -24.841  0.00  0.00    +0.017 C 
ATOM     15  C   UNL     1      34.915 -15.309 -24.005  0.00  0.00    +0.062 C 
ATOM     16  H   UNL     1      34.884 -15.191 -21.914  0.00  0.00    +0.152 HD
ENDBRANCH   1   8
BRANCH   4  17
ATOM     17  O   UNL     1      34.153 -23.073 -17.718  0.00  0.00    -0.469 OA
BRANCH  17  18
ATOM     18  C   UNL     1      33.027 -23.948 -17.744  0.00  0.00    +0.251 C 
BRANCH  18  20
ATOM     19  N   UNL     1      32.763 -24.259 -15.357  0.00  0.00    -0.244 NA
ATOM     20  C   UNL     1      32.229 -23.755 -16.488  0.00  0.00    +0.103 C 
ATOM     21  C   UNL     1      31.021 -23.089 -16.556  0.00  0.00    +0.018 C 
ATOM     22  C   UNL     1      30.306 -22.927 -15.375  0.00  0.00    +0.003 C 
ATOM     23  C   UNL     1      32.040 -24.083 -14.229  0.00  0.00    +0.099 C 
ATOM     24  C   UNL     1      30.818 -23.431 -14.184  0.00  0.00    +0.021 C 
ENDBRANCH  18  20
ENDBRANCH  17  18
ENDBRANCH   4  17
BRANCH   2  25
ATOM     25  C   UNL     1      36.749 -22.096 -18.400  0.00  0.00    +0.117 C 
BRANCH  25  26
ATOM     26  N   UNL     1      36.682 -21.842 -16.961  0.00  0.00    -0.327 N 
ATOM     27  H   UNL     1      36.401 -20.950 -16.653  0.00  0.00    +0.147 HD
BRANCH  26  29
ATOM     28  N   UNL     1      36.431 -24.034 -13.985  0.00  0.00    -0.228 NA
ATOM     29  C   UNL     1      36.994 -22.791 -16.015  0.00  0.00    +0.077 C 
ATOM     30  C   UNL     1      36.159 -23.109 -14.933  0.00  0.00    +0.139 C 
ATOM     31  C   UNL     1      38.200 -23.512 -16.086  0.00  0.00    +0.019 C 
ATOM     32  C   UNL     1      38.515 -24.472 -15.130  0.00  0.00    +0.022 C 
ATOM     33  C   UNL     1      37.604 -24.692 -14.109  0.00  0.00    +0.100 C 
ATOM     34  N   UNL     1      34.935 -22.400 -14.831  0.00  0.00    -0.342 N 
ATOM     35  H   UNL     1      34.318 -22.591 -14.088  0.00  0.00    +0.144 HD
ATOM     36  H   UNL     1      34.703 -21.719 -15.503  0.00  0.00    +0.144 HD
ENDBRANCH  26  29
ENDBRANCH  25  26
ENDBRANCH   2  25
TORSDOF 7
ENDMDL
MODEL 5
REMARK VINA RESULT:     -11.2      1.909      5.697
REMARK  Name = 11633167
REMARK  7 active torsions:
REMARK  status: ('A' for Active; 'I' for Inactive)
REMARK    1  A    between atoms: C_1  and  C_8
REMARK    2  A    between atoms: C_2  and  C_25
REMARK    3  A    between atoms: C_4  and  O_17
REMARK    4  A    between atoms: O_17  and  C_18
REMARK    5  A    between atoms: C_18  and  C_20
REMARK    6  A    between atoms: C_25  and  N_26
REMARK    7  A    between atoms: N_26  and  C_29
REMARK                            x       y       z     vdW  Elec       q    Type
REMARK                         _______ _______ _______ _____ _____    ______ ____
ROOT
ATOM      1  C   UNL     1      34.408 -22.034 -18.642  0.00  0.00    -0.000 C 
ATOM      2  C   UNL     1      35.008 -23.052 -16.536  0.00  0.00    +0.031 C 
ATOM      3  C   UNL     1      35.318 -22.202 -17.599  0.00  0.00    +0.000 C 
ATOM      4  C   UNL     1      33.791 -23.731 -16.518  0.00  0.00    +0.137 C 
ATOM      5  C   UNL     1      33.190 -22.712 -18.625  0.00  0.00    +0.003 C 
ATOM      6  C   UNL     1      32.881 -23.561 -17.561  0.00  0.00    +0.037 C 
ENDROOT
BRANCH   1   8
ATOM      7  N   UNL     1      37.500 -19.315 -21.420  0.00  0.00    -0.312 N 
ATOM      8  C   UNL     1      34.728 -21.153 -19.746  0.00  0.00    +0.001 C 
ATOM      9  C   UNL     1      36.315 -19.880 -21.004  0.00  0.00    +0.048 C 
ATOM     10  C   UNL     1      35.323 -19.449 -21.888  0.00  0.00    +0.015 C 
ATOM     11  C   UNL     1      36.048 -20.731 -19.925  0.00  0.00    +0.015 C 
ATOM     12  C   UNL     1      33.718 -20.740 -20.611  0.00  0.00    +0.000 C 
ATOM     13  C   UNL     1      33.999 -19.889 -21.686  0.00  0.00    +0.001 C 
ATOM     14  C   UNL     1      35.953 -18.609 -22.847  0.00  0.00    +0.017 C 
ATOM     15  C   UNL     1      37.291 -18.544 -22.532  0.00  0.00    +0.062 C 
ATOM     16  H   UNL     1      38.371 -19.445 -20.980  0.00  0.00    +0.152 HD
ENDBRANCH   1   8
BRANCH   4  17
ATOM     17  O   UNL     1      33.473 -24.564 -15.488  0.00  0.00    -0.469 OA
BRANCH  17  18
ATOM     18  C   UNL     1      32.698 -24.014 -14.425  0.00  0.00    +0.251 C 
BRANCH  18  20
ATOM     19  N   UNL     1      30.625 -22.971 -15.112  0.00  0.00    -0.244 NA
ATOM     20  C   UNL     1      31.243 -24.120 -14.772  0.00  0.00    +0.103 C 
ATOM     21  C   UNL     1      30.630 -25.357 -14.728  0.00  0.00    +0.018 C 
ATOM     22  C   UNL     1      29.281 -25.420 -15.056  0.00  0.00    +0.003 C 
ATOM     23  C   UNL     1      29.314 -23.071 -15.425  0.00  0.00    +0.099 C 
ATOM     24  C   UNL     1      28.602 -24.260 -15.413  0.00  0.00    +0.021 C 
ENDBRANCH  18  20
ENDBRANCH  17  18
ENDBRANCH   4  17
BRANCH   2  25
ATOM     25  C   UNL     1      35.993 -23.222 -15.427  0.00  0.00    +0.117 C 
BRANCH  25  26
ATOM     26  N   UNL     1      36.322 -24.627 -15.187  0.00  0.00    -0.327 N 
ATOM     27  H   UNL     1      35.607 -25.298 -15.270  0.00  0.00    +0.147 HD
BRANCH  26  29
ATOM     28  N   UNL     1      39.074 -26.339 -13.394  0.00  0.00    -0.228 NA
ATOM     29  C   UNL     1      37.585 -25.055 -14.849  0.00  0.00    +0.077 C 
ATOM     30  C   UNL     1      37.849 -25.898 -13.758  0.00  0.00    +0.139 C 
ATOM     31  C   UNL     1      38.707 -24.660 -15.599  0.00  0.00    +0.019 C 
ATOM     32  C   UNL     1      39.984 -25.093 -15.256  0.00  0.00    +0.022 C 
ATOM     33  C   UNL     1      40.112 -25.924 -14.155  0.00  0.00    +0.100 C 
ATOM     34  N   UNL     1      36.741 -26.316 -12.980  0.00  0.00    -0.342 N 
ATOM     35  H   UNL     1      36.879 -26.907 -12.205  0.00  0.00    +0.144 HD
ATOM     36  H   UNL     1      35.833 -26.014 -13.214  0.00  0.00    +0.144 HD
ENDBRANCH  26  29
ENDBRANCH  25  26
ENDBRANCH   2  25
TORSDOF 7
ENDMDL
MODEL 6
REMARK VINA RESULT:     -11.2      1.887      2.370
REMARK  Name = 11633167
REMARK  7 active torsions:
REMARK  status: ('A' for Active; 'I' for Inactive)
REMARK    1  A    between atoms: C_1  and  C_8
REMARK    2  A    between atoms: C_2  and  C_25
REMARK    3  A    between atoms: C_4  and  O_17
REMARK    4  A    between atoms: O_17  and  C_18
REMARK    5  A    between atoms: C_18  and  C_20
REMARK    6  A    between atoms: C_25  and  N_26
REMARK    7  A    between atoms: N_26  and  C_29
REMARK                            x       y       z     vdW  Elec       q    Type
REMARK                         _______ _______ _______ _____ _____    ______ ____
ROOT
ATOM      1  C   UNL     1      35.161 -21.419 -19.289  0.00  0.00    -0.000 C 
ATOM      2  C   UNL     1      34.500 -23.088 -17.674  0.00  0.00    +0.031 C 
ATOM      3  C   UNL     1      34.204 -22.300 -18.787  0.00  0.00    +0.000 C 
ATOM      4  C   UNL     1      35.750 -22.994 -17.065  0.00  0.00    +0.137 C 
ATOM      5  C   UNL     1      36.412 -21.325 -18.682  0.00  0.00    +0.003 C 
ATOM      6  C   UNL     1      36.708 -22.113 -17.569  0.00  0.00    +0.037 C 
ENDROOT
BRANCH   1   8
ATOM      7  N   UNL     1      36.312 -18.245 -22.931  0.00  0.00    -0.312 N 
ATOM      8  C   UNL     1      34.855 -20.601 -20.444  0.00  0.00    +0.001 C 
ATOM      9  C   UNL     1      35.533 -19.072 -22.154  0.00  0.00    +0.048 C 
ATOM     10  C   UNL     1      34.239 -19.027 -22.677  0.00  0.00    +0.015 C 
ATOM     11  C   UNL     1      35.871 -19.848 -21.040  0.00  0.00    +0.015 C 
ATOM     12  C   UNL     1      33.555 -20.576 -20.944  0.00  0.00    +0.000 C 
ATOM     13  C   UNL     1      33.231 -19.794 -22.059  0.00  0.00    +0.001 C 
ATOM     14  C   UNL     1      34.269 -18.147 -23.794  0.00  0.00    +0.017 C 
ATOM     15  C   UNL     1      35.558 -17.680 -23.924  0.00  0.00    +0.062 C 
ATOM     16  H   UNL     1      37.273 -18.081 -22.792  0.00  0.00    +0.152 HD
ENDBRANCH   1   8
BRANCH   4  17
ATOM     17  O   UNL     1      36.056 -23.756 -15.978  0.00  0.00    -0.469 OA
BRANCH  17  18
ATOM     18  C   UNL     1      37.037 -23.242 -15.081  0.00  0.00    +0.251 C 
BRANCH  18  20
ATOM     19  N   UNL     1      37.319 -22.930 -12.696  0.00  0.00    -0.244 NA
ATOM     20  C   UNL     1      36.620 -23.544 -13.672  0.00  0.00    +0.103 C 
ATOM     21  C   UNL     1      35.568 -24.413 -13.455  0.00  0.00    +0.018 C 
ATOM     22  C   UNL     1      35.207 -24.672 -12.138  0.00  0.00    +0.003 C 
ATOM     23  C   UNL     1      36.940 -23.206 -11.429  0.00  0.00    +0.099 C 
ATOM     24  C   UNL     1      35.900 -24.061 -11.099  0.00  0.00    +0.021 C 
ENDBRANCH  18  20
ENDBRANCH  17  18
ENDBRANCH   4  17
BRANCH   2  25
ATOM     25  C   UNL     1      33.464 -24.026 -17.148  0.00  0.00    +0.117 C 
BRANCH  25  26
ATOM     26  N   UNL     1      32.723 -23.460 -16.021  0.00  0.00    -0.327 N 
ATOM     27  H   UNL     1      33.186 -22.830 -15.422  0.00  0.00    +0.147 HD
BRANCH  26  29
ATOM     28  N   UNL     1      29.729 -25.020 -14.496  0.00  0.00    -0.228 NA
ATOM     29  C   UNL     1      31.407 -23.765 -15.758  0.00  0.00    +0.077 C 
ATOM     30  C   UNL     1      31.009 -24.693 -14.783  0.00  0.00    +0.139 C 
ATOM     31  C   UNL     1      30.365 -23.147 -16.472  0.00  0.00    +0.019 C 
ATOM     32  C   UNL     1      29.035 -23.457 -16.206  0.00  0.00    +0.022 C 
ATOM     33  C   UNL     1      28.774 -24.392 -15.217  0.00  0.00    +0.100 C 
ATOM     34  N   UNL     1      32.034 -25.335 -14.044  0.00  0.00    -0.342 N 
ATOM     35  H   UNL     1      31.801 -25.993 -13.350  0.00  0.00    +0.144 HD
ATOM     36  H   UNL     1      32.979 -25.123 -14.225  0.00  0.00    +0.144 HD
ENDBRANCH  26  29
ENDBRANCH  25  26
ENDBRANCH   2  25
TORSDOF 7
ENDMDL
MODEL 7
REMARK VINA RESULT:     -10.9      6.648     13.036
REMARK  Name = 11633167
REMARK  7 active torsions:
REMARK  status: ('A' for Active; 'I' for Inactive)
REMARK    1  A    between atoms: C_1  and  C_8
REMARK    2  A    between atoms: C_2  and  C_25
REMARK    3  A    between atoms: C_4  and  O_17
REMARK    4  A    between atoms: O_17  and  C_18
REMARK    5  A    between atoms: C_18  and  C_20
REMARK    6  A    between atoms: C_25  and  N_26
REMARK    7  A    between atoms: N_26  and  C_29
REMARK                            x       y       z     vdW  Elec       q    Type
REMARK                         _______ _______ _______ _____ _____    ______ ____
ROOT
ATOM      1  C   UNL     1      33.956 -14.565 -24.746  0.00  0.00    -0.000 C 
ATOM      2  C   UNL     1      33.743 -12.192 -24.348  0.00  0.00    +0.031 C 
ATOM      3  C   UNL     1      33.965 -13.483 -23.867  0.00  0.00    +0.000 C 
ATOM      4  C   UNL     1      33.512 -11.985 -25.708  0.00  0.00    +0.137 C 
ATOM      5  C   UNL     1      33.725 -14.359 -26.105  0.00  0.00    +0.003 C 
ATOM      6  C   UNL     1      33.504 -13.068 -26.587  0.00  0.00    +0.037 C 
ENDROOT
BRANCH   1   8
ATOM      7  N   UNL     1      35.506 -17.853 -21.363  0.00  0.00    -0.312 N 
ATOM      8  C   UNL     1      34.186 -15.904 -24.247  0.00  0.00    +0.001 C 
ATOM      9  C   UNL     1      34.967 -17.387 -22.541  0.00  0.00    +0.048 C 
ATOM     10  C   UNL     1      34.619 -18.505 -23.303  0.00  0.00    +0.015 C 
ATOM     11  C   UNL     1      34.763 -16.076 -22.985  0.00  0.00    +0.015 C 
ATOM     12  C   UNL     1      33.828 -17.000 -25.029  0.00  0.00    +0.000 C 
ATOM     13  C   UNL     1      34.039 -18.306 -24.572  0.00  0.00    +0.001 C 
ATOM     14  C   UNL     1      34.966 -19.655 -22.541  0.00  0.00    +0.017 C 
ATOM     15  C   UNL     1      35.511 -19.223 -21.354  0.00  0.00    +0.062 C 
ATOM     16  H   UNL     1      35.840 -17.284 -20.632  0.00  0.00    +0.152 HD
ENDBRANCH   1   8
BRANCH   4  17
ATOM     17  O   UNL     1      33.294 -10.732 -26.195  0.00  0.00    -0.469 OA
BRANCH  17  18
ATOM     18  C   UNL     1      34.433  -9.888 -26.348  0.00  0.00    +0.251 C 
BRANCH  18  20
ATOM     19  N   UNL     1      33.015  -8.161 -25.416  0.00  0.00    -0.244 NA
ATOM     20  C   UNL     1      34.261  -8.672 -25.486  0.00  0.00    +0.103 C 
ATOM     21  C   UNL     1      35.359  -8.155 -24.827  0.00  0.00    +0.018 C 
ATOM     22  C   UNL     1      35.165  -7.027 -24.038  0.00  0.00    +0.003 C 
ATOM     23  C   UNL     1      32.865  -7.066 -24.639  0.00  0.00    +0.099 C 
ATOM     24  C   UNL     1      33.897  -6.466 -23.935  0.00  0.00    +0.021 C 
ENDBRANCH  18  20
ENDBRANCH  17  18
ENDBRANCH   4  17
BRANCH   2  25
ATOM     25  C   UNL     1      33.756 -11.044 -23.394  0.00  0.00    +0.117 C 
BRANCH  25  26
ATOM     26  N   UNL     1      32.423 -10.477 -23.190  0.00  0.00    -0.327 N 
ATOM     27  H   UNL     1      31.834 -10.367 -23.971  0.00  0.00    +0.147 HD
BRANCH  26  29
ATOM     28  N   UNL     1      30.770 -10.595 -19.877  0.00  0.00    -0.228 NA
ATOM     29  C   UNL     1      31.953 -10.088 -21.956  0.00  0.00    +0.077 C 
ATOM     30  C   UNL     1      31.247 -10.940 -21.094  0.00  0.00    +0.139 C 
ATOM     31  C   UNL     1      32.163  -8.780 -21.483  0.00  0.00    +0.019 C 
ATOM     32  C   UNL     1      31.687  -8.387 -20.236  0.00  0.00    +0.022 C 
ATOM     33  C   UNL     1      31.003  -9.325 -19.479  0.00  0.00    +0.100 C 
ATOM     34  N   UNL     1      31.018 -12.266 -21.540  0.00  0.00    -0.342 N 
ATOM     35  H   UNL     1      30.527 -12.899 -20.968  0.00  0.00    +0.144 HD
ATOM     36  H   UNL     1      31.350 -12.554 -22.421  0.00  0.00    +0.144 HD
ENDBRANCH  26  29
ENDBRANCH  25  26
ENDBRANCH   2  25
TORSDOF 7
ENDMDL
MODEL 8
REMARK VINA RESULT:     -10.9      4.736     11.714
REMARK  Name = 11633167
REMARK  7 active torsions:
REMARK  status: ('A' for Active; 'I' for Inactive)
REMARK    1  A    between atoms: C_1  and  C_8
REMARK    2  A    between atoms: C_2  and  C_25
REMARK    3  A    between atoms: C_4  and  O_17
REMARK    4  A    between atoms: O_17  and  C_18
REMARK    5  A    between atoms: C_18  and  C_20
REMARK    6  A    between atoms: C_25  and  N_26
REMARK    7  A    between atoms: N_26  and  C_29
REMARK                            x       y       z     vdW  Elec       q    Type
REMARK                         _______ _______ _______ _____ _____    ______ ____
ROOT
ATOM      1  C   UNL     1      34.649 -17.032 -23.140  0.00  0.00    -0.000 C 
ATOM      2  C   UNL     1      34.026 -14.716 -23.420  0.00  0.00    +0.031 C 
ATOM      3  C   UNL     1      34.541 -15.741 -22.625  0.00  0.00    +0.000 C 
ATOM      4  C   UNL     1      33.621 -14.983 -24.727  0.00  0.00    +0.137 C 
ATOM      5  C   UNL     1      34.245 -17.300 -24.447  0.00  0.00    +0.003 C 
ATOM      6  C   UNL     1      33.731 -16.275 -25.241  0.00  0.00    +0.037 C 
ENDROOT
BRANCH   1   8
ATOM      7  N   UNL     1      34.261 -21.081 -20.290  0.00  0.00    -0.312 N 
ATOM      8  C   UNL     1      35.183 -18.096 -22.316  0.00  0.00    +0.001 C 
ATOM      9  C   UNL     1      34.866 -20.043 -20.962  0.00  0.00    +0.048 C 
ATOM     10  C   UNL     1      36.240 -20.147 -20.727  0.00  0.00    +0.015 C 
ATOM     11  C   UNL     1      34.309 -19.030 -21.751  0.00  0.00    +0.015 C 
ATOM     12  C   UNL     1      36.557 -18.175 -22.099  0.00  0.00    +0.000 C 
ATOM     13  C   UNL     1      37.100 -19.193 -21.307  0.00  0.00    +0.001 C 
ATOM     14  C   UNL     1      36.436 -21.283 -19.894  0.00  0.00    +0.017 C 
ATOM     15  C   UNL     1      35.202 -21.836 -19.641  0.00  0.00    +0.062 C 
ATOM     16  H   UNL     1      33.293 -21.256 -20.278  0.00  0.00    +0.152 HD
ENDBRANCH   1   8
BRANCH   4  17
ATOM     17  O   UNL     1      33.117 -13.994 -25.516  0.00  0.00    -0.469 OA
BRANCH  17  18
ATOM     18  C   UNL     1      33.908 -13.586 -26.630  0.00  0.00    +0.251 C 
BRANCH  18  20
ATOM     19  N   UNL     1      33.722 -11.502 -25.413  0.00  0.00    -0.244 NA
ATOM     20  C   UNL     1      34.218 -12.124 -26.501  0.00  0.00    +0.103 C 
ATOM     21  C   UNL     1      34.977 -11.510 -27.478  0.00  0.00    +0.018 C 
ATOM     22  C   UNL     1      35.246 -10.154 -27.329  0.00  0.00    +0.003 C 
ATOM     23  C   UNL     1      34.004 -10.185 -25.301  0.00  0.00    +0.099 C 
ATOM     24  C   UNL     1      34.755  -9.471 -26.222  0.00  0.00    +0.021 C 
ENDBRANCH  18  20
ENDBRANCH  17  18
ENDBRANCH   4  17
BRANCH   2  25
ATOM     25  C   UNL     1      33.916 -13.339 -22.854  0.00  0.00    +0.117 C 
BRANCH  25  26
ATOM     26  N   UNL     1      32.549 -12.819 -22.919  0.00  0.00    -0.327 N 
ATOM     27  H   UNL     1      31.948 -13.165 -23.617  0.00  0.00    +0.147 HD
BRANCH  26  29
ATOM     28  N   UNL     1      31.168 -11.252 -19.861  0.00  0.00    -0.228 NA
ATOM     29  C   UNL     1      32.065 -11.869 -22.051  0.00  0.00    +0.077 C 
ATOM     30  C   UNL     1      31.649 -12.157 -20.742  0.00  0.00    +0.139 C 
ATOM     31  C   UNL     1      31.960 -10.521 -22.440  0.00  0.00    +0.019 C 
ATOM     32  C   UNL     1      31.470  -9.560 -21.561  0.00  0.00    +0.022 C 
ATOM     33  C   UNL     1      31.091  -9.974 -20.294  0.00  0.00    +0.100 C 
ATOM     34  N   UNL     1      31.741 -13.507 -20.317  0.00  0.00    -0.342 N 
ATOM     35  H   UNL     1      31.460 -13.755 -19.407  0.00  0.00    +0.144 HD
ATOM     36  H   UNL     1      32.086 -14.194 -20.931  0.00  0.00    +0.144 HD
ENDBRANCH  26  29
ENDBRANCH  25  26
ENDBRANCH   2  25
TORSDOF 7
ENDMDL
MODEL 9
REMARK VINA RESULT:     -10.7      2.327      7.222
REMARK  Name = 11633167
REMARK  7 active torsions:
REMARK  status: ('A' for Active; 'I' for Inactive)
REMARK    1  A    between atoms: C_1  and  C_8
REMARK    2  A    between atoms: C_2  and  C_25
REMARK    3  A    between atoms: C_4  and  O_17
REMARK    4  A    between atoms: O_17  and  C_18
REMARK    5  A    between atoms: C_18  and  C_20
REMARK    6  A    between atoms: C_25  and  N_26
REMARK    7  A    between atoms: N_26  and  C_29
REMARK                            x       y       z     vdW  Elec       q    Type
REMARK                         _______ _______ _______ _____ _____    ______ ____
ROOT
ATOM      1  C   UNL     1      33.401 -23.369 -15.613  0.00  0.00    -0.000 C 
ATOM      2  C   UNL     1      35.425 -22.689 -16.741  0.00  0.00    +0.031 C 
ATOM      3  C   UNL     1      34.052 -22.940 -16.768  0.00  0.00    +0.000 C 
ATOM      4  C   UNL     1      36.143 -22.866 -15.559  0.00  0.00    +0.137 C 
ATOM      5  C   UNL     1      34.118 -23.547 -14.431  0.00  0.00    +0.003 C 
ATOM      6  C   UNL     1      35.490 -23.294 -14.403  0.00  0.00    +0.037 C 
ENDROOT
BRANCH   1   8
ATOM      7  N   UNL     1      28.793 -22.762 -17.364  0.00  0.00    -0.312 N 
ATOM      8  C   UNL     1      31.977 -23.630 -15.640  0.00  0.00    +0.001 C 
ATOM      9  C   UNL     1      29.806 -23.252 -16.571  0.00  0.00    +0.048 C 
ATOM     10  C   UNL     1      29.225 -24.154 -15.674  0.00  0.00    +0.015 C 
ATOM     11  C   UNL     1      31.177 -22.971 -16.578  0.00  0.00    +0.015 C 
ATOM     12  C   UNL     1      31.426 -24.534 -14.735  0.00  0.00    +0.000 C 
ATOM     13  C   UNL     1      30.053 -24.806 -14.738  0.00  0.00    +0.001 C 
ATOM     14  C   UNL     1      27.832 -24.187 -15.959  0.00  0.00    +0.017 C 
ATOM     15  C   UNL     1      27.596 -23.320 -17.001  0.00  0.00    +0.062 C 
ATOM     16  H   UNL     1      28.911 -22.105 -18.087  0.00  0.00    +0.152 HD
ENDBRANCH   1   8
BRANCH   4  17
ATOM     17  O   UNL     1      37.483 -22.626 -15.515  0.00  0.00    -0.469 OA
BRANCH  17  18
ATOM     18  C   UNL     1      38.349 -23.753 -15.629  0.00  0.00    +0.251 C 
BRANCH  18  20
ATOM     19  N   UNL     1      38.279 -24.416 -13.302  0.00  0.00    -0.244 NA
ATOM     20  C   UNL     1      37.988 -24.757 -14.574  0.00  0.00    +0.103 C 
ATOM     21  C   UNL     1      37.392 -25.944 -14.952  0.00  0.00    +0.018 C 
ATOM     22  C   UNL     1      37.072 -26.852 -13.949  0.00  0.00    +0.003 C 
ATOM     23  C   UNL     1      37.953 -25.324 -12.355  0.00  0.00    +0.099 C 
ATOM     24  C   UNL     1      37.353 -26.544 -12.623  0.00  0.00    +0.021 C 
ENDBRANCH  18  20
ENDBRANCH  17  18
ENDBRANCH   4  17
BRANCH   2  25
ATOM     25  C   UNL     1      36.108 -22.230 -17.987  0.00  0.00    +0.117 C 
BRANCH  25  26
ATOM     26  N   UNL     1      35.248 -22.344 -19.166  0.00  0.00    -0.327 N 
ATOM     27  H   UNL     1      34.834 -23.214 -19.363  0.00  0.00    +0.147 HD
BRANCH  26  29
ATOM     28  N   UNL     1      33.411 -19.903 -21.260  0.00  0.00    -0.228 NA
ATOM     29  C   UNL     1      34.992 -21.290 -20.012  0.00  0.00    +0.077 C 
ATOM     30  C   UNL     1      33.702 -20.929 -20.429  0.00  0.00    +0.139 C 
ATOM     31  C   UNL     1      36.039 -20.499 -20.518  0.00  0.00    +0.019 C 
ATOM     32  C   UNL     1      35.780 -19.433 -21.374  0.00  0.00    +0.022 C 
ATOM     33  C   UNL     1      34.459 -19.180 -21.711  0.00  0.00    +0.100 C 
ATOM     34  N   UNL     1      32.623 -21.707 -19.939  0.00  0.00    -0.342 N 
ATOM     35  H   UNL     1      31.700 -21.490 -20.205  0.00  0.00    +0.144 HD
ATOM     36  H   UNL     1      32.796 -22.463 -19.333  0.00  0.00    +0.144 HD
ENDBRANCH  26  29
ENDBRANCH  25  26
ENDBRANCH   2  25
TORSDOF 7
ENDMDL
