MODEL 1
REMARK VINA RESULT:     -11.1      0.000      0.000
REMARK  Name = 115368
REMARK  5 active torsions:
REMARK  status: ('A' for Active; 'I' for Inactive)
REMARK    1  A    between atoms: N_2  and  C_17
REMARK    2  A    between atoms: C_17  and  C_18
REMARK    3  A    between atoms: C_18  and  C_19
REMARK    4  A    between atoms: C_19  and  C_20
REMARK    5  A    between atoms: C_20  and  N_23
REMARK                            x       y       z     vdW  Elec       q    Type
REMARK                         _______ _______ _______ _____ _____    ______ ____
ROOT
ATOM      1  S   UNL     1      36.758 -21.080 -19.594  0.00  0.00    +0.014 S 
ATOM      2  N   UNL     1      34.558 -17.208 -24.492  0.00  0.00    +0.389 N 
ATOM      3  N   UNL     1      35.354 -19.024 -22.433  0.00  0.00    -0.297 N 
ATOM      4  N   UNL     1      36.852 -20.039 -20.879  0.00  0.00    -0.194 NA
ATOM      5  C   UNL     1      33.823 -18.459 -24.273  0.00  0.00    -0.055 C 
ATOM      6  C   UNL     1      35.098 -16.709 -23.219  0.00  0.00    -0.055 C 
ATOM      7  C   UNL     1      34.724 -19.533 -23.656  0.00  0.00    +0.069 C 
ATOM      8  C   UNL     1      36.042 -17.737 -22.594  0.00  0.00    +0.069 C 
ATOM      9  C   UNL     1      35.623 -19.842 -21.359  0.00  0.00    +0.140 A 
ATOM     10  C   UNL     1      34.546 -20.533 -20.701  0.00  0.00    +0.040 A 
ATOM     11  C   UNL     1      35.052 -21.297 -19.647  0.00  0.00    +0.050 A 
ATOM     12  C   UNL     1      33.154 -20.553 -20.939  0.00  0.00    +0.003 C 
ATOM     13  C   UNL     1      34.224 -22.079 -18.826  0.00  0.00    +0.008 C 
ATOM     14  C   UNL     1      32.322 -21.328 -20.128  0.00  0.00    +0.000 C 
ATOM     15  C   UNL     1      32.852 -22.081 -19.085  0.00  0.00    +0.001 C 
ATOM     16  H   UNL     1      35.336 -17.392 -25.125  0.00  0.00    -0.080 HD
ENDROOT
BRANCH   2  17
ATOM     17  C   UNL     1      33.693 -16.204 -25.112  0.00  0.00    -0.077 C 
BRANCH  17  18
ATOM     18  C   UNL     1      34.159 -14.798 -24.740  0.00  0.00    -0.021 C 
BRANCH  18  19
ATOM     19  C   UNL     1      33.029 -13.996 -24.086  0.00  0.00    +0.020 C 
BRANCH  19  20
ATOM     20  C   UNL     1      33.454 -13.351 -22.770  0.00  0.00    +0.101 C 
BRANCH  20  23
ATOM     21  O   UNL     1      33.060 -10.550 -23.638  0.00  0.00    -0.274 OA
ATOM     22  O   UNL     1      31.442 -13.701 -20.665  0.00  0.00    -0.274 OA
ATOM     23  N   UNL     1      32.488 -12.382 -22.293  0.00  0.00    -0.230 N 
ATOM     24  C   UNL     1      31.107 -10.521 -22.186  0.00  0.00    +0.086 C 
ATOM     25  C   UNL     1      30.933 -11.341 -20.902  0.00  0.00    +0.086 C 
ATOM     26  C   UNL     1      31.122  -9.007 -22.020  0.00  0.00    +0.010 C 
ATOM     27  C   UNL     1      31.627 -10.753 -19.669  0.00  0.00    +0.010 C 
ATOM     28  C   UNL     1      31.910  -8.539 -20.804  0.00  0.00    +0.001 C 
ATOM     29  C   UNL     1      31.434  -9.249 -19.543  0.00  0.00    +0.001 C 
ATOM     30  C   UNL     1      32.360 -11.104 -22.804  0.00  0.00    +0.231 C 
ATOM     31  C   UNL     1      31.611 -12.645 -21.258  0.00  0.00    +0.231 C 
ENDBRANCH  20  23
ENDBRANCH  19  20
ENDBRANCH  18  19
ENDBRANCH  17  18
ENDBRANCH   2  17
TORSDOF 5
ENDMDL
MODEL 2
REMARK VINA RESULT:     -10.7      4.081     10.227
REMARK  Name = 115368
REMARK  5 active torsions:
REMARK  status: ('A' for Active; 'I' for Inactive)
REMARK    1  A    between atoms: N_2  and  C_17
REMARK    2  A    between atoms: C_17  and  C_18
REMARK    3  A    between atoms: C_18  and  C_19
REMARK    4  A    between atoms: C_19  and  C_20
REMARK    5  A    between atoms: C_20  and  N_23
REMARK                            x       y       z     vdW  Elec       q    Type
REMARK                         _______ _______ _______ _____ _____    ______ ____
ROOT
ATOM      1  S   UNL     1      33.710 -14.297 -25.869  0.00  0.00    +0.014 S 
ATOM      2  N   UNL     1      35.122 -19.466 -21.983  0.00  0.00    +0.389 N 
ATOM      3  N   UNL     1      34.589 -17.105 -23.502  0.00  0.00    -0.297 N 
ATOM      4  N   UNL     1      34.254 -15.812 -25.479  0.00  0.00    -0.194 NA
ATOM      5  C   UNL     1      35.378 -18.137 -21.415  0.00  0.00    -0.055 C 
ATOM      6  C   UNL     1      33.980 -19.411 -22.906  0.00  0.00    -0.055 C 
ATOM      7  C   UNL     1      35.671 -17.110 -22.512  0.00  0.00    +0.069 C 
ATOM      8  C   UNL     1      34.255 -18.427 -24.045  0.00  0.00    +0.069 C 
ATOM      9  C   UNL     1      34.204 -15.954 -24.153  0.00  0.00    +0.140 A 
ATOM     10  C   UNL     1      33.723 -14.831 -23.394  0.00  0.00    +0.040 A 
ATOM     11  C   UNL     1      33.393 -13.785 -24.257  0.00  0.00    +0.050 A 
ATOM     12  C   UNL     1      33.543 -14.640 -22.006  0.00  0.00    +0.003 C 
ATOM     13  C   UNL     1      32.894 -12.559 -23.791  0.00  0.00    +0.008 C 
ATOM     14  C   UNL     1      33.046 -13.423 -21.531  0.00  0.00    +0.000 C 
ATOM     15  C   UNL     1      32.727 -12.397 -22.413  0.00  0.00    +0.001 C 
ATOM     16  H   UNL     1      35.947 -19.764 -22.504  0.00  0.00    -0.080 HD
ENDROOT
BRANCH   2  17
ATOM     17  C   UNL     1      34.877 -20.442 -20.920  0.00  0.00    -0.077 C 
BRANCH  17  18
ATOM     18  C   UNL     1      33.382 -20.534 -20.618  0.00  0.00    -0.021 C 
BRANCH  18  19
ATOM     19  C   UNL     1      33.099 -21.595 -19.550  0.00  0.00    +0.020 C 
BRANCH  19  20
ATOM     20  C   UNL     1      34.275 -22.543 -19.339  0.00  0.00    +0.101 C 
BRANCH  20  23
ATOM     21  O   UNL     1      36.823 -21.925 -17.967  0.00  0.00    -0.274 OA
ATOM     22  O   UNL     1      32.586 -23.606 -17.190  0.00  0.00    -0.274 OA
ATOM     23  N   UNL     1      34.612 -22.702 -17.938  0.00  0.00    -0.230 N 
ATOM     24  C   UNL     1      35.674 -22.462 -15.890  0.00  0.00    +0.086 C 
ATOM     25  C   UNL     1      34.522 -23.462 -15.736  0.00  0.00    +0.086 C 
ATOM     26  C   UNL     1      36.959 -22.797 -15.143  0.00  0.00    +0.010 C 
ATOM     27  C   UNL     1      34.955 -24.930 -15.658  0.00  0.00    +0.010 C 
ATOM     28  C   UNL     1      37.329 -24.273 -15.204  0.00  0.00    +0.001 C 
ATOM     29  C   UNL     1      36.162 -25.143 -14.756  0.00  0.00    +0.001 C 
ATOM     30  C   UNL     1      35.828 -22.336 -17.391  0.00  0.00    +0.231 C 
ATOM     31  C   UNL     1      33.745 -23.259 -17.018  0.00  0.00    +0.231 C 
ENDBRANCH  20  23
ENDBRANCH  19  20
ENDBRANCH  18  19
ENDBRANCH  17  18
ENDBRANCH   2  17
TORSDOF 5
ENDMDL
MODEL 3
REMARK VINA RESULT:     -10.7      3.613      9.616
REMARK  Name = 115368
REMARK  5 active torsions:
REMARK  status: ('A' for Active; 'I' for Inactive)
REMARK    1  A    between atoms: N_2  and  C_17
REMARK    2  A    between atoms: C_17  and  C_18
REMARK    3  A    between atoms: C_18  and  C_19
REMARK    4  A    between atoms: C_19  and  C_20
REMARK    5  A    between atoms: C_20  and  N_23
REMARK                            x       y       z     vdW  Elec       q    Type
REMARK                         _______ _______ _______ _____ _____    ______ ____
ROOT
ATOM      1  S   UNL     1      32.656  -9.520 -23.839  0.00  0.00    +0.014 S 
ATOM      2  N   UNL     1      34.434 -15.861 -24.510  0.00  0.00    +0.389 N 
ATOM      3  N   UNL     1      33.690 -13.148 -24.005  0.00  0.00    -0.297 N 
ATOM      4  N   UNL     1      33.420 -10.831 -24.504  0.00  0.00    -0.194 NA
ATOM      5  C   UNL     1      34.331 -15.357 -23.135  0.00  0.00    -0.055 C 
ATOM      6  C   UNL     1      33.462 -15.176 -25.374  0.00  0.00    -0.055 C 
ATOM      7  C   UNL     1      34.583 -13.848 -23.076  0.00  0.00    +0.069 C 
ATOM      8  C   UNL     1      33.712 -13.668 -25.377  0.00  0.00    +0.069 C 
ATOM      9  C   UNL     1      33.193 -11.894 -23.729  0.00  0.00    +0.140 A 
ATOM     10  C   UNL     1      32.386 -11.687 -22.557  0.00  0.00    +0.040 A 
ATOM     11  C   UNL     1      31.995 -10.348 -22.483  0.00  0.00    +0.050 A 
ATOM     12  C   UNL     1      31.957 -12.570 -21.541  0.00  0.00    +0.003 C 
ATOM     13  C   UNL     1      31.198  -9.858 -21.438  0.00  0.00    +0.008 C 
ATOM     14  C   UNL     1      31.162 -12.091 -20.496  0.00  0.00    +0.000 C 
ATOM     15  C   UNL     1      30.788 -10.753 -20.446  0.00  0.00    +0.001 C 
ATOM     16  H   UNL     1      35.373 -15.668 -24.859  0.00  0.00    -0.080 HD
ENDROOT
BRANCH   2  17
ATOM     17  C   UNL     1      34.223 -17.308 -24.545  0.00  0.00    -0.077 C 
BRANCH  17  18
ATOM     18  C   UNL     1      35.036 -17.990 -23.446  0.00  0.00    -0.021 C 
BRANCH  18  19
ATOM     19  C   UNL     1      34.238 -19.122 -22.791  0.00  0.00    +0.020 C 
BRANCH  19  20
ATOM     20  C   UNL     1      34.259 -19.048 -21.267  0.00  0.00    +0.101 C 
BRANCH  20  23
ATOM     21  O   UNL     1      32.387 -21.004 -20.073  0.00  0.00    -0.274 OA
ATOM     22  O   UNL     1      36.885 -20.295 -20.881  0.00  0.00    -0.274 OA
ATOM     23  N   UNL     1      34.554 -20.328 -20.656  0.00  0.00    -0.230 N 
ATOM     24  C   UNL     1      34.306 -22.482 -19.829  0.00  0.00    +0.086 C 
ATOM     25  C   UNL     1      35.758 -22.036 -19.622  0.00  0.00    +0.086 C 
ATOM     26  C   UNL     1      33.679 -23.281 -18.693  0.00  0.00    +0.010 C 
ATOM     27  C   UNL     1      36.110 -21.649 -18.182  0.00  0.00    +0.010 C 
ATOM     28  C   UNL     1      34.037 -22.751 -17.311  0.00  0.00    +0.001 C 
ATOM     29  C   UNL     1      35.546 -22.619 -17.155  0.00  0.00    +0.001 C 
ATOM     30  C   UNL     1      33.591 -21.190 -20.166  0.00  0.00    +0.231 C 
ATOM     31  C   UNL     1      35.843 -20.798 -20.487  0.00  0.00    +0.231 C 
ENDBRANCH  20  23
ENDBRANCH  19  20
ENDBRANCH  18  19
ENDBRANCH  17  18
ENDBRANCH   2  17
TORSDOF 5
ENDMDL
MODEL 4
REMARK VINA RESULT:     -10.6      1.840      2.278
REMARK  Name = 115368
REMARK  5 active torsions:
REMARK  status: ('A' for Active; 'I' for Inactive)
REMARK    1  A    between atoms: N_2  and  C_17
REMARK    2  A    between atoms: C_17  and  C_18
REMARK    3  A    between atoms: C_18  and  C_19
REMARK    4  A    between atoms: C_19  and  C_20
REMARK    5  A    between atoms: C_20  and  N_23
REMARK                            x       y       z     vdW  Elec       q    Type
REMARK                         _______ _______ _______ _____ _____    ______ ____
ROOT
ATOM      1  S   UNL     1      36.803 -20.649 -20.014  0.00  0.00    +0.014 S 
ATOM      2  N   UNL     1      34.395 -16.539 -24.610  0.00  0.00    +0.389 N 
ATOM      3  N   UNL     1      35.284 -18.458 -22.689  0.00  0.00    -0.297 N 
ATOM      4  N   UNL     1      36.842 -19.525 -21.230  0.00  0.00    -0.194 NA
ATOM      5  C   UNL     1      33.702 -17.824 -24.462  0.00  0.00    -0.055 C 
ATOM      6  C   UNL     1      34.944 -16.107 -23.318  0.00  0.00    -0.055 C 
ATOM      7  C   UNL     1      34.646 -18.907 -23.931  0.00  0.00    +0.069 C 
ATOM      8  C   UNL     1      35.930 -17.143 -22.777  0.00  0.00    +0.069 C 
ATOM      9  C   UNL     1      35.598 -19.336 -21.675  0.00  0.00    +0.140 A 
ATOM     10  C   UNL     1      34.555 -20.101 -21.044  0.00  0.00    +0.040 A 
ATOM     11  C   UNL     1      35.103 -20.916 -20.052  0.00  0.00    +0.050 A 
ATOM     12  C   UNL     1      33.160 -20.149 -21.260  0.00  0.00    +0.003 C 
ATOM     13  C   UNL     1      34.316 -21.774 -19.270  0.00  0.00    +0.008 C 
ATOM     14  C   UNL     1      32.367 -21.001 -20.486  0.00  0.00    +0.000 C 
ATOM     15  C   UNL     1      32.939 -21.803 -19.505  0.00  0.00    +0.001 C 
ATOM     16  H   UNL     1      35.166 -16.658 -25.268  0.00  0.00    -0.080 HD
ENDROOT
BRANCH   2  17
ATOM     17  C   UNL     1      33.488 -15.525 -25.149  0.00  0.00    -0.077 C 
BRANCH  17  18
ATOM     18  C   UNL     1      33.423 -14.320 -24.212  0.00  0.00    -0.021 C 
BRANCH  18  19
ATOM     19  C   UNL     1      33.436 -13.006 -25.000  0.00  0.00    +0.020 C 
BRANCH  19  20
ATOM     20  C   UNL     1      34.214 -11.903 -24.290  0.00  0.00    +0.101 C 
BRANCH  20  23
ATOM     21  O   UNL     1      34.547  -9.498 -25.981  0.00  0.00    -0.274 OA
ATOM     22  O   UNL     1      32.065 -11.146 -22.444  0.00  0.00    -0.274 OA
ATOM     23  N   UNL     1      33.482 -10.653 -24.242  0.00  0.00    -0.230 N 
ATOM     24  C   UNL     1      32.580  -8.606 -24.857  0.00  0.00    +0.086 C 
ATOM     25  C   UNL     1      32.147  -8.927 -23.422  0.00  0.00    +0.086 C 
ATOM     26  C   UNL     1      32.947  -7.155 -25.140  0.00  0.00    +0.010 C 
ATOM     27  C   UNL     1      32.892  -8.142 -22.338  0.00  0.00    +0.010 C 
ATOM     28  C   UNL     1      33.756  -6.506 -24.025  0.00  0.00    +0.001 C 
ATOM     29  C   UNL     1      33.056  -6.669 -22.682  0.00  0.00    +0.001 C 
ATOM     30  C   UNL     1      33.691  -9.603 -25.116  0.00  0.00    +0.231 C 
ATOM     31  C   UNL     1      32.513 -10.389 -23.294  0.00  0.00    +0.231 C 
ENDBRANCH  20  23
ENDBRANCH  19  20
ENDBRANCH  18  19
ENDBRANCH  17  18
ENDBRANCH   2  17
TORSDOF 5
ENDMDL
MODEL 5
REMARK VINA RESULT:     -10.5      4.338     10.358
REMARK  Name = 115368
REMARK  5 active torsions:
REMARK  status: ('A' for Active; 'I' for Inactive)
REMARK    1  A    between atoms: N_2  and  C_17
REMARK    2  A    between atoms: C_17  and  C_18
REMARK    3  A    between atoms: C_18  and  C_19
REMARK    4  A    between atoms: C_19  and  C_20
REMARK    5  A    between atoms: C_20  and  N_23
REMARK                            x       y       z     vdW  Elec       q    Type
REMARK                         _______ _______ _______ _____ _____    ______ ____
ROOT
ATOM      1  S   UNL     1      33.696 -15.689 -25.425  0.00  0.00    +0.014 S 
ATOM      2  N   UNL     1      35.993 -20.320 -21.290  0.00  0.00    +0.389 N 
ATOM      3  N   UNL     1      35.120 -18.174 -22.965  0.00  0.00    -0.297 N 
ATOM      4  N   UNL     1      34.293 -17.162 -24.961  0.00  0.00    -0.194 NA
ATOM      5  C   UNL     1      36.421 -18.941 -21.023  0.00  0.00    -0.055 C 
ATOM      6  C   UNL     1      34.646 -20.328 -21.878  0.00  0.00    -0.055 C 
ATOM      7  C   UNL     1      36.428 -18.104 -22.306  0.00  0.00    +0.069 C 
ATOM      8  C   UNL     1      34.625 -19.538 -23.188  0.00  0.00    +0.069 C 
ATOM      9  C   UNL     1      34.599 -17.108 -23.663  0.00  0.00    +0.140 A 
ATOM     10  C   UNL     1      34.363 -15.860 -22.988  0.00  0.00    +0.040 A 
ATOM     11  C   UNL     1      33.834 -14.931 -23.887  0.00  0.00    +0.050 A 
ATOM     12  C   UNL     1      34.567 -15.460 -21.649  0.00  0.00    +0.003 C 
ATOM     13  C   UNL     1      33.505 -13.622 -23.502  0.00  0.00    +0.008 C 
ATOM     14  C   UNL     1      34.242 -14.159 -21.256  0.00  0.00    +0.000 C 
ATOM     15  C   UNL     1      33.718 -13.253 -22.172  0.00  0.00    +0.001 C 
ATOM     16  H   UNL     1      36.641 -20.740 -21.957  0.00  0.00    -0.080 HD
ENDROOT
BRANCH   2  17
ATOM     17  C   UNL     1      36.023 -21.114 -20.062  0.00  0.00    -0.077 C 
BRANCH  17  18
ATOM     18  C   UNL     1      34.615 -21.583 -19.699  0.00  0.00    -0.021 C 
BRANCH  18  19
ATOM     19  C   UNL     1      34.617 -22.372 -18.385  0.00  0.00    +0.020 C 
BRANCH  19  20
ATOM     20  C   UNL     1      33.487 -23.394 -18.313  0.00  0.00    +0.101 C 
BRANCH  20  23
ATOM     21  O   UNL     1      34.296 -24.374 -15.641  0.00  0.00    -0.274 OA
ATOM     22  O   UNL     1      30.817 -22.275 -17.848  0.00  0.00    -0.274 OA
ATOM     23  N   UNL     1      32.758 -23.324 -17.063  0.00  0.00    -0.230 N 
ATOM     24  C   UNL     1      32.277 -23.312 -14.794  0.00  0.00    +0.086 C 
ATOM     25  C   UNL     1      30.974 -23.112 -15.577  0.00  0.00    +0.086 C 
ATOM     26  C   UNL     1      32.193 -24.211 -13.566  0.00  0.00    +0.010 C 
ATOM     27  C   UNL     1      30.072 -24.349 -15.643  0.00  0.00    +0.010 C 
ATOM     28  C   UNL     1      31.333 -25.449 -13.781  0.00  0.00    +0.001 C 
ATOM     29  C   UNL     1      29.956 -25.069 -14.308  0.00  0.00    +0.001 C 
ATOM     30  C   UNL     1      33.253 -23.776 -15.854  0.00  0.00    +0.231 C 
ATOM     31  C   UNL     1      31.478 -22.810 -16.970  0.00  0.00    +0.231 C 
ENDBRANCH  20  23
ENDBRANCH  19  20
ENDBRANCH  18  19
ENDBRANCH  17  18
ENDBRANCH   2  17
TORSDOF 5
ENDMDL
MODEL 6
REMARK VINA RESULT:     -10.5      3.866     10.073
REMARK  Name = 115368
REMARK  5 active torsions:
REMARK  status: ('A' for Active; 'I' for Inactive)
REMARK    1  A    between atoms: N_2  and  C_17
REMARK    2  A    between atoms: C_17  and  C_18
REMARK    3  A    between atoms: C_18  and  C_19
REMARK    4  A    between atoms: C_19  and  C_20
REMARK    5  A    between atoms: C_20  and  N_23
REMARK                            x       y       z     vdW  Elec       q    Type
REMARK                         _______ _______ _______ _____ _____    ______ ____
ROOT
ATOM      1  S   UNL     1      31.795  -9.645 -22.865  0.00  0.00    +0.014 S 
ATOM      2  N   UNL     1      34.244 -15.794 -22.941  0.00  0.00    +0.389 N 
ATOM      3  N   UNL     1      33.221 -13.131 -23.124  0.00  0.00    -0.297 N 
ATOM      4  N   UNL     1      31.907 -11.250 -22.473  0.00  0.00    -0.194 NA
ATOM      5  C   UNL     1      34.248 -15.078 -24.223  0.00  0.00    -0.055 C 
ATOM      6  C   UNL     1      34.416 -14.847 -21.831  0.00  0.00    -0.055 C 
ATOM      7  C   UNL     1      33.130 -14.032 -24.278  0.00  0.00    +0.069 C 
ATOM      8  C   UNL     1      33.289 -13.812 -21.826  0.00  0.00    +0.069 C 
ATOM      9  C   UNL     1      32.873 -11.802 -23.210  0.00  0.00    +0.140 A 
ATOM     10  C   UNL     1      33.565 -10.941 -24.131  0.00  0.00    +0.040 A 
ATOM     11  C   UNL     1      33.048  -9.646 -24.045  0.00  0.00    +0.050 A 
ATOM     12  C   UNL     1      34.614 -11.187 -25.043  0.00  0.00    +0.003 C 
ATOM     13  C   UNL     1      33.535  -8.593 -24.833  0.00  0.00    +0.008 C 
ATOM     14  C   UNL     1      35.108 -10.143 -25.832  0.00  0.00    +0.000 C 
ATOM     15  C   UNL     1      34.573  -8.864 -25.727  0.00  0.00    +0.001 C 
ATOM     16  H   UNL     1      33.345 -16.263 -22.832  0.00  0.00    -0.080 HD
ENDROOT
BRANCH   2  17
ATOM     17  C   UNL     1      35.296 -16.810 -22.917  0.00  0.00    -0.077 C 
BRANCH  17  18
ATOM     18  C   UNL     1      34.869 -18.035 -23.725  0.00  0.00    -0.021 C 
BRANCH  18  19
ATOM     19  C   UNL     1      34.126 -19.046 -22.846  0.00  0.00    +0.020 C 
BRANCH  19  20
ATOM     20  C   UNL     1      34.486 -18.915 -21.370  0.00  0.00    +0.101 C 
BRANCH  20  23
ATOM     21  O   UNL     1      32.609 -20.906 -20.242  0.00  0.00    -0.274 OA
ATOM     22  O   UNL     1      37.118 -20.128 -20.916  0.00  0.00    -0.274 OA
ATOM     23  N   UNL     1      34.782 -20.195 -20.758  0.00  0.00    -0.230 N 
ATOM     24  C   UNL     1      34.541 -22.357 -19.953  0.00  0.00    +0.086 C 
ATOM     25  C   UNL     1      35.981 -21.893 -19.702  0.00  0.00    +0.086 C 
ATOM     26  C   UNL     1      33.894 -23.173 -18.841  0.00  0.00    +0.010 C 
ATOM     27  C   UNL     1      36.285 -21.510 -18.250  0.00  0.00    +0.010 C 
ATOM     28  C   UNL     1      34.204 -22.648 -17.446  0.00  0.00    +0.001 C 
ATOM     29  C   UNL     1      35.706 -22.495 -17.245  0.00  0.00    +0.001 C 
ATOM     30  C   UNL     1      33.817 -21.074 -20.302  0.00  0.00    +0.231 C 
ATOM     31  C   UNL     1      36.072 -20.648 -20.555  0.00  0.00    +0.231 C 
ENDBRANCH  20  23
ENDBRANCH  19  20
ENDBRANCH  18  19
ENDBRANCH  17  18
ENDBRANCH   2  17
TORSDOF 5
ENDMDL
MODEL 7
REMARK VINA RESULT:     -10.3      4.664      8.070
REMARK  Name = 115368
REMARK  5 active torsions:
REMARK  status: ('A' for Active; 'I' for Inactive)
REMARK    1  A    between atoms: N_2  and  C_17
REMARK    2  A    between atoms: C_17  and  C_18
REMARK    3  A    between atoms: C_18  and  C_19
REMARK    4  A    between atoms: C_19  and  C_20
REMARK    5  A    between atoms: C_20  and  N_23
REMARK                            x       y       z     vdW  Elec       q    Type
REMARK                         _______ _______ _______ _____ _____    ______ ____
ROOT
ATOM      1  S   UNL     1      35.789 -24.661 -12.177  0.00  0.00    +0.014 S 
ATOM      2  N   UNL     1      34.700 -22.106 -18.186  0.00  0.00    +0.389 N 
ATOM      3  N   UNL     1      35.381 -23.158 -15.617  0.00  0.00    -0.297 N 
ATOM      4  N   UNL     1      34.998 -23.803 -13.352  0.00  0.00    -0.194 NA
ATOM      5  C   UNL     1      36.095 -22.120 -17.729  0.00  0.00    -0.055 C 
ATOM      6  C   UNL     1      33.973 -23.256 -17.629  0.00  0.00    -0.055 C 
ATOM      7  C   UNL     1      36.180 -22.076 -16.200  0.00  0.00    +0.069 C 
ATOM      8  C   UNL     1      33.996 -23.220 -16.101  0.00  0.00    +0.069 C 
ATOM      9  C   UNL     1      35.754 -23.790 -14.452  0.00  0.00    +0.140 A 
ATOM     10  C   UNL     1      37.015 -24.479 -14.385  0.00  0.00    +0.040 A 
ATOM     11  C   UNL     1      37.179 -25.041 -13.117  0.00  0.00    +0.050 A 
ATOM     12  C   UNL     1      38.040 -24.661 -15.340  0.00  0.00    +0.003 C 
ATOM     13  C   UNL     1      38.322 -25.774 -12.767  0.00  0.00    +0.008 C 
ATOM     14  C   UNL     1      39.183 -25.391 -15.000  0.00  0.00    +0.000 C 
ATOM     15  C   UNL     1      39.321 -25.939 -13.730  0.00  0.00    +0.001 C 
ATOM     16  H   UNL     1      34.256 -21.249 -17.854  0.00  0.00    -0.080 HD
ENDROOT
BRANCH   2  17
ATOM     17  C   UNL     1      34.637 -22.116 -19.647  0.00  0.00    -0.077 C 
BRANCH  17  18
ATOM     18  C   UNL     1      35.976 -21.680 -20.239  0.00  0.00    -0.021 C 
BRANCH  18  19
ATOM     19  C   UNL     1      35.953 -20.198 -20.625  0.00  0.00    +0.020 C 
BRANCH  19  20
ATOM     20  C   UNL     1      34.668 -19.798 -21.343  0.00  0.00    +0.101 C 
BRANCH  20  23
ATOM     21  O   UNL     1      34.909 -16.875 -20.956  0.00  0.00    -0.274 OA
ATOM     22  O   UNL     1      34.936 -20.125 -24.245  0.00  0.00    -0.274 OA
ATOM     23  N   UNL     1      34.888 -18.767 -22.338  0.00  0.00    -0.230 N 
ATOM     24  C   UNL     1      35.462 -16.747 -23.323  0.00  0.00    +0.086 C 
ATOM     25  C   UNL     1      34.964 -17.705 -24.411  0.00  0.00    +0.086 C 
ATOM     26  C   UNL     1      35.024 -15.294 -23.454  0.00  0.00    +0.010 C 
ATOM     27  C   UNL     1      33.547 -17.417 -24.918  0.00  0.00    +0.010 C 
ATOM     28  C   UNL     1      33.572 -15.135 -23.886  0.00  0.00    +0.001 C 
ATOM     29  C   UNL     1      33.292 -15.935 -25.151  0.00  0.00    +0.001 C 
ATOM     30  C   UNL     1      35.031 -17.425 -22.039  0.00  0.00    +0.231 C 
ATOM     31  C   UNL     1      34.955 -19.035 -23.692  0.00  0.00    +0.231 C 
ENDBRANCH  20  23
ENDBRANCH  19  20
ENDBRANCH  18  19
ENDBRANCH  17  18
ENDBRANCH   2  17
TORSDOF 5
ENDMDL
MODEL 8
REMARK VINA RESULT:      -9.9      4.601     10.756
REMARK  Name = 115368
REMARK  5 active torsions:
REMARK  status: ('A' for Active; 'I' for Inactive)
REMARK    1  A    between atoms: N_2  and  C_17
REMARK    2  A    between atoms: C_17  and  C_18
REMARK    3  A    between atoms: C_18  and  C_19
REMARK    4  A    between atoms: C_19  and  C_20
REMARK    5  A    between atoms: C_20  and  N_23
REMARK                            x       y       z     vdW  Elec       q    Type
REMARK                         _______ _______ _______ _____ _____    ______ ____
ROOT
ATOM      1  S   UNL     1      33.862 -14.720 -25.823  0.00  0.00    +0.014 S 
ATOM      2  N   UNL     1      35.289 -19.762 -21.779  0.00  0.00    +0.389 N 
ATOM      3  N   UNL     1      34.763 -17.452 -23.377  0.00  0.00    -0.297 N 
ATOM      4  N   UNL     1      34.368 -16.237 -25.392  0.00  0.00    -0.194 NA
ATOM      5  C   UNL     1      35.627 -18.421 -21.288  0.00  0.00    -0.055 C 
ATOM      6  C   UNL     1      34.101 -19.702 -22.641  0.00  0.00    -0.055 C 
ATOM      7  C   UNL     1      35.897 -17.457 -22.448  0.00  0.00    +0.069 C 
ATOM      8  C   UNL     1      34.349 -18.783 -23.838  0.00  0.00    +0.069 C 
ATOM      9  C   UNL     1      34.387 -16.317 -24.060  0.00  0.00    +0.140 A 
ATOM     10  C   UNL     1      33.991 -15.143 -23.330  0.00  0.00    +0.040 A 
ATOM     11  C   UNL     1      33.654 -14.124 -24.223  0.00  0.00    +0.050 A 
ATOM     12  C   UNL     1      33.896 -14.882 -21.945  0.00  0.00    +0.003 C 
ATOM     13  C   UNL     1      33.229 -12.859 -23.789  0.00  0.00    +0.008 C 
ATOM     14  C   UNL     1      33.473 -13.626 -21.502  0.00  0.00    +0.000 C 
ATOM     15  C   UNL     1      33.145 -12.629 -22.413  0.00  0.00    +0.001 C 
ATOM     16  H   UNL     1      36.072 -20.116 -22.328  0.00  0.00    -0.080 HD
ENDROOT
BRANCH   2  17
ATOM     17  C   UNL     1      35.066 -20.678 -20.660  0.00  0.00    -0.077 C 
BRANCH  17  18
ATOM     18  C   UNL     1      36.342 -20.825 -19.832  0.00  0.00    -0.021 C 
BRANCH  18  19
ATOM     19  C   UNL     1      36.247 -22.021 -18.878  0.00  0.00    +0.020 C 
BRANCH  19  20
ATOM     20  C   UNL     1      36.480 -21.630 -17.422  0.00  0.00    +0.101 C 
BRANCH  20  23
ATOM     21  O   UNL     1      33.933 -22.894 -16.603  0.00  0.00    -0.274 OA
ATOM     22  O   UNL     1      38.500 -23.128 -15.913  0.00  0.00    -0.274 OA
ATOM     23  N   UNL     1      36.270 -22.738 -16.512  0.00  0.00    -0.230 N 
ATOM     24  C   UNL     1      35.289 -24.538 -15.427  0.00  0.00    +0.086 C 
ATOM     25  C   UNL     1      36.672 -24.286 -14.817  0.00  0.00    +0.086 C 
ATOM     26  C   UNL     1      34.180 -24.908 -14.450  0.00  0.00    +0.010 C 
ATOM     27  C   UNL     1      36.652 -23.599 -13.447  0.00  0.00    +0.010 C 
ATOM     28  C   UNL     1      34.216 -24.101 -13.159  0.00  0.00    +0.001 C 
ATOM     29  C   UNL     1      35.595 -24.170 -12.515  0.00  0.00    +0.001 C 
ATOM     30  C   UNL     1      35.030 -23.283 -16.233  0.00  0.00    +0.231 C 
ATOM     31  C   UNL     1      37.300 -23.343 -15.818  0.00  0.00    +0.231 C 
ENDBRANCH  20  23
ENDBRANCH  19  20
ENDBRANCH  18  19
ENDBRANCH  17  18
ENDBRANCH   2  17
TORSDOF 5
ENDMDL
MODEL 9
REMARK VINA RESULT:      -9.8      3.277      5.577
REMARK  Name = 115368
REMARK  5 active torsions:
REMARK  status: ('A' for Active; 'I' for Inactive)
REMARK    1  A    between atoms: N_2  and  C_17
REMARK    2  A    between atoms: C_17  and  C_18
REMARK    3  A    between atoms: C_18  and  C_19
REMARK    4  A    between atoms: C_19  and  C_20
REMARK    5  A    between atoms: C_20  and  N_23
REMARK                            x       y       z     vdW  Elec       q    Type
REMARK                         _______ _______ _______ _____ _____    ______ ____
ROOT
ATOM      1  S   UNL     1      35.200 -24.687 -14.770  0.00  0.00    +0.014 S 
ATOM      2  N   UNL     1      34.390 -21.265 -20.378  0.00  0.00    +0.389 N 
ATOM      3  N   UNL     1      34.530 -22.802 -17.973  0.00  0.00    -0.297 N 
ATOM      4  N   UNL     1      35.587 -24.092 -16.267  0.00  0.00    -0.194 NA
ATOM      5  C   UNL     1      33.197 -21.939 -19.851  0.00  0.00    -0.055 C 
ATOM      6  C   UNL     1      35.269 -20.853 -19.276  0.00  0.00    -0.055 C 
ATOM      7  C   UNL     1      33.575 -23.171 -19.023  0.00  0.00    +0.069 C 
ATOM      8  C   UNL     1      35.706 -22.065 -18.452  0.00  0.00    +0.069 C 
ATOM      9  C   UNL     1      34.535 -23.424 -16.744  0.00  0.00    +0.140 A 
ATOM     10  C   UNL     1      33.364 -23.368 -15.912  0.00  0.00    +0.040 A 
ATOM     11  C   UNL     1      33.598 -24.061 -14.722  0.00  0.00    +0.050 A 
ATOM     12  C   UNL     1      32.102 -22.762 -16.099  0.00  0.00    +0.003 C 
ATOM     13  C   UNL     1      32.625 -24.172 -13.717  0.00  0.00    +0.008 C 
ATOM     14  C   UNL     1      31.126 -22.866 -15.104  0.00  0.00    +0.000 C 
ATOM     15  C   UNL     1      31.386 -23.563 -13.930  0.00  0.00    +0.001 C 
ATOM     16  H   UNL     1      34.899 -21.920 -20.973  0.00  0.00    -0.080 HD
ENDROOT
BRANCH   2  17
ATOM     17  C   UNL     1      34.011 -20.111 -21.193  0.00  0.00    -0.077 C 
BRANCH  17  18
ATOM     18  C   UNL     1      35.239 -19.260 -21.513  0.00  0.00    -0.021 C 
BRANCH  18  19
ATOM     19  C   UNL     1      35.053 -18.495 -22.828  0.00  0.00    +0.020 C 
BRANCH  19  20
ATOM     20  C   UNL     1      35.654 -17.094 -22.780  0.00  0.00    +0.101 C 
BRANCH  20  23
ATOM     21  O   UNL     1      34.712 -16.485 -25.518  0.00  0.00    -0.274 OA
ATOM     22  O   UNL     1      34.268 -15.108 -21.126  0.00  0.00    -0.274 OA
ATOM     23  N   UNL     1      34.716 -16.076 -23.211  0.00  0.00    -0.230 N 
ATOM     24  C   UNL     1      33.177 -14.902 -24.488  0.00  0.00    +0.086 C 
ATOM     25  C   UNL     1      33.422 -14.137 -23.182  0.00  0.00    +0.086 C 
ATOM     26  C   UNL     1      33.040 -14.055 -25.747  0.00  0.00    +0.010 C 
ATOM     27  C   UNL     1      34.311 -12.898 -23.323  0.00  0.00    +0.010 C 
ATOM     28  C   UNL     1      34.031 -12.900 -25.812  0.00  0.00    +0.001 C 
ATOM     29  C   UNL     1      33.966 -12.058 -24.544  0.00  0.00    +0.001 C 
ATOM     30  C   UNL     1      34.309 -15.907 -24.521  0.00  0.00    +0.231 C 
ATOM     31  C   UNL     1      34.154 -15.160 -22.342  0.00  0.00    +0.231 C 
ENDBRANCH  20  23
ENDBRANCH  19  20
ENDBRANCH  18  19
ENDBRANCH  17  18
ENDBRANCH   2  17
TORSDOF 5
ENDMDL
