MODEL 1
REMARK VINA RESULT:     -11.6      0.000      0.000
REMARK  Name = 66555680
REMARK  4 active torsions:
REMARK  status: ('A' for Active; 'I' for Inactive)
REMARK    1  A    between atoms: N_1  and  C_8
REMARK    2  A    between atoms: C_3  and  C_22
REMARK    3  A    between atoms: C_4  and  N_18
REMARK    4  A    between atoms: C_22  and  C_24
REMARK                            x       y       z     vdW  Elec       q    Type
REMARK                         _______ _______ _______ _____ _____    ______ ____
ROOT
ATOM      1  N   UNL     1      35.174 -20.063 -20.879  0.00  0.00    -0.177 N 
ATOM      2  N   UNL     1      36.418 -20.335 -20.447  0.00  0.00    -0.171 NA
ATOM      3  C   UNL     1      34.874 -21.710 -19.476  0.00  0.00    +0.090 C 
ATOM      4  C   UNL     1      34.213 -20.858 -20.328  0.00  0.00    +0.122 C 
ATOM      5  C   UNL     1      36.227 -21.342 -19.590  0.00  0.00    +0.124 C 
ENDROOT
BRANCH   1   8
ATOM      6  N   UNL     1      34.626 -15.369 -22.269  0.00  0.00    -0.318 N 
ATOM      7  N   UNL     1      34.406 -15.868 -24.424  0.00  0.00    -0.318 N 
ATOM      8  C   UNL     1      34.980 -19.040 -21.809  0.00  0.00    +0.077 C 
ATOM      9  C   UNL     1      34.728 -16.735 -22.341  0.00  0.00    +0.060 C 
ATOM     10  C   UNL     1      34.926 -17.714 -21.367  0.00  0.00    +0.032 C 
ATOM     11  C   UNL     1      34.588 -17.021 -23.696  0.00  0.00    +0.059 C 
ATOM     12  C   UNL     1      34.842 -19.359 -23.162  0.00  0.00    +0.018 C 
ATOM     13  C   UNL     1      34.645 -18.359 -24.122  0.00  0.00    +0.017 C 
ATOM     14  C   UNL     1      34.435 -14.898 -23.538  0.00  0.00    +0.144 C 
ATOM     15  C   UNL     1      34.286 -13.455 -23.805  0.00  0.00    +0.044 C 
ATOM     16  H   UNL     1      34.682 -14.826 -21.450  0.00  0.00    +0.148 HD
ATOM     17  H   UNL     1      34.282 -15.787 -25.397  0.00  0.00    +0.148 HD
ENDBRANCH   1   8
BRANCH   4  18
ATOM     18  N   UNL     1      32.906 -20.729 -20.644  0.00  0.00    -0.344 N 
ATOM     19  H   UNL     1      32.404 -19.936 -20.350  0.00  0.00    +0.144 HD
ATOM     20  H   UNL     1      32.456 -21.430 -21.170  0.00  0.00    +0.144 HD
ENDBRANCH   4  18
BRANCH   3  22
ATOM     21  O   UNL     1      33.388 -23.494 -19.196  0.00  0.00    -0.285 OA
ATOM     22  C   UNL     1      34.250 -22.787 -18.624  0.00  0.00    +0.213 C 
BRANCH  22  24
ATOM     23  N   UNL     1      33.754 -23.558 -16.333  0.00  0.00    -0.310 N 
ATOM     24  C   UNL     1      34.601 -23.005 -17.256  0.00  0.00    +0.088 C 
ATOM     25  C   UNL     1      34.375 -23.637 -15.107  0.00  0.00    +0.048 C 
ATOM     26  C   UNL     1      35.661 -23.116 -15.263  0.00  0.00    +0.015 C 
ATOM     27  C   UNL     1      35.789 -22.721 -16.625  0.00  0.00    +0.019 C 
ATOM     28  C   UNL     1      33.902 -24.126 -13.884  0.00  0.00    +0.015 C 
ATOM     29  C   UNL     1      36.518 -23.080 -14.146  0.00  0.00    +0.001 C 
ATOM     30  C   UNL     1      34.770 -24.080 -12.790  0.00  0.00    +0.001 C 
ATOM     31  C   UNL     1      36.059 -23.565 -12.917  0.00  0.00    +0.000 C 
ATOM     32  H   UNL     1      32.834 -23.855 -16.519  0.00  0.00    +0.152 HD
ENDBRANCH  22  24
ENDBRANCH   3  22
TORSDOF 4
ENDMDL
MODEL 2
REMARK VINA RESULT:     -11.3      3.226      6.112
REMARK  Name = 66555680
REMARK  4 active torsions:
REMARK  status: ('A' for Active; 'I' for Inactive)
REMARK    1  A    between atoms: N_1  and  C_8
REMARK    2  A    between atoms: C_3  and  C_22
REMARK    3  A    between atoms: C_4  and  N_18
REMARK    4  A    between atoms: C_22  and  C_24
REMARK                            x       y       z     vdW  Elec       q    Type
REMARK                         _______ _______ _______ _____ _____    ______ ____
ROOT
ATOM      1  N   UNL     1      34.133 -15.217 -23.464  0.00  0.00    -0.177 N 
ATOM      2  N   UNL     1      34.147 -15.740 -24.702  0.00  0.00    -0.171 NA
ATOM      3  C   UNL     1      35.145 -17.134 -23.192  0.00  0.00    +0.090 C 
ATOM      4  C   UNL     1      34.719 -16.012 -22.523  0.00  0.00    +0.122 C 
ATOM      5  C   UNL     1      34.766 -16.911 -24.529  0.00  0.00    +0.124 C 
ENDROOT
BRANCH   1   8
ATOM      6  N   UNL     1      33.537 -10.399 -24.299  0.00  0.00    -0.318 N 
ATOM      7  N   UNL     1      31.939 -10.172 -22.771  0.00  0.00    -0.318 N 
ATOM      8  C   UNL     1      33.550 -13.966 -23.254  0.00  0.00    +0.077 C 
ATOM      9  C   UNL     1      33.367 -11.648 -23.758  0.00  0.00    +0.060 C 
ATOM     10  C   UNL     1      33.984 -12.873 -24.012  0.00  0.00    +0.032 C 
ATOM     11  C   UNL     1      32.364 -11.479 -22.808  0.00  0.00    +0.059 C 
ATOM     12  C   UNL     1      32.546 -13.828 -22.293  0.00  0.00    +0.018 C 
ATOM     13  C   UNL     1      31.940 -12.588 -22.055  0.00  0.00    +0.017 C 
ATOM     14  C   UNL     1      32.662  -9.552 -23.677  0.00  0.00    +0.144 C 
ATOM     15  C   UNL     1      32.595  -8.123 -24.034  0.00  0.00    +0.044 C 
ATOM     16  H   UNL     1      34.175 -10.156 -25.008  0.00  0.00    +0.148 HD
ATOM     17  H   UNL     1      31.243  -9.783 -22.192  0.00  0.00    +0.148 HD
ENDBRANCH   1   8
BRANCH   4  18
ATOM     18  N   UNL     1      34.797 -15.649 -21.224  0.00  0.00    -0.344 N 
ATOM     19  H   UNL     1      34.039 -15.819 -20.619  0.00  0.00    +0.144 HD
ATOM     20  H   UNL     1      35.611 -15.214 -20.883  0.00  0.00    +0.144 HD
ENDBRANCH   4  18
BRANCH   3  22
ATOM     21  O   UNL     1      37.066 -18.436 -22.901  0.00  0.00    -0.285 OA
ATOM     22  C   UNL     1      35.857 -18.319 -22.591  0.00  0.00    +0.213 C 
BRANCH  22  24
ATOM     23  N   UNL     1      35.897 -20.124 -20.909  0.00  0.00    -0.310 N 
ATOM     24  C   UNL     1      35.219 -19.260 -21.726  0.00  0.00    +0.088 C 
ATOM     25  C   UNL     1      35.010 -20.903 -20.201  0.00  0.00    +0.048 C 
ATOM     26  C   UNL     1      33.724 -20.517 -20.587  0.00  0.00    +0.015 C 
ATOM     27  C   UNL     1      33.872 -19.479 -21.550  0.00  0.00    +0.019 C 
ATOM     28  C   UNL     1      35.244 -21.910 -19.258  0.00  0.00    +0.015 C 
ATOM     29  C   UNL     1      32.618 -21.165 -20.004  0.00  0.00    +0.001 C 
ATOM     30  C   UNL     1      34.131 -22.539 -18.694  0.00  0.00    +0.001 C 
ATOM     31  C   UNL     1      32.837 -22.174 -19.060  0.00  0.00    +0.000 C 
ATOM     32  H   UNL     1      36.877 -20.179 -20.837  0.00  0.00    +0.152 HD
ENDBRANCH  22  24
ENDBRANCH   3  22
TORSDOF 4
ENDMDL
MODEL 3
REMARK VINA RESULT:     -11.1      2.997      5.777
REMARK  Name = 66555680
REMARK  4 active torsions:
REMARK  status: ('A' for Active; 'I' for Inactive)
REMARK    1  A    between atoms: N_1  and  C_8
REMARK    2  A    between atoms: C_3  and  C_22
REMARK    3  A    between atoms: C_4  and  N_18
REMARK    4  A    between atoms: C_22  and  C_24
REMARK                            x       y       z     vdW  Elec       q    Type
REMARK                         _______ _______ _______ _____ _____    ______ ____
ROOT
ATOM      1  N   UNL     1      34.448 -15.159 -23.207  0.00  0.00    -0.177 N 
ATOM      2  N   UNL     1      34.264 -15.063 -21.879  0.00  0.00    -0.171 NA
ATOM      3  C   UNL     1      35.113 -17.101 -22.461  0.00  0.00    +0.090 C 
ATOM      4  C   UNL     1      34.955 -16.361 -23.607  0.00  0.00    +0.122 C 
ATOM      5  C   UNL     1      34.673 -16.252 -21.429  0.00  0.00    +0.124 C 
ENDROOT
BRANCH   1   8
ATOM      6  N   UNL     1      33.887 -10.372 -24.226  0.00  0.00    -0.318 N 
ATOM      7  N   UNL     1      33.194 -10.735 -26.307  0.00  0.00    -0.318 N 
ATOM      8  C   UNL     1      34.121 -14.076 -24.025  0.00  0.00    +0.077 C 
ATOM      9  C   UNL     1      33.895 -11.735 -24.383  0.00  0.00    +0.060 C 
ATOM     10  C   UNL     1      34.236 -12.777 -23.520  0.00  0.00    +0.032 C 
ATOM     11  C   UNL     1      33.459 -11.936 -25.689  0.00  0.00    +0.059 C 
ATOM     12  C   UNL     1      33.686 -14.309 -25.332  0.00  0.00    +0.018 C 
ATOM     13  C   UNL     1      33.349 -13.248 -26.180  0.00  0.00    +0.017 C 
ATOM     14  C   UNL     1      33.462  -9.820 -25.402  0.00  0.00    +0.144 C 
ATOM     15  C   UNL     1      33.342  -8.359 -25.563  0.00  0.00    +0.044 C 
ATOM     16  H   UNL     1      34.144  -9.880 -23.413  0.00  0.00    +0.148 HD
ATOM     17  H   UNL     1      32.874 -10.592 -27.227  0.00  0.00    +0.148 HD
ENDBRANCH   1   8
BRANCH   4  18
ATOM     18  N   UNL     1      35.206 -16.637 -24.905  0.00  0.00    -0.344 N 
ATOM     19  H   UNL     1      35.232 -17.571 -25.214  0.00  0.00    +0.144 HD
ATOM     20  H   UNL     1      35.363 -15.904 -25.543  0.00  0.00    +0.144 HD
ENDBRANCH   4  18
BRANCH   3  22
ATOM     21  O   UNL     1      36.589 -18.780 -23.151  0.00  0.00    -0.285 OA
ATOM     22  C   UNL     1      35.646 -18.509 -22.371  0.00  0.00    +0.213 C 
BRANCH  22  24
ATOM     23  N   UNL     1      35.906 -20.228 -20.620  0.00  0.00    -0.310 N 
ATOM     24  C   UNL     1      35.127 -19.487 -21.467  0.00  0.00    +0.088 C 
ATOM     25  C   UNL     1      35.120 -21.082 -19.878  0.00  0.00    +0.048 C 
ATOM     26  C   UNL     1      33.797 -20.870 -20.272  0.00  0.00    +0.015 C 
ATOM     27  C   UNL     1      33.817 -19.861 -21.276  0.00  0.00    +0.019 C 
ATOM     28  C   UNL     1      35.475 -22.015 -18.898  0.00  0.00    +0.015 C 
ATOM     29  C   UNL     1      32.778 -21.625 -19.660  0.00  0.00    +0.001 C 
ATOM     30  C   UNL     1      34.448 -22.752 -18.304  0.00  0.00    +0.001 C 
ATOM     31  C   UNL     1      33.119 -22.562 -18.678  0.00  0.00    +0.000 C 
ATOM     32  H   UNL     1      36.886 -20.161 -20.550  0.00  0.00    +0.152 HD
ENDBRANCH  22  24
ENDBRANCH   3  22
TORSDOF 4
ENDMDL
MODEL 4
REMARK VINA RESULT:     -10.9      6.118     10.406
REMARK  Name = 66555680
REMARK  4 active torsions:
REMARK  status: ('A' for Active; 'I' for Inactive)
REMARK    1  A    between atoms: N_1  and  C_8
REMARK    2  A    between atoms: C_3  and  C_22
REMARK    3  A    between atoms: C_4  and  N_18
REMARK    4  A    between atoms: C_22  and  C_24
REMARK                            x       y       z     vdW  Elec       q    Type
REMARK                         _______ _______ _______ _____ _____    ______ ____
ROOT
ATOM      1  N   UNL     1      33.587 -10.798 -24.353  0.00  0.00    -0.177 N 
ATOM      2  N   UNL     1      33.029 -11.275 -23.227  0.00  0.00    -0.171 NA
ATOM      3  C   UNL     1      33.574 -12.959 -24.672  0.00  0.00    +0.090 C 
ATOM      4  C   UNL     1      33.931 -11.765 -25.252  0.00  0.00    +0.122 C 
ATOM      5  C   UNL     1      33.025 -12.596 -23.428  0.00  0.00    +0.124 C 
ENDROOT
BRANCH   1   8
ATOM      6  N   UNL     1      32.147  -6.253 -25.592  0.00  0.00    -0.318 N 
ATOM      7  N   UNL     1      34.080  -5.315 -25.023  0.00  0.00    -0.318 N 
ATOM      8  C   UNL     1      33.758  -9.420 -24.504  0.00  0.00    +0.077 C 
ATOM      9  C   UNL     1      32.934  -7.281 -25.141  0.00  0.00    +0.060 C 
ATOM     10  C   UNL     1      32.706  -8.651 -25.012  0.00  0.00    +0.032 C 
ATOM     11  C   UNL     1      34.135  -6.670 -24.792  0.00  0.00    +0.059 C 
ATOM     12  C   UNL     1      34.974  -8.836 -24.146  0.00  0.00    +0.018 C 
ATOM     13  C   UNL     1      35.181  -7.458 -24.283  0.00  0.00    +0.017 C 
ATOM     14  C   UNL     1      32.875  -5.099 -25.502  0.00  0.00    +0.144 C 
ATOM     15  C   UNL     1      32.308  -3.802 -25.913  0.00  0.00    +0.044 C 
ATOM     16  H   UNL     1      31.222  -6.331 -25.921  0.00  0.00    +0.148 HD
ATOM     17  H   UNL     1      34.789  -4.651 -24.865  0.00  0.00    +0.148 HD
ENDBRANCH   1   8
BRANCH   4  18
ATOM     18  N   UNL     1      34.504 -11.472 -26.439  0.00  0.00    -0.344 N 
ATOM     19  H   UNL     1      35.027 -10.644 -26.543  0.00  0.00    +0.144 HD
ATOM     20  H   UNL     1      34.397 -12.085 -27.202  0.00  0.00    +0.144 HD
ENDBRANCH   4  18
BRANCH   3  22
ATOM     21  O   UNL     1      33.545 -14.415 -26.502  0.00  0.00    -0.285 OA
ATOM     22  C   UNL     1      33.750 -14.333 -25.269  0.00  0.00    +0.213 C 
BRANCH  22  24
ATOM     23  N   UNL     1      33.969 -16.768 -24.935  0.00  0.00    -0.310 N 
ATOM     24  C   UNL     1      34.122 -15.478 -24.500  0.00  0.00    +0.088 C 
ATOM     25  C   UNL     1      34.417 -17.648 -23.976  0.00  0.00    +0.048 C 
ATOM     26  C   UNL     1      34.868 -16.886 -22.896  0.00  0.00    +0.015 C 
ATOM     27  C   UNL     1      34.676 -15.518 -23.242  0.00  0.00    +0.019 C 
ATOM     28  C   UNL     1      34.456 -19.047 -23.980  0.00  0.00    +0.015 C 
ATOM     29  C   UNL     1      35.385 -17.549 -21.766  0.00  0.00    +0.001 C 
ATOM     30  C   UNL     1      34.972 -19.683 -22.849  0.00  0.00    +0.001 C 
ATOM     31  C   UNL     1      35.430 -18.948 -21.757  0.00  0.00    +0.000 C 
ATOM     32  H   UNL     1      33.594 -17.028 -25.807  0.00  0.00    +0.152 HD
ENDBRANCH  22  24
ENDBRANCH   3  22
TORSDOF 4
ENDMDL
MODEL 5
REMARK VINA RESULT:     -10.9      3.915      7.296
REMARK  Name = 66555680
REMARK  4 active torsions:
REMARK  status: ('A' for Active; 'I' for Inactive)
REMARK    1  A    between atoms: N_1  and  C_8
REMARK    2  A    between atoms: C_3  and  C_22
REMARK    3  A    between atoms: C_4  and  N_18
REMARK    4  A    between atoms: C_22  and  C_24
REMARK                            x       y       z     vdW  Elec       q    Type
REMARK                         _______ _______ _______ _____ _____    ______ ____
ROOT
ATOM      1  N   UNL     1      34.037 -13.636 -23.570  0.00  0.00    -0.177 N 
ATOM      2  N   UNL     1      34.381 -13.822 -22.284  0.00  0.00    -0.171 NA
ATOM      3  C   UNL     1      34.417 -15.784 -23.454  0.00  0.00    +0.090 C 
ATOM      4  C   UNL     1      34.043 -14.780 -24.314  0.00  0.00    +0.122 C 
ATOM      5  C   UNL     1      34.613 -15.136 -22.220  0.00  0.00    +0.124 C 
ENDROOT
BRANCH   1   8
ATOM      6  N   UNL     1      31.908  -9.209 -23.202  0.00  0.00    -0.318 N 
ATOM      7  N   UNL     1      32.662  -8.508 -25.173  0.00  0.00    -0.318 N 
ATOM      8  C   UNL     1      33.717 -12.352 -24.016  0.00  0.00    +0.077 C 
ATOM      9  C   UNL     1      32.637 -10.255 -23.709  0.00  0.00    +0.060 C 
ATOM     10  C   UNL     1      32.924 -11.526 -23.212  0.00  0.00    +0.032 C 
ATOM     11  C   UNL     1      33.096  -9.793 -24.938  0.00  0.00    +0.059 C 
ATOM     12  C   UNL     1      34.193 -11.916 -25.254  0.00  0.00    +0.018 C 
ATOM     13  C   UNL     1      33.891 -10.636 -25.733  0.00  0.00    +0.017 C 
ATOM     14  C   UNL     1      31.953  -8.190 -24.113  0.00  0.00    +0.144 C 
ATOM     15  C   UNL     1      31.262  -6.911 -23.865  0.00  0.00    +0.044 C 
ATOM     16  H   UNL     1      31.438  -9.195 -22.338  0.00  0.00    +0.148 HD
ATOM     17  H   UNL     1      32.842  -7.949 -25.963  0.00  0.00    +0.148 HD
ENDBRANCH   1   8
BRANCH   4  18
ATOM     18  N   UNL     1      33.723 -14.784 -25.626  0.00  0.00    -0.344 N 
ATOM     19  H   UNL     1      34.136 -14.132 -26.236  0.00  0.00    +0.144 HD
ATOM     20  H   UNL     1      33.077 -15.441 -25.973  0.00  0.00    +0.144 HD
ENDBRANCH   4  18
BRANCH   3  22
ATOM     21  O   UNL     1      34.492 -17.524 -25.015  0.00  0.00    -0.285 OA
ATOM     22  C   UNL     1      34.574 -17.244 -23.796  0.00  0.00    +0.213 C 
BRANCH  22  24
ATOM     23  N   UNL     1      33.802 -19.025 -22.272  0.00  0.00    -0.310 N 
ATOM     24  C   UNL     1      34.798 -18.259 -22.815  0.00  0.00    +0.088 C 
ATOM     25  C   UNL     1      34.328 -19.911 -21.358  0.00  0.00    +0.048 C 
ATOM     26  C   UNL     1      35.707 -19.694 -21.323  0.00  0.00    +0.015 C 
ATOM     27  C   UNL     1      35.989 -18.648 -22.248  0.00  0.00    +0.019 C 
ATOM     28  C   UNL     1      33.696 -20.876 -20.568  0.00  0.00    +0.015 C 
ATOM     29  C   UNL     1      36.495 -20.478 -20.459  0.00  0.00    +0.001 C 
ATOM     30  C   UNL     1      34.498 -21.643 -19.718  0.00  0.00    +0.001 C 
ATOM     31  C   UNL     1      35.877 -21.448 -19.663  0.00  0.00    +0.000 C 
ATOM     32  H   UNL     1      32.847 -18.954 -22.502  0.00  0.00    +0.152 HD
ENDBRANCH  22  24
ENDBRANCH   3  22
TORSDOF 4
ENDMDL
MODEL 6
REMARK VINA RESULT:     -10.8      1.647      2.147
REMARK  Name = 66555680
REMARK  4 active torsions:
REMARK  status: ('A' for Active; 'I' for Inactive)
REMARK    1  A    between atoms: N_1  and  C_8
REMARK    2  A    between atoms: C_3  and  C_22
REMARK    3  A    between atoms: C_4  and  N_18
REMARK    4  A    between atoms: C_22  and  C_24
REMARK                            x       y       z     vdW  Elec       q    Type
REMARK                         _______ _______ _______ _____ _____    ______ ____
ROOT
ATOM      1  N   UNL     1      35.109 -19.916 -20.941  0.00  0.00    -0.177 N 
ATOM      2  N   UNL     1      36.266 -20.202 -20.319  0.00  0.00    -0.171 NA
ATOM      3  C   UNL     1      34.679 -21.794 -19.912  0.00  0.00    +0.090 C 
ATOM      4  C   UNL     1      34.126 -20.838 -20.728  0.00  0.00    +0.122 C 
ATOM      5  C   UNL     1      35.997 -21.351 -19.693  0.00  0.00    +0.124 C 
ENDROOT
BRANCH   1   8
ATOM      6  N   UNL     1      34.359 -15.098 -21.644  0.00  0.00    -0.318 N 
ATOM      7  N   UNL     1      34.686 -15.208 -23.840  0.00  0.00    -0.318 N 
ATOM      8  C   UNL     1      35.013 -18.756 -21.712  0.00  0.00    +0.077 C 
ATOM      9  C   UNL     1      34.628 -16.417 -21.909  0.00  0.00    +0.060 C 
ATOM     10  C   UNL     1      34.712 -17.541 -21.088  0.00  0.00    +0.032 C 
ATOM     11  C   UNL     1      34.829 -16.459 -23.286  0.00  0.00    +0.059 C 
ATOM     12  C   UNL     1      35.219 -18.830 -23.092  0.00  0.00    +0.018 C 
ATOM     13  C   UNL     1      35.130 -17.688 -23.897  0.00  0.00    +0.017 C 
ATOM     14  C   UNL     1      34.405 -14.417 -22.829  0.00  0.00    +0.144 C 
ATOM     15  C   UNL     1      34.157 -12.965 -22.886  0.00  0.00    +0.044 C 
ATOM     16  H   UNL     1      34.168 -14.712 -20.759  0.00  0.00    +0.148 HD
ATOM     17  H   UNL     1      34.774 -14.958 -24.789  0.00  0.00    +0.148 HD
ENDBRANCH   1   8
BRANCH   4  18
ATOM     18  N   UNL     1      32.897 -20.715 -21.274  0.00  0.00    -0.344 N 
ATOM     19  H   UNL     1      32.331 -19.942 -21.046  0.00  0.00    +0.144 HD
ATOM     20  H   UNL     1      32.566 -21.399 -21.900  0.00  0.00    +0.144 HD
ENDBRANCH   4  18
BRANCH   3  22
ATOM     21  O   UNL     1      34.065 -24.041 -20.127  0.00  0.00    -0.285 OA
ATOM     22  C   UNL     1      33.993 -23.031 -19.388  0.00  0.00    +0.213 C 
BRANCH  22  24
ATOM     23  N   UNL     1      31.949 -22.896 -18.012  0.00  0.00    -0.310 N 
ATOM     24  C   UNL     1      33.301 -23.073 -18.139  0.00  0.00    +0.088 C 
ATOM     25  C   UNL     1      31.580 -22.990 -16.689  0.00  0.00    +0.048 C 
ATOM     26  C   UNL     1      32.742 -23.236 -15.954  0.00  0.00    +0.015 C 
ATOM     27  C   UNL     1      33.820 -23.285 -16.882  0.00  0.00    +0.019 C 
ATOM     28  C   UNL     1      30.319 -22.878 -16.093  0.00  0.00    +0.015 C 
ATOM     29  C   UNL     1      32.643 -23.378 -14.557  0.00  0.00    +0.001 C 
ATOM     30  C   UNL     1      30.246 -23.023 -14.705  0.00  0.00    +0.001 C 
ATOM     31  C   UNL     1      31.389 -23.269 -13.946  0.00  0.00    +0.000 C 
ATOM     32  H   UNL     1      31.331 -22.725 -18.759  0.00  0.00    +0.152 HD
ENDBRANCH  22  24
ENDBRANCH   3  22
TORSDOF 4
ENDMDL
MODEL 7
REMARK VINA RESULT:     -10.7      5.372     12.784
REMARK  Name = 66555680
REMARK  4 active torsions:
REMARK  status: ('A' for Active; 'I' for Inactive)
REMARK    1  A    between atoms: N_1  and  C_8
REMARK    2  A    between atoms: C_3  and  C_22
REMARK    3  A    between atoms: C_4  and  N_18
REMARK    4  A    between atoms: C_22  and  C_24
REMARK                            x       y       z     vdW  Elec       q    Type
REMARK                         _______ _______ _______ _____ _____    ______ ____
ROOT
ATOM      1  N   UNL     1      33.683 -13.398 -23.601  0.00  0.00    -0.177 N 
ATOM      2  N   UNL     1      34.195 -12.619 -24.570  0.00  0.00    -0.171 NA
ATOM      3  C   UNL     1      32.772 -11.450 -23.220  0.00  0.00    +0.090 C 
ATOM      4  C   UNL     1      32.825 -12.745 -22.765  0.00  0.00    +0.122 C 
ATOM      5  C   UNL     1      33.635 -11.430 -24.331  0.00  0.00    +0.124 C 
ENDROOT
BRANCH   1   8
ATOM      6  N   UNL     1      35.280 -17.455 -21.308  0.00  0.00    -0.318 N 
ATOM      7  N   UNL     1      35.194 -18.714 -23.138  0.00  0.00    -0.318 N 
ATOM      8  C   UNL     1      34.054 -14.742 -23.533  0.00  0.00    +0.077 C 
ATOM      9  C   UNL     1      34.833 -16.624 -22.303  0.00  0.00    +0.060 C 
ATOM     10  C   UNL     1      34.474 -15.276 -22.311  0.00  0.00    +0.032 C 
ATOM     11  C   UNL     1      34.788 -17.433 -23.435  0.00  0.00    +0.059 C 
ATOM     12  C   UNL     1      33.998 -15.529 -24.686  0.00  0.00    +0.018 C 
ATOM     13  C   UNL     1      34.363 -16.880 -24.655  0.00  0.00    +0.017 C 
ATOM     14  C   UNL     1      35.482 -18.691 -21.856  0.00  0.00    +0.144 C 
ATOM     15  C   UNL     1      35.966 -19.820 -21.040  0.00  0.00    +0.044 C 
ATOM     16  H   UNL     1      35.429 -17.205 -20.367  0.00  0.00    +0.148 HD
ATOM     17  H   UNL     1      35.257 -19.481 -23.753  0.00  0.00    +0.148 HD
ENDBRANCH   1   8
BRANCH   4  18
ATOM     18  N   UNL     1      32.215 -13.368 -21.734  0.00  0.00    -0.344 N 
ATOM     19  H   UNL     1      31.236 -13.323 -21.640  0.00  0.00    +0.144 HD
ATOM     20  H   UNL     1      32.750 -13.867 -21.075  0.00  0.00    +0.144 HD
ENDBRANCH   4  18
BRANCH   3  22
ATOM     21  O   UNL     1      31.216 -10.643 -21.670  0.00  0.00    -0.285 OA
ATOM     22  C   UNL     1      31.957 -10.326 -22.630  0.00  0.00    +0.213 C 
BRANCH  22  24
ATOM     23  N   UNL     1      33.172  -8.296 -23.330  0.00  0.00    -0.310 N 
ATOM     24  C   UNL     1      32.008  -8.983 -23.115  0.00  0.00    +0.088 C 
ATOM     25  C   UNL     1      32.897  -7.030 -23.796  0.00  0.00    +0.048 C 
ATOM     26  C   UNL     1      31.507  -6.915 -23.879  0.00  0.00    +0.015 C 
ATOM     27  C   UNL     1      30.960  -8.156 -23.446  0.00  0.00    +0.019 C 
ATOM     28  C   UNL     1      33.762  -5.988 -24.148  0.00  0.00    +0.015 C 
ATOM     29  C   UNL     1      30.953  -5.704 -24.335  0.00  0.00    +0.001 C 
ATOM     30  C   UNL     1      33.189  -4.796 -24.597  0.00  0.00    +0.001 C 
ATOM     31  C   UNL     1      31.806  -4.653 -24.690  0.00  0.00    +0.000 C 
ATOM     32  H   UNL     1      34.075  -8.654 -23.173  0.00  0.00    +0.152 HD
ENDBRANCH  22  24
ENDBRANCH   3  22
TORSDOF 4
ENDMDL
MODEL 8
REMARK VINA RESULT:     -10.6      1.827      9.574
REMARK  Name = 66555680
REMARK  4 active torsions:
REMARK  status: ('A' for Active; 'I' for Inactive)
REMARK    1  A    between atoms: N_1  and  C_8
REMARK    2  A    between atoms: C_3  and  C_22
REMARK    3  A    between atoms: C_4  and  N_18
REMARK    4  A    between atoms: C_22  and  C_24
REMARK                            x       y       z     vdW  Elec       q    Type
REMARK                         _______ _______ _______ _____ _____    ______ ____
ROOT
ATOM      1  N   UNL     1      34.245 -20.924 -20.139  0.00  0.00    -0.177 N 
ATOM      2  N   UNL     1      33.085 -20.670 -20.770  0.00  0.00    -0.171 NA
ATOM      3  C   UNL     1      34.821 -19.525 -21.715  0.00  0.00    +0.090 C 
ATOM      4  C   UNL     1      35.315 -20.262 -20.666  0.00  0.00    +0.122 C 
ATOM      5  C   UNL     1      33.444 -19.815 -21.732  0.00  0.00    +0.124 C 
ENDROOT
BRANCH   1   8
ATOM      6  N   UNL     1      36.293 -23.144 -16.249  0.00  0.00    -0.318 N 
ATOM      7  N   UNL     1      34.482 -24.345 -15.782  0.00  0.00    -0.318 N 
ATOM      8  C   UNL     1      34.257 -21.799 -19.051  0.00  0.00    +0.077 C 
ATOM      9  C   UNL     1      35.367 -22.795 -17.198  0.00  0.00    +0.060 C 
ATOM     10  C   UNL     1      35.413 -21.905 -18.271  0.00  0.00    +0.032 C 
ATOM     11  C   UNL     1      34.246 -23.558 -16.885  0.00  0.00    +0.059 C 
ATOM     12  C   UNL     1      33.117 -22.551 -18.762  0.00  0.00    +0.018 C 
ATOM     13  C   UNL     1      33.093 -23.439 -17.680  0.00  0.00    +0.017 C 
ATOM     14  C   UNL     1      35.717 -24.072 -15.426  0.00  0.00    +0.144 C 
ATOM     15  C   UNL     1      36.458 -24.654 -14.292  0.00  0.00    +0.044 C 
ATOM     16  H   UNL     1      37.208 -22.789 -16.173  0.00  0.00    +0.148 HD
ATOM     17  H   UNL     1      33.860 -24.977 -15.351  0.00  0.00    +0.148 HD
ENDBRANCH   1   8
BRANCH   4  18
ATOM     18  N   UNL     1      36.561 -20.396 -20.161  0.00  0.00    -0.344 N 
ATOM     19  H   UNL     1      37.325 -20.538 -20.765  0.00  0.00    +0.144 HD
ATOM     20  H   UNL     1      36.705 -20.351 -19.188  0.00  0.00    +0.144 HD
ENDBRANCH   4  18
BRANCH   3  22
ATOM     21  O   UNL     1      36.783 -18.991 -22.871  0.00  0.00    -0.285 OA
ATOM     22  C   UNL     1      35.613 -18.618 -22.623  0.00  0.00    +0.213 C 
BRANCH  22  24
ATOM     23  N   UNL     1      34.973 -16.239 -22.473  0.00  0.00    -0.310 N 
ATOM     24  C   UNL     1      35.086 -17.409 -23.175  0.00  0.00    +0.088 C 
ATOM     25  C   UNL     1      34.432 -15.257 -23.272  0.00  0.00    +0.048 C 
ATOM     26  C   UNL     1      34.195 -15.829 -24.524  0.00  0.00    +0.015 C 
ATOM     27  C   UNL     1      34.613 -17.188 -24.448  0.00  0.00    +0.019 C 
ATOM     28  C   UNL     1      34.136 -13.920 -22.985  0.00  0.00    +0.015 C 
ATOM     29  C   UNL     1      33.638 -15.029 -25.540  0.00  0.00    +0.001 C 
ATOM     30  C   UNL     1      33.584 -13.146 -24.009  0.00  0.00    +0.001 C 
ATOM     31  C   UNL     1      33.338 -13.690 -25.268  0.00  0.00    +0.000 C 
ATOM     32  H   UNL     1      35.239 -16.118 -21.533  0.00  0.00    +0.152 HD
ENDBRANCH  22  24
ENDBRANCH   3  22
TORSDOF 4
ENDMDL
MODEL 9
REMARK VINA RESULT:     -10.4      3.473     10.776
REMARK  Name = 66555680
REMARK  4 active torsions:
REMARK  status: ('A' for Active; 'I' for Inactive)
REMARK    1  A    between atoms: N_1  and  C_8
REMARK    2  A    between atoms: C_3  and  C_22
REMARK    3  A    between atoms: C_4  and  N_18
REMARK    4  A    between atoms: C_22  and  C_24
REMARK                            x       y       z     vdW  Elec       q    Type
REMARK                         _______ _______ _______ _____ _____    ______ ____
ROOT
ATOM      1  N   UNL     1      34.765 -17.379 -22.290  0.00  0.00    -0.177 N 
ATOM      2  N   UNL     1      34.927 -16.213 -21.641  0.00  0.00    -0.171 NA
ATOM      3  C   UNL     1      34.289 -15.884 -23.809  0.00  0.00    +0.090 C 
ATOM      4  C   UNL     1      34.383 -17.237 -23.592  0.00  0.00    +0.122 C 
ATOM      5  C   UNL     1      34.634 -15.304 -22.575  0.00  0.00    +0.124 C 
ENDROOT
BRANCH   1   8
ATOM      6  N   UNL     1      33.378 -21.476 -19.933  0.00  0.00    -0.318 N 
ATOM      7  N   UNL     1      35.461 -22.167 -19.579  0.00  0.00    -0.318 N 
ATOM      8  C   UNL     1      34.990 -18.579 -21.612  0.00  0.00    +0.077 C 
ATOM      9  C   UNL     1      34.182 -20.517 -20.494  0.00  0.00    +0.060 C 
ATOM     10  C   UNL     1      33.897 -19.328 -21.165  0.00  0.00    +0.032 C 
ATOM     11  C   UNL     1      35.477 -20.971 -20.260  0.00  0.00    +0.059 C 
ATOM     12  C   UNL     1      36.301 -19.009 -21.392  0.00  0.00    +0.018 C 
ATOM     13  C   UNL     1      36.563 -20.206 -20.716  0.00  0.00    +0.017 C 
ATOM     14  C   UNL     1      34.188 -22.440 -19.400  0.00  0.00    +0.144 C 
ATOM     15  C   UNL     1      33.627 -23.621 -18.718  0.00  0.00    +0.044 C 
ATOM     16  H   UNL     1      32.394 -21.472 -19.918  0.00  0.00    +0.148 HD
ATOM     17  H   UNL     1      36.235 -22.702 -19.289  0.00  0.00    +0.148 HD
ENDBRANCH   1   8
BRANCH   4  18
ATOM     18  N   UNL     1      34.172 -18.300 -24.398  0.00  0.00    -0.344 N 
ATOM     19  H   UNL     1      34.771 -18.466 -25.162  0.00  0.00    +0.144 HD
ATOM     20  H   UNL     1      33.419 -18.909 -24.222  0.00  0.00    +0.144 HD
ENDBRANCH   4  18
BRANCH   3  22
ATOM     21  O   UNL     1      33.653 -15.979 -26.058  0.00  0.00    -0.285 OA
ATOM     22  C   UNL     1      33.897 -15.209 -25.100  0.00  0.00    +0.213 C 
BRANCH  22  24
ATOM     23  N   UNL     1      33.859 -12.914 -24.195  0.00  0.00    -0.310 N 
ATOM     24  C   UNL     1      33.806 -13.790 -25.245  0.00  0.00    +0.088 C 
ATOM     25  C   UNL     1      33.744 -11.619 -24.652  0.00  0.00    +0.048 C 
ATOM     26  C   UNL     1      33.613 -11.683 -26.041  0.00  0.00    +0.015 C 
ATOM     27  C   UNL     1      33.654 -13.060 -26.401  0.00  0.00    +0.019 C 
ATOM     28  C   UNL     1      33.745 -10.410 -23.949  0.00  0.00    +0.015 C 
ATOM     29  C   UNL     1      33.478 -10.483 -26.765  0.00  0.00    +0.001 C 
ATOM     30  C   UNL     1      33.610  -9.232 -24.688  0.00  0.00    +0.001 C 
ATOM     31  C   UNL     1      33.478  -9.265 -26.075  0.00  0.00    +0.000 C 
ATOM     32  H   UNL     1      33.964 -13.171 -23.251  0.00  0.00    +0.152 HD
ENDBRANCH  22  24
ENDBRANCH   3  22
TORSDOF 4
ENDMDL
