MODEL 1
REMARK VINA RESULT:     -12.3      0.000      0.000
REMARK  Name = 24780387
REMARK  3 active torsions:
REMARK  status: ('A' for Active; 'I' for Inactive)
REMARK    1  A    between atoms: N_3  and  C_25
REMARK    2  A    between atoms: C_18  and  O_23
REMARK    3  A    between atoms: C_25  and  N_26
REMARK                            x       y       z     vdW  Elec       q    Type
REMARK                         _______ _______ _______ _____ _____    ______ ____
ROOT
ATOM      1  O   UNL     1      32.295 -25.039 -13.059  0.00  0.00    -0.270 OA
ATOM      2  O   UNL     1      35.831 -23.530 -15.623  0.00  0.00    -0.270 OA
ATOM      3  N   UNL     1      34.329 -24.416 -14.061  0.00  0.00    -0.244 N 
ATOM      4  N   UNL     1      31.907 -22.088 -18.800  0.00  0.00    -0.353 N 
ATOM      5  C   UNL     1      31.116 -23.834 -15.583  0.00  0.00    -0.020 A 
ATOM      6  C   UNL     1      30.852 -23.203 -16.808  0.00  0.00    -0.010 A 
ATOM      7  C   UNL     1      32.414 -23.964 -15.171  0.00  0.00    +0.054 A 
ATOM      8  C   UNL     1      29.846 -24.227 -14.901  0.00  0.00    +0.027 C 
ATOM      9  C   UNL     1      29.371 -23.116 -17.048  0.00  0.00    +0.028 C 
ATOM     10  C   UNL     1      31.917 -22.732 -17.590  0.00  0.00    +0.052 A 
ATOM     11  C   UNL     1      33.471 -23.500 -15.954  0.00  0.00    +0.059 A 
ATOM     12  C   UNL     1      28.850 -24.176 -16.068  0.00  0.00    +0.009 C 
ATOM     13  C   UNL     1      33.260 -22.867 -17.193  0.00  0.00    +0.024 A 
ATOM     14  C   UNL     1      32.965 -24.551 -13.950  0.00  0.00    +0.253 C 
ATOM     15  C   UNL     1      34.710 -23.796 -15.233  0.00  0.00    +0.253 C 
ATOM     16  C   UNL     1      34.061 -22.280 -18.232  0.00  0.00    +0.051 A 
ATOM     17  C   UNL     1      33.185 -21.806 -19.215  0.00  0.00    +0.060 A 
ATOM     18  C   UNL     1      35.444 -22.097 -18.448  0.00  0.00    +0.140 C 
ATOM     19  C   UNL     1      33.619 -21.168 -20.384  0.00  0.00    +0.017 C 
ATOM     20  C   UNL     1      35.894 -21.462 -19.612  0.00  0.00    +0.037 C 
ATOM     21  C   UNL     1      34.992 -21.004 -20.566  0.00  0.00    +0.005 C 
ATOM     22  H   UNL     1      31.093 -21.858 -19.305  0.00  0.00    +0.166 HD
ENDROOT
BRANCH  18  23
ATOM     23  O   UNL     1      36.434 -22.506 -17.598  0.00  0.00    -0.471 OA
ATOM     24  C   UNL     1      37.215 -21.488 -16.982  0.00  0.00    +0.252 C 
ENDBRANCH  18  23
BRANCH   3  25
ATOM     25  C   UNL     1      35.277 -24.869 -13.060  0.00  0.00    +0.028 C 
BRANCH  25  26
ATOM     26  N   UNL     1      36.582 -25.059 -13.690  0.00  0.00    +0.396 N 
ATOM     27  N   UNL     1      39.202 -26.267 -13.873  0.00  0.00    +0.383 N 
ATOM     28  C   UNL     1      37.664 -24.677 -12.774  0.00  0.00    -0.098 C 
ATOM     29  C   UNL     1      36.751 -26.449 -14.130  0.00  0.00    -0.098 C 
ATOM     30  C   UNL     1      39.034 -24.878 -13.432  0.00  0.00    -0.101 C 
ATOM     31  C   UNL     1      38.120 -26.650 -14.790  0.00  0.00    -0.101 C 
ATOM     32  C   UNL     1      40.507 -26.456 -14.504  0.00  0.00    -0.101 C 
ATOM     33  H   UNL     1      36.628 -24.454 -14.510  0.00  0.00    -0.077 HD
ATOM     34  H   UNL     1      39.158 -26.872 -13.054  0.00  0.00    -0.080 HD
ENDBRANCH  25  26
ENDBRANCH   3  25
TORSDOF 3
ENDMDL
MODEL 2
REMARK VINA RESULT:     -11.5      2.222      6.578
REMARK  Name = 24780387
REMARK  3 active torsions:
REMARK  status: ('A' for Active; 'I' for Inactive)
REMARK    1  A    between atoms: N_3  and  C_25
REMARK    2  A    between atoms: C_18  and  O_23
REMARK    3  A    between atoms: C_25  and  N_26
REMARK                            x       y       z     vdW  Elec       q    Type
REMARK                         _______ _______ _______ _____ _____    ______ ____
ROOT
ATOM      1  O   UNL     1      32.388 -22.455 -19.288  0.00  0.00    -0.270 OA
ATOM      2  O   UNL     1      36.491 -22.858 -17.200  0.00  0.00    -0.270 OA
ATOM      3  N   UNL     1      34.632 -22.567 -18.593  0.00  0.00    -0.244 N 
ATOM      4  N   UNL     1      33.420 -23.938 -13.079  0.00  0.00    -0.353 N 
ATOM      5  C   UNL     1      31.845 -23.139 -16.381  0.00  0.00    -0.020 A 
ATOM      6  C   UNL     1      31.890 -23.477 -15.020  0.00  0.00    -0.010 A 
ATOM      7  C   UNL     1      33.021 -22.959 -17.058  0.00  0.00    +0.054 A 
ATOM      8  C   UNL     1      30.435 -23.078 -16.871  0.00  0.00    +0.027 C 
ATOM      9  C   UNL     1      30.501 -23.680 -14.483  0.00  0.00    +0.028 C 
ATOM     10  C   UNL     1      33.129 -23.613 -14.379  0.00  0.00    +0.052 A 
ATOM     11  C   UNL     1      34.252 -23.088 -16.415  0.00  0.00    +0.059 A 
ATOM     12  C   UNL     1      29.663 -22.962 -15.548  0.00  0.00    +0.009 C 
ATOM     13  C   UNL     1      34.351 -23.419 -15.050  0.00  0.00    +0.024 A 
ATOM     14  C   UNL     1      33.264 -22.626 -18.461  0.00  0.00    +0.253 C 
ATOM     15  C   UNL     1      35.293 -22.831 -17.411  0.00  0.00    +0.253 C 
ATOM     16  C   UNL     1      35.393 -23.634 -14.086  0.00  0.00    +0.051 A 
ATOM     17  C   UNL     1      34.778 -23.955 -12.872  0.00  0.00    +0.060 A 
ATOM     18  C   UNL     1      36.805 -23.592 -14.110  0.00  0.00    +0.140 C 
ATOM     19  C   UNL     1      35.493 -24.232 -11.699  0.00  0.00    +0.017 C 
ATOM     20  C   UNL     1      37.535 -23.866 -12.947  0.00  0.00    +0.037 C 
ATOM     21  C   UNL     1      36.886 -24.181 -11.758  0.00  0.00    +0.005 C 
ATOM     22  H   UNL     1      32.747 -24.133 -12.387  0.00  0.00    +0.166 HD
ENDROOT
BRANCH  18  23
ATOM     23  O   UNL     1      37.564 -23.288 -15.205  0.00  0.00    -0.471 OA
ATOM     24  C   UNL     1      38.657 -24.154 -15.491  0.00  0.00    +0.252 C 
ENDBRANCH  18  23
BRANCH   3  25
ATOM     25  C   UNL     1      35.319 -22.262 -19.834  0.00  0.00    +0.028 C 
BRANCH  25  26
ATOM     26  N   UNL     1      35.211 -20.830 -20.101  0.00  0.00    +0.396 N 
ATOM     27  N   UNL     1      35.389 -18.509 -21.816  0.00  0.00    +0.383 N 
ATOM     28  C   UNL     1      36.510 -20.274 -20.500  0.00  0.00    -0.098 C 
ATOM     29  C   UNL     1      34.202 -20.567 -21.135  0.00  0.00    -0.098 C 
ATOM     30  C   UNL     1      36.398 -18.772 -20.783  0.00  0.00    -0.101 C 
ATOM     31  C   UNL     1      34.089 -19.064 -21.416  0.00  0.00    -0.101 C 
ATOM     32  C   UNL     1      35.281 -17.075 -22.081  0.00  0.00    -0.101 C 
ATOM     33  H   UNL     1      34.916 -20.370 -19.240  0.00  0.00    -0.077 HD
ATOM     34  H   UNL     1      35.683 -18.967 -22.677  0.00  0.00    -0.080 HD
ENDBRANCH  25  26
ENDBRANCH   3  25
TORSDOF 3
ENDMDL
MODEL 3
REMARK VINA RESULT:     -11.0      2.416      6.577
REMARK  Name = 24780387
REMARK  3 active torsions:
REMARK  status: ('A' for Active; 'I' for Inactive)
REMARK    1  A    between atoms: N_3  and  C_25
REMARK    2  A    between atoms: C_18  and  O_23
REMARK    3  A    between atoms: C_25  and  N_26
REMARK                            x       y       z     vdW  Elec       q    Type
REMARK                         _______ _______ _______ _____ _____    ______ ____
ROOT
ATOM      1  O   UNL     1      32.179 -25.247 -13.014  0.00  0.00    -0.270 OA
ATOM      2  O   UNL     1      31.959 -23.674 -17.352  0.00  0.00    -0.270 OA
ATOM      3  N   UNL     1      31.683 -24.590 -15.216  0.00  0.00    -0.244 N 
ATOM      4  N   UNL     1      36.904 -22.272 -16.275  0.00  0.00    -0.353 N 
ATOM      5  C   UNL     1      34.866 -23.983 -13.640  0.00  0.00    -0.020 A 
ATOM      6  C   UNL     1      35.994 -23.365 -14.202  0.00  0.00    -0.010 A 
ATOM      7  C   UNL     1      33.738 -24.122 -14.402  0.00  0.00    +0.054 A 
ATOM      8  C   UNL     1      35.145 -24.437 -12.245  0.00  0.00    +0.027 C 
ATOM      9  C   UNL     1      37.134 -23.361 -13.222  0.00  0.00    +0.028 C 
ATOM     10  C   UNL     1      35.942 -22.893 -15.521  0.00  0.00    +0.052 A 
ATOM     11  C   UNL     1      33.688 -23.645 -15.712  0.00  0.00    +0.059 A 
ATOM     12  C   UNL     1      36.392 -23.607 -11.902  0.00  0.00    +0.009 C 
ATOM     13  C   UNL     1      34.790 -23.012 -16.320  0.00  0.00    +0.024 A 
ATOM     14  C   UNL     1      32.449 -24.733 -14.083  0.00  0.00    +0.253 C 
ATOM     15  C   UNL     1      32.356 -23.948 -16.236  0.00  0.00    +0.253 C 
ATOM     16  C   UNL     1      35.103 -22.421 -17.591  0.00  0.00    +0.051 A 
ATOM     17  C   UNL     1      36.425 -21.971 -17.527  0.00  0.00    +0.060 A 
ATOM     18  C   UNL     1      34.402 -22.217 -18.800  0.00  0.00    +0.140 C 
ATOM     19  C   UNL     1      37.072 -21.338 -18.596  0.00  0.00    +0.017 C 
ATOM     20  C   UNL     1      35.034 -21.584 -19.878  0.00  0.00    +0.037 C 
ATOM     21  C   UNL     1      36.352 -21.151 -19.775  0.00  0.00    +0.005 C 
ATOM     22  H   UNL     1      37.815 -22.067 -15.962  0.00  0.00    +0.166 HD
ENDROOT
BRANCH  18  23
ATOM     23  O   UNL     1      33.106 -22.584 -19.030  0.00  0.00    -0.471 OA
ATOM     24  C   UNL     1      32.299 -21.671 -19.767  0.00  0.00    +0.252 C 
ENDBRANCH  18  23
BRANCH   3  25
ATOM     25  C   UNL     1      30.316 -25.059 -15.341  0.00  0.00    +0.028 C 
BRANCH  25  26
ATOM     26  N   UNL     1      29.521 -24.038 -16.019  0.00  0.00    +0.396 N 
ATOM     27  N   UNL     1      27.035 -22.690 -16.624  0.00  0.00    +0.383 N 
ATOM     28  C   UNL     1      28.510 -24.656 -16.887  0.00  0.00    -0.098 C 
ATOM     29  C   UNL     1      28.882 -23.143 -15.046  0.00  0.00    -0.098 C 
ATOM     30  C   UNL     1      27.673 -23.586 -17.597  0.00  0.00    -0.101 C 
ATOM     31  C   UNL     1      28.046 -22.073 -15.756  0.00  0.00    -0.101 C 
ATOM     32  C   UNL     1      26.241 -21.669 -17.304  0.00  0.00    -0.101 C 
ATOM     33  H   UNL     1      30.148 -23.485 -16.601  0.00  0.00    -0.077 HD
ATOM     34  H   UNL     1      26.407 -23.243 -16.043  0.00  0.00    -0.080 HD
ENDBRANCH  25  26
ENDBRANCH   3  25
TORSDOF 3
ENDMDL
MODEL 4
REMARK VINA RESULT:     -10.0     10.450     14.647
REMARK  Name = 24780387
REMARK  3 active torsions:
REMARK  status: ('A' for Active; 'I' for Inactive)
REMARK    1  A    between atoms: N_3  and  C_25
REMARK    2  A    between atoms: C_18  and  O_23
REMARK    3  A    between atoms: C_25  and  N_26
REMARK                            x       y       z     vdW  Elec       q    Type
REMARK                         _______ _______ _______ _____ _____    ______ ____
ROOT
ATOM      1  O   UNL     1      34.590 -13.032 -27.290  0.00  0.00    -0.270 OA
ATOM      2  O   UNL     1      32.293 -13.854 -23.366  0.00  0.00    -0.270 OA
ATOM      3  N   UNL     1      33.416 -13.840 -25.420  0.00  0.00    -0.244 N 
ATOM      4  N   UNL     1      32.962  -8.677 -22.796  0.00  0.00    -0.353 N 
ATOM      5  C   UNL     1      34.338 -10.381 -25.833  0.00  0.00    -0.020 A 
ATOM      6  C   UNL     1      34.058  -9.313 -24.968  0.00  0.00    -0.010 A 
ATOM      7  C   UNL     1      33.902 -11.635 -25.500  0.00  0.00    +0.054 A 
ATOM      8  C   UNL     1      35.065  -9.907 -27.048  0.00  0.00    +0.027 C 
ATOM      9  C   UNL     1      34.573  -8.023 -25.540  0.00  0.00    +0.028 C 
ATOM     10  C   UNL     1      33.352  -9.549 -23.779  0.00  0.00    +0.052 A 
ATOM     11  C   UNL     1      33.207 -11.867 -24.314  0.00  0.00    +0.059 A 
ATOM     12  C   UNL     1      35.580  -8.540 -26.576  0.00  0.00    +0.009 C 
ATOM     13  C   UNL     1      32.906 -10.831 -23.409  0.00  0.00    +0.024 A 
ATOM     14  C   UNL     1      34.035 -12.904 -26.214  0.00  0.00    +0.253 C 
ATOM     15  C   UNL     1      32.895 -13.296 -24.264  0.00  0.00    +0.253 C 
ATOM     16  C   UNL     1      32.236 -10.689 -22.146  0.00  0.00    +0.051 A 
ATOM     17  C   UNL     1      32.290  -9.337 -21.796  0.00  0.00    +0.060 A 
ATOM     18  C   UNL     1      31.583 -11.568 -21.255  0.00  0.00    +0.140 C 
ATOM     19  C   UNL     1      31.731  -8.828 -20.616  0.00  0.00    +0.017 C 
ATOM     20  C   UNL     1      31.020 -11.076 -20.070  0.00  0.00    +0.037 C 
ATOM     21  C   UNL     1      31.094  -9.723 -19.757  0.00  0.00    +0.005 C 
ATOM     22  H   UNL     1      33.139  -7.708 -22.804  0.00  0.00    +0.166 HD
ENDROOT
BRANCH  18  23
ATOM     23  O   UNL     1      31.448 -12.916 -21.437  0.00  0.00    -0.471 OA
ATOM     24  C   UNL     1      31.800 -13.753 -20.339  0.00  0.00    +0.252 C 
ENDBRANCH  18  23
BRANCH   3  25
ATOM     25  C   UNL     1      33.313 -15.249 -25.749  0.00  0.00    +0.028 C 
BRANCH  25  26
ATOM     26  N   UNL     1      33.728 -16.042 -24.594  0.00  0.00    +0.396 N 
ATOM     27  N   UNL     1      35.546 -17.805 -23.198  0.00  0.00    +0.383 N 
ATOM     28  C   UNL     1      33.834 -17.463 -24.947  0.00  0.00    -0.098 C 
ATOM     29  C   UNL     1      35.003 -15.551 -24.056  0.00  0.00    -0.098 C 
ATOM     30  C   UNL     1      34.272 -18.295 -23.737  0.00  0.00    -0.101 C 
ATOM     31  C   UNL     1      35.440 -16.383 -22.845  0.00  0.00    -0.101 C 
ATOM     32  C   UNL     1      35.959 -18.597 -22.042  0.00  0.00    -0.101 C 
ATOM     33  H   UNL     1      33.015 -15.943 -23.871  0.00  0.00    -0.077 HD
ATOM     34  H   UNL     1      36.259 -17.904 -23.919  0.00  0.00    -0.080 HD
ENDBRANCH  25  26
ENDBRANCH   3  25
TORSDOF 3
ENDMDL
MODEL 5
REMARK VINA RESULT:      -9.8     11.536     14.959
REMARK  Name = 24780387
REMARK  3 active torsions:
REMARK  status: ('A' for Active; 'I' for Inactive)
REMARK    1  A    between atoms: N_3  and  C_25
REMARK    2  A    between atoms: C_18  and  O_23
REMARK    3  A    between atoms: C_25  and  N_26
REMARK                            x       y       z     vdW  Elec       q    Type
REMARK                         _______ _______ _______ _____ _____    ______ ____
ROOT
ATOM      1  O   UNL     1      31.924 -13.765 -22.362  0.00  0.00    -0.270 OA
ATOM      2  O   UNL     1      33.930 -11.209 -25.646  0.00  0.00    -0.270 OA
ATOM      3  N   UNL     1      32.990 -12.819 -24.232  0.00  0.00    -0.244 N 
ATOM      4  N   UNL     1      32.821  -7.362 -22.248  0.00  0.00    -0.353 N 
ATOM      5  C   UNL     1      31.846 -10.880 -21.419  0.00  0.00    -0.020 A 
ATOM      6  C   UNL     1      31.968  -9.496 -21.229  0.00  0.00    -0.010 A 
ATOM      7  C   UNL     1      32.346 -11.439 -22.564  0.00  0.00    +0.054 A 
ATOM      8  C   UNL     1      31.192 -11.526 -20.241  0.00  0.00    +0.027 C 
ATOM      9  C   UNL     1      31.406  -9.096 -19.893  0.00  0.00    +0.028 C 
ATOM     10  C   UNL     1      32.585  -8.712 -22.214  0.00  0.00    +0.052 A 
ATOM     11  C   UNL     1      32.952 -10.655 -23.545  0.00  0.00    +0.059 A 
ATOM     12  C   UNL     1      30.535 -10.315 -19.561  0.00  0.00    +0.009 C 
ATOM     13  C   UNL     1      33.093  -9.261 -23.405  0.00  0.00    +0.024 A 
ATOM     14  C   UNL     1      32.372 -12.833 -23.004  0.00  0.00    +0.253 C 
ATOM     15  C   UNL     1      33.367 -11.551 -24.625  0.00  0.00    +0.253 C 
ATOM     16  C   UNL     1      33.640  -8.171 -24.165  0.00  0.00    +0.051 A 
ATOM     17  C   UNL     1      33.452  -7.006 -23.415  0.00  0.00    +0.060 A 
ATOM     18  C   UNL     1      34.279  -8.044 -25.418  0.00  0.00    +0.140 C 
ATOM     19  C   UNL     1      33.867  -5.740 -23.849  0.00  0.00    +0.017 C 
ATOM     20  C   UNL     1      34.699  -6.786 -25.867  0.00  0.00    +0.037 C 
ATOM     21  C   UNL     1      34.494  -5.650 -25.091  0.00  0.00    +0.005 C 
ATOM     22  H   UNL     1      32.571  -6.731 -21.534  0.00  0.00    +0.166 HD
ENDROOT
BRANCH  18  23
ATOM     23  O   UNL     1      34.531  -9.075 -26.279  0.00  0.00    -0.471 OA
ATOM     24  C   UNL     1      35.763  -9.029 -26.994  0.00  0.00    +0.252 C 
ENDBRANCH  18  23
BRANCH   3  25
ATOM     25  C   UNL     1      33.229 -14.002 -25.038  0.00  0.00    +0.028 C 
BRANCH  25  26
ATOM     26  N   UNL     1      33.585 -15.115 -24.161  0.00  0.00    +0.396 N 
ATOM     27  N   UNL     1      35.425 -17.085 -23.115  0.00  0.00    +0.383 N 
ATOM     28  C   UNL     1      33.963 -16.297 -24.945  0.00  0.00    -0.098 C 
ATOM     29  C   UNL     1      34.672 -14.735 -23.250  0.00  0.00    -0.098 C 
ATOM     30  C   UNL     1      34.339 -17.465 -24.026  0.00  0.00    -0.101 C 
ATOM     31  C   UNL     1      35.046 -15.903 -22.331  0.00  0.00    -0.101 C 
ATOM     32  C   UNL     1      35.778 -18.199 -22.237  0.00  0.00    -0.101 C 
ATOM     33  H   UNL     1      32.765 -15.350 -23.602  0.00  0.00    -0.077 HD
ATOM     34  H   UNL     1      36.245 -16.851 -23.673  0.00  0.00    -0.080 HD
ENDBRANCH  25  26
ENDBRANCH   3  25
TORSDOF 3
ENDMDL
MODEL 6
REMARK VINA RESULT:      -9.8      2.215      7.306
REMARK  Name = 24780387
REMARK  3 active torsions:
REMARK  status: ('A' for Active; 'I' for Inactive)
REMARK    1  A    between atoms: N_3  and  C_25
REMARK    2  A    between atoms: C_18  and  O_23
REMARK    3  A    between atoms: C_25  and  N_26
REMARK                            x       y       z     vdW  Elec       q    Type
REMARK                         _______ _______ _______ _____ _____    ______ ____
ROOT
ATOM      1  O   UNL     1      31.505 -22.880 -17.647  0.00  0.00    -0.270 OA
ATOM      2  O   UNL     1      33.492 -24.946 -14.023  0.00  0.00    -0.270 OA
ATOM      3  N   UNL     1      32.133 -24.028 -15.694  0.00  0.00    -0.244 N 
ATOM      4  N   UNL     1      37.839 -23.174 -16.376  0.00  0.00    -0.353 N 
ATOM      5  C   UNL     1      34.504 -22.511 -17.944  0.00  0.00    -0.020 A 
ATOM      6  C   UNL     1      35.900 -22.473 -17.815  0.00  0.00    -0.010 A 
ATOM      7  C   UNL     1      33.766 -23.142 -16.979  0.00  0.00    +0.054 A 
ATOM      8  C   UNL     1      34.059 -21.772 -19.164  0.00  0.00    +0.027 C 
ATOM      9  C   UNL     1      36.512 -21.692 -18.945  0.00  0.00    +0.028 C 
ATOM     10  C   UNL     1      36.513 -23.087 -16.714  0.00  0.00    +0.052 A 
ATOM     11  C   UNL     1      34.380 -23.758 -15.888  0.00  0.00    +0.059 A 
ATOM     12  C   UNL     1      35.367 -21.704 -19.967  0.00  0.00    +0.009 C 
ATOM     13  C   UNL     1      35.777 -23.753 -15.717  0.00  0.00    +0.024 A 
ATOM     14  C   UNL     1      32.320 -23.312 -16.853  0.00  0.00    +0.253 C 
ATOM     15  C   UNL     1      33.320 -24.332 -15.059  0.00  0.00    +0.253 C 
ATOM     16  C   UNL     1      36.729 -24.255 -14.765  0.00  0.00    +0.051 A 
ATOM     17  C   UNL     1      38.000 -23.876 -15.207  0.00  0.00    +0.060 A 
ATOM     18  C   UNL     1      36.650 -24.996 -13.565  0.00  0.00    +0.140 C 
ATOM     19  C   UNL     1      39.178 -24.196 -14.519  0.00  0.00    +0.017 C 
ATOM     20  C   UNL     1      37.818 -25.325 -12.865  0.00  0.00    +0.037 C 
ATOM     21  C   UNL     1      39.065 -24.929 -13.338  0.00  0.00    +0.005 C 
ATOM     22  H   UNL     1      38.577 -22.786 -16.901  0.00  0.00    +0.166 HD
ENDROOT
BRANCH  18  23
ATOM     23  O   UNL     1      35.493 -25.453 -12.998  0.00  0.00    -0.471 OA
ATOM     24  C   UNL     1      35.262 -25.104 -11.636  0.00  0.00    +0.252 C 
ENDBRANCH  18  23
BRANCH   3  25
ATOM     25  C   UNL     1      30.836 -24.425 -15.180  0.00  0.00    +0.028 C 
BRANCH  25  26
ATOM     26  N   UNL     1      29.796 -23.660 -15.864  0.00  0.00    +0.396 N 
ATOM     27  N   UNL     1      27.054 -22.847 -16.291  0.00  0.00    +0.383 N 
ATOM     28  C   UNL     1      28.826 -24.556 -16.506  0.00  0.00    -0.098 C 
ATOM     29  C   UNL     1      29.116 -22.752 -14.932  0.00  0.00    -0.098 C 
ATOM     30  C   UNL     1      27.733 -23.755 -17.223  0.00  0.00    -0.101 C 
ATOM     31  C   UNL     1      28.024 -21.951 -15.649  0.00  0.00    -0.101 C 
ATOM     32  C   UNL     1      26.015 -22.082 -16.977  0.00  0.00    -0.101 C 
ATOM     33  H   UNL     1      30.243 -23.099 -16.590  0.00  0.00    -0.077 HD
ATOM     34  H   UNL     1      26.606 -23.407 -15.566  0.00  0.00    -0.080 HD
ENDBRANCH  25  26
ENDBRANCH   3  25
TORSDOF 3
ENDMDL
MODEL 7
REMARK VINA RESULT:      -9.4     13.884     18.069
REMARK  Name = 24780387
REMARK  3 active torsions:
REMARK  status: ('A' for Active; 'I' for Inactive)
REMARK    1  A    between atoms: N_3  and  C_25
REMARK    2  A    between atoms: C_18  and  O_23
REMARK    3  A    between atoms: C_25  and  N_26
REMARK                            x       y       z     vdW  Elec       q    Type
REMARK                         _______ _______ _______ _____ _____    ______ ____
ROOT
ATOM      1  O   UNL     1      32.641  -6.327 -22.209  0.00  0.00    -0.270 OA
ATOM      2  O   UNL     1      34.069  -8.969 -25.720  0.00  0.00    -0.270 OA
ATOM      3  N   UNL     1      33.478  -7.317 -24.170  0.00  0.00    -0.244 N 
ATOM      4  N   UNL     1      32.286 -12.774 -22.570  0.00  0.00    -0.353 N 
ATOM      5  C   UNL     1      32.086  -9.210 -21.438  0.00  0.00    -0.020 A 
ATOM      6  C   UNL     1      31.925 -10.601 -21.357  0.00  0.00    -0.010 A 
ATOM      7  C   UNL     1      32.642  -8.672 -22.567  0.00  0.00    +0.054 A 
ATOM      8  C   UNL     1      31.546  -8.538 -20.219  0.00  0.00    +0.027 C 
ATOM      9  C   UNL     1      31.252 -10.979 -20.067  0.00  0.00    +0.028 C 
ATOM     10  C   UNL     1      32.345 -11.412 -22.421  0.00  0.00    +0.052 A 
ATOM     11  C   UNL     1      33.065  -9.482 -23.621  0.00  0.00    +0.059 A 
ATOM     12  C   UNL     1      31.481  -9.712 -19.231  0.00  0.00    +0.009 C 
ATOM     13  C   UNL     1      32.932 -10.883 -23.585  0.00  0.00    +0.024 A 
ATOM     14  C   UNL     1      32.905  -7.278 -22.921  0.00  0.00    +0.253 C 
ATOM     15  C   UNL     1      33.607  -8.602 -24.657  0.00  0.00    +0.253 C 
ATOM     16  C   UNL     1      33.234 -11.997 -24.441  0.00  0.00    +0.051 A 
ATOM     17  C   UNL     1      32.819 -13.156 -23.777  0.00  0.00    +0.060 A 
ATOM     18  C   UNL     1      33.818 -12.151 -25.717  0.00  0.00    +0.140 C 
ATOM     19  C   UNL     1      32.957 -14.441 -24.319  0.00  0.00    +0.017 C 
ATOM     20  C   UNL     1      33.965 -13.428 -26.273  0.00  0.00    +0.037 C 
ATOM     21  C   UNL     1      33.539 -14.557 -25.581  0.00  0.00    +0.005 C 
ATOM     22  H   UNL     1      31.914 -13.395 -21.903  0.00  0.00    +0.166 HD
ENDROOT
BRANCH  18  23
ATOM     23  O   UNL     1      34.286 -11.129 -26.496  0.00  0.00    -0.471 OA
ATOM     24  C   UNL     1      34.950 -11.492 -27.703  0.00  0.00    +0.252 C 
ENDBRANCH  18  23
BRANCH   3  25
ATOM     25  C   UNL     1      33.904  -6.144 -24.910  0.00  0.00    +0.028 C 
BRANCH  25  26
ATOM     26  N   UNL     1      32.919  -5.080 -24.727  0.00  0.00    +0.396 N 
ATOM     27  N   UNL     1      31.026  -3.126 -25.704  0.00  0.00    +0.383 N 
ATOM     28  C   UNL     1      33.368  -3.838 -25.368  0.00  0.00    -0.098 C 
ATOM     29  C   UNL     1      31.610  -5.485 -25.253  0.00  0.00    -0.098 C 
ATOM     30  C   UNL     1      32.335  -2.722 -25.179  0.00  0.00    -0.101 C 
ATOM     31  C   UNL     1      30.577  -4.368 -25.062  0.00  0.00    -0.101 C 
ATOM     32  C   UNL     1      30.042  -2.061 -25.519  0.00  0.00    -0.101 C 
ATOM     33  H   UNL     1      32.824  -4.908 -23.726  0.00  0.00    -0.077 HD
ATOM     34  H   UNL     1      31.120  -3.297 -26.704  0.00  0.00    -0.080 HD
ENDBRANCH  25  26
ENDBRANCH   3  25
TORSDOF 3
ENDMDL
