MODEL 1
REMARK VINA RESULT:     -12.6      0.000      0.000
REMARK  Name = 11282283
REMARK  4 active torsions:
REMARK  status: ('A' for Active; 'I' for Inactive)
REMARK    1  A    between atoms: N_3  and  C_21
REMARK    2  A    between atoms: C_21  and  N_22
REMARK    3  A    between atoms: N_22  and  C_24
REMARK    4  A    between atoms: C_24  and  C_27
REMARK                            x       y       z     vdW  Elec       q    Type
REMARK                         _______ _______ _______ _____ _____    ______ ____
ROOT
ATOM      1  O   UNL     1      32.705 -11.712 -22.512  0.00  0.00    -0.466 OA
ATOM      2  N   UNL     1      33.898 -13.610 -24.417  0.00  0.00    -0.290 N 
ATOM      3  N   UNL     1      34.309 -16.402 -23.848  0.00  0.00    -0.288 N 
ATOM      4  N   UNL     1      34.060 -11.732 -25.885  0.00  0.00    -0.230 NA
ATOM      5  N   UNL     1      33.288  -9.511 -25.225  0.00  0.00    -0.245 NA
ATOM      6  C   UNL     1      33.863 -14.608 -25.491  0.00  0.00    +0.113 C 
ATOM      7  C   UNL     1      34.147 -14.068 -23.045  0.00  0.00    +0.113 C 
ATOM      8  C   UNL     1      33.454 -15.975 -24.945  0.00  0.00    +0.114 C 
ATOM      9  C   UNL     1      34.948 -15.369 -23.047  0.00  0.00    +0.114 C 
ATOM     10  C   UNL     1      33.703 -12.258 -24.693  0.00  0.00    +0.152 C 
ATOM     11  C   UNL     1      33.136 -11.411 -23.763  0.00  0.00    +0.258 C 
ATOM     12  C   UNL     1      32.940 -10.065 -24.038  0.00  0.00    +0.106 C 
ATOM     13  C   UNL     1      32.347  -9.501 -22.879  0.00  0.00    +0.051 C 
ATOM     14  C   UNL     1      32.224 -10.554 -21.972  0.00  0.00    +0.141 C 
ATOM     15  C   UNL     1      33.834 -10.409 -26.075  0.00  0.00    +0.251 C 
ATOM     16  C   UNL     1      31.901  -8.226 -22.492  0.00  0.00    +0.004 C 
ATOM     17  C   UNL     1      31.682 -10.420 -20.695  0.00  0.00    +0.037 C 
ATOM     18  C   UNL     1      31.352  -8.063 -21.213  0.00  0.00    +0.000 C 
ATOM     19  C   UNL     1      31.245  -9.143 -20.333  0.00  0.00    +0.003 C 
ENDROOT
BRANCH   3  21
ATOM     20  S   UNL     1      34.157 -18.892 -24.722  0.00  0.00    -0.019 S 
ATOM     21  C   UNL     1      34.503 -17.718 -23.582  0.00  0.00    +0.135 C 
BRANCH  21  22
ATOM     22  N   UNL     1      34.996 -18.053 -22.346  0.00  0.00    -0.312 N 
ATOM     23  H   UNL     1      34.918 -17.376 -21.636  0.00  0.00    +0.149 HD
BRANCH  22  24
ATOM     24  C   UNL     1      35.620 -19.312 -21.988  0.00  0.00    +0.116 C 
BRANCH  24  27
ATOM     25  O   UNL     1      34.813 -22.775 -18.563  0.00  0.00    -0.435 OA
ATOM     26  O   UNL     1      32.422 -22.497 -18.678  0.00  0.00    -0.435 OA
ATOM     27  C   UNL     1      34.733 -20.150 -21.114  0.00  0.00    +0.001 C 
ATOM     28  C   UNL     1      35.303 -21.077 -20.248  0.00  0.00    +0.038 C 
ATOM     29  C   UNL     1      33.343 -19.982 -21.186  0.00  0.00    +0.001 C 
ATOM     30  C   UNL     1      34.447 -21.823 -19.464  0.00  0.00    +0.176 C 
ATOM     31  C   UNL     1      33.081 -21.664 -19.530  0.00  0.00    +0.176 C 
ATOM     32  C   UNL     1      32.497 -20.750 -20.383  0.00  0.00    +0.040 C 
ATOM     33  C   UNL     1      33.525 -23.197 -18.068  0.00  0.00    +0.429 C 
ENDBRANCH  24  27
ENDBRANCH  22  24
ENDBRANCH  21  22
ENDBRANCH   3  21
TORSDOF 4
ENDMDL
MODEL 2
REMARK VINA RESULT:     -12.5      1.813      2.806
REMARK  Name = 11282283
REMARK  4 active torsions:
REMARK  status: ('A' for Active; 'I' for Inactive)
REMARK    1  A    between atoms: N_3  and  C_21
REMARK    2  A    between atoms: C_21  and  N_22
REMARK    3  A    between atoms: N_22  and  C_24
REMARK    4  A    between atoms: C_24  and  C_27
REMARK                            x       y       z     vdW  Elec       q    Type
REMARK                         _______ _______ _______ _____ _____    ______ ____
ROOT
ATOM      1  O   UNL     1      33.956 -10.437 -24.007  0.00  0.00    -0.466 OA
ATOM      2  N   UNL     1      32.990 -12.893 -22.707  0.00  0.00    -0.290 N 
ATOM      3  N   UNL     1      34.197 -15.480 -23.077  0.00  0.00    -0.288 N 
ATOM      4  N   UNL     1      31.327 -11.485 -21.725  0.00  0.00    -0.230 NA
ATOM      5  N   UNL     1      31.235  -9.088 -22.184  0.00  0.00    -0.245 NA
ATOM      6  C   UNL     1      32.949 -13.900 -21.641  0.00  0.00    +0.113 C 
ATOM      7  C   UNL     1      33.661 -13.235 -23.966  0.00  0.00    +0.113 C 
ATOM      8  C   UNL     1      34.129 -14.862 -21.761  0.00  0.00    +0.114 C 
ATOM      9  C   UNL     1      33.636 -14.744 -24.199  0.00  0.00    +0.114 C 
ATOM     10  C   UNL     1      32.402 -11.642 -22.529  0.00  0.00    +0.152 C 
ATOM     11  C   UNL     1      32.897 -10.521 -23.162  0.00  0.00    +0.258 C 
ATOM     12  C   UNL     1      32.313  -9.274 -22.983  0.00  0.00    +0.106 C 
ATOM     13  C   UNL     1      33.064  -8.364 -23.770  0.00  0.00    +0.051 C 
ATOM     14  C   UNL     1      34.060  -9.127 -24.378  0.00  0.00    +0.141 C 
ATOM     15  C   UNL     1      30.817 -10.236 -21.604  0.00  0.00    +0.251 C 
ATOM     16  C   UNL     1      33.017  -6.985 -24.039  0.00  0.00    +0.004 C 
ATOM     17  C   UNL     1      35.022  -8.606 -25.243  0.00  0.00    +0.037 C 
ATOM     18  C   UNL     1      33.971  -6.434 -24.905  0.00  0.00    +0.000 C 
ATOM     19  C   UNL     1      34.954  -7.232 -25.495  0.00  0.00    +0.003 C 
ENDROOT
BRANCH   3  21
ATOM     20  S   UNL     1      34.814 -17.426 -24.757  0.00  0.00    -0.019 S 
ATOM     21  C   UNL     1      34.765 -16.700 -23.250  0.00  0.00    +0.135 C 
BRANCH  21  22
ATOM     22  N   UNL     1      35.301 -17.316 -22.147  0.00  0.00    -0.312 N 
ATOM     23  H   UNL     1      35.307 -16.803 -21.308  0.00  0.00    +0.149 HD
BRANCH  22  24
ATOM     24  C   UNL     1      35.856 -18.655 -22.104  0.00  0.00    +0.116 C 
BRANCH  24  27
ATOM     25  O   UNL     1      35.057 -22.415 -19.006  0.00  0.00    -0.435 OA
ATOM     26  O   UNL     1      32.665 -22.261 -19.251  0.00  0.00    -0.435 OA
ATOM     27  C   UNL     1      34.970 -19.606 -21.353  0.00  0.00    +0.001 C 
ATOM     28  C   UNL     1      35.543 -20.566 -20.524  0.00  0.00    +0.038 C 
ATOM     29  C   UNL     1      33.580 -19.510 -21.501  0.00  0.00    +0.001 C 
ATOM     30  C   UNL     1      34.688 -21.417 -19.855  0.00  0.00    +0.176 C 
ATOM     31  C   UNL     1      33.322 -21.329 -19.994  0.00  0.00    +0.176 C 
ATOM     32  C   UNL     1      32.736 -20.384 -20.812  0.00  0.00    +0.040 C 
ATOM     33  C   UNL     1      33.770 -22.944 -18.627  0.00  0.00    +0.429 C 
ENDBRANCH  24  27
ENDBRANCH  22  24
ENDBRANCH  21  22
ENDBRANCH   3  21
TORSDOF 4
ENDMDL
MODEL 3
REMARK VINA RESULT:     -10.9      4.500     11.878
REMARK  Name = 11282283
REMARK  4 active torsions:
REMARK  status: ('A' for Active; 'I' for Inactive)
REMARK    1  A    between atoms: N_3  and  C_21
REMARK    2  A    between atoms: C_21  and  N_22
REMARK    3  A    between atoms: N_22  and  C_24
REMARK    4  A    between atoms: C_24  and  C_27
REMARK                            x       y       z     vdW  Elec       q    Type
REMARK                         _______ _______ _______ _____ _____    ______ ____
ROOT
ATOM      1  O   UNL     1      32.974 -23.018 -16.509  0.00  0.00    -0.466 OA
ATOM      2  N   UNL     1      35.570 -22.435 -17.766  0.00  0.00    -0.290 N 
ATOM      3  N   UNL     1      35.893 -20.695 -20.037  0.00  0.00    -0.288 N 
ATOM      4  N   UNL     1      36.480 -23.893 -16.105  0.00  0.00    -0.230 NA
ATOM      5  N   UNL     1      35.069 -24.985 -14.437  0.00  0.00    -0.245 NA
ATOM      6  C   UNL     1      36.808 -21.672 -17.957  0.00  0.00    +0.113 C 
ATOM      7  C   UNL     1      34.500 -22.291 -18.759  0.00  0.00    +0.113 C 
ATOM      8  C   UNL     1      36.542 -20.405 -18.767  0.00  0.00    +0.114 C 
ATOM      9  C   UNL     1      35.074 -21.895 -20.118  0.00  0.00    +0.114 C 
ATOM     10  C   UNL     1      35.415 -23.280 -16.668  0.00  0.00    +0.152 C 
ATOM     11  C   UNL     1      34.174 -23.518 -16.116  0.00  0.00    +0.258 C 
ATOM     12  C   UNL     1      34.019 -24.357 -15.022  0.00  0.00    +0.106 C 
ATOM     13  C   UNL     1      32.633 -24.374 -14.722  0.00  0.00    +0.051 C 
ATOM     14  C   UNL     1      32.036 -23.536 -15.664  0.00  0.00    +0.141 C 
ATOM     15  C   UNL     1      36.245 -24.696 -15.040  0.00  0.00    +0.251 C 
ATOM     16  C   UNL     1      31.815 -25.000 -13.766  0.00  0.00    +0.004 C 
ATOM     17  C   UNL     1      30.667 -23.277 -15.717  0.00  0.00    +0.037 C 
ATOM     18  C   UNL     1      30.435 -24.757 -13.797  0.00  0.00    +0.000 C 
ATOM     19  C   UNL     1      29.874 -23.910 -14.756  0.00  0.00    +0.003 C 
ENDROOT
BRANCH   3  21
ATOM     20  S   UNL     1      37.502 -19.104 -21.403  0.00  0.00    -0.019 S 
ATOM     21  C   UNL     1      36.047 -19.876 -21.107  0.00  0.00    +0.135 C 
BRANCH  21  22
ATOM     22  N   UNL     1      34.969 -19.704 -21.939  0.00  0.00    -0.312 N 
ATOM     23  H   UNL     1      34.077 -19.834 -21.546  0.00  0.00    +0.149 HD
BRANCH  22  24
ATOM     24  C   UNL     1      35.024 -19.348 -23.343  0.00  0.00    +0.116 C 
BRANCH  24  27
ATOM     25  O   UNL     1      33.520 -15.523 -26.079  0.00  0.00    -0.435 OA
ATOM     26  O   UNL     1      33.903 -13.948 -24.296  0.00  0.00    -0.435 OA
ATOM     27  C   UNL     1      34.734 -17.892 -23.565  0.00  0.00    +0.001 C 
ATOM     28  C   UNL     1      34.247 -17.470 -24.798  0.00  0.00    +0.038 C 
ATOM     29  C   UNL     1      34.959 -16.981 -22.523  0.00  0.00    +0.001 C 
ATOM     30  C   UNL     1      33.994 -16.123 -24.953  0.00  0.00    +0.176 C 
ATOM     31  C   UNL     1      34.213 -15.223 -23.935  0.00  0.00    +0.176 C 
ATOM     32  C   UNL     1      34.696 -15.622 -22.705  0.00  0.00    +0.040 C 
ATOM     33  C   UNL     1      33.463 -14.146 -25.655  0.00  0.00    +0.429 C 
ENDBRANCH  24  27
ENDBRANCH  22  24
ENDBRANCH  21  22
ENDBRANCH   3  21
TORSDOF 4
ENDMDL
MODEL 4
REMARK VINA RESULT:     -10.9      1.608      3.128
REMARK  Name = 11282283
REMARK  4 active torsions:
REMARK  status: ('A' for Active; 'I' for Inactive)
REMARK    1  A    between atoms: N_3  and  C_21
REMARK    2  A    between atoms: C_21  and  N_22
REMARK    3  A    between atoms: N_22  and  C_24
REMARK    4  A    between atoms: C_24  and  C_27
REMARK                            x       y       z     vdW  Elec       q    Type
REMARK                         _______ _______ _______ _____ _____    ______ ____
ROOT
ATOM      1  O   UNL     1      34.492 -11.436 -24.488  0.00  0.00    -0.466 OA
ATOM      2  N   UNL     1      33.357 -13.593 -22.840  0.00  0.00    -0.290 N 
ATOM      3  N   UNL     1      34.312 -16.308 -22.880  0.00  0.00    -0.288 N 
ATOM      4  N   UNL     1      31.864 -11.915 -22.021  0.00  0.00    -0.230 NA
ATOM      5  N   UNL     1      31.972  -9.604 -22.802  0.00  0.00    -0.245 NA
ATOM      6  C   UNL     1      33.265 -14.439 -21.645  0.00  0.00    +0.113 C 
ATOM      7  C   UNL     1      33.948 -14.162 -24.056  0.00  0.00    +0.113 C 
ATOM      8  C   UNL     1      34.348 -15.515 -21.661  0.00  0.00    +0.114 C 
ATOM      9  C   UNL     1      33.778 -15.680 -24.079  0.00  0.00    +0.114 C 
ATOM     10  C   UNL     1      32.891 -12.279 -22.821  0.00  0.00    +0.152 C 
ATOM     11  C   UNL     1      33.461 -11.305 -23.614  0.00  0.00    +0.258 C 
ATOM     12  C   UNL     1      32.999  -9.997 -23.594  0.00  0.00    +0.106 C 
ATOM     13  C   UNL     1      33.799  -9.275 -24.517  0.00  0.00    +0.051 C 
ATOM     14  C   UNL     1      34.700 -10.203 -25.038  0.00  0.00    +0.141 C 
ATOM     15  C   UNL     1      31.474 -10.619 -22.060  0.00  0.00    +0.251 C 
ATOM     16  C   UNL     1      33.866  -7.947 -24.971  0.00  0.00    +0.004 C 
ATOM     17  C   UNL     1      35.671  -9.896 -25.989  0.00  0.00    +0.037 C 
ATOM     18  C   UNL     1      34.834  -7.610 -25.928  0.00  0.00    +0.000 C 
ATOM     19  C   UNL     1      35.719  -8.569 -26.426  0.00  0.00    +0.003 C 
ENDROOT
BRANCH   3  21
ATOM     20  S   UNL     1      34.446 -18.598 -24.195  0.00  0.00    -0.019 S 
ATOM     21  C   UNL     1      34.761 -17.588 -22.898  0.00  0.00    +0.135 C 
BRANCH  21  22
ATOM     22  N   UNL     1      35.484 -18.026 -21.817  0.00  0.00    -0.312 N 
ATOM     23  H   UNL     1      35.424 -17.490 -20.994  0.00  0.00    +0.149 HD
BRANCH  22  24
ATOM     24  C   UNL     1      36.327 -19.204 -21.776  0.00  0.00    +0.116 C 
BRANCH  24  27
ATOM     25  O   UNL     1      32.745 -21.765 -19.541  0.00  0.00    -0.435 OA
ATOM     26  O   UNL     1      34.310 -22.975 -18.165  0.00  0.00    -0.435 OA
ATOM     27  C   UNL     1      35.820 -20.223 -20.797  0.00  0.00    +0.001 C 
ATOM     28  C   UNL     1      34.452 -20.456 -20.697  0.00  0.00    +0.038 C 
ATOM     29  C   UNL     1      36.736 -20.924 -20.000  0.00  0.00    +0.001 C 
ATOM     30  C   UNL     1      34.034 -21.402 -19.783  0.00  0.00    +0.176 C 
ATOM     31  C   UNL     1      34.928 -22.093 -18.997  0.00  0.00    +0.176 C 
ATOM     32  C   UNL     1      36.288 -21.876 -19.082  0.00  0.00    +0.040 C 
ATOM     33  C   UNL     1      32.928 -22.763 -18.516  0.00  0.00    +0.429 C 
ENDBRANCH  24  27
ENDBRANCH  22  24
ENDBRANCH  21  22
ENDBRANCH   3  21
TORSDOF 4
ENDMDL
MODEL 5
REMARK VINA RESULT:     -10.4      3.863     11.053
REMARK  Name = 11282283
REMARK  4 active torsions:
REMARK  status: ('A' for Active; 'I' for Inactive)
REMARK    1  A    between atoms: N_3  and  C_21
REMARK    2  A    between atoms: C_21  and  N_22
REMARK    3  A    between atoms: N_22  and  C_24
REMARK    4  A    between atoms: C_24  and  C_27
REMARK                            x       y       z     vdW  Elec       q    Type
REMARK                         _______ _______ _______ _____ _____    ______ ____
ROOT
ATOM      1  O   UNL     1      34.008 -14.862 -22.438  0.00  0.00    -0.466 OA
ATOM      2  N   UNL     1      32.859 -12.398 -23.563  0.00  0.00    -0.290 N 
ATOM      3  N   UNL     1      32.048 -10.140 -21.973  0.00  0.00    -0.288 N 
ATOM      4  N   UNL     1      33.117 -13.478 -25.680  0.00  0.00    -0.230 NA
ATOM      5  N   UNL     1      34.053 -15.725 -25.873  0.00  0.00    -0.245 NA
ATOM      6  C   UNL     1      32.917 -11.037 -24.107  0.00  0.00    +0.113 C 
ATOM      7  C   UNL     1      32.378 -12.581 -22.189  0.00  0.00    +0.113 C 
ATOM      8  C   UNL     1      33.085 -10.014 -22.986  0.00  0.00    +0.114 C 
ATOM      9  C   UNL     1      31.436 -11.447 -21.791  0.00  0.00    +0.114 C 
ATOM     10  C   UNL     1      33.249 -13.492 -24.334  0.00  0.00    +0.152 C 
ATOM     11  C   UNL     1      33.784 -14.623 -23.756  0.00  0.00    +0.258 C 
ATOM     12  C   UNL     1      34.173 -15.712 -24.523  0.00  0.00    +0.106 C 
ATOM     13  C   UNL     1      34.671 -16.684 -23.617  0.00  0.00    +0.051 C 
ATOM     14  C   UNL     1      34.547 -16.113 -22.351  0.00  0.00    +0.141 C 
ATOM     15  C   UNL     1      33.521 -14.580 -26.356  0.00  0.00    +0.251 C 
ATOM     16  C   UNL     1      35.210 -17.978 -23.721  0.00  0.00    +0.004 C 
ATOM     17  C   UNL     1      34.928 -16.750 -21.170  0.00  0.00    +0.037 C 
ATOM     18  C   UNL     1      35.600 -18.641 -22.550  0.00  0.00    +0.000 C 
ATOM     19  C   UNL     1      35.461 -18.036 -21.299  0.00  0.00    +0.003 C 
ENDROOT
BRANCH   3  21
ATOM     20  S   UNL     1      31.258  -9.251 -19.612  0.00  0.00    -0.019 S 
ATOM     21  C   UNL     1      31.665  -9.074 -21.225  0.00  0.00    +0.135 C 
BRANCH  21  22
ATOM     22  N   UNL     1      31.626  -7.847 -21.837  0.00  0.00    -0.312 N 
ATOM     23  H   UNL     1      30.894  -7.689 -22.475  0.00  0.00    +0.149 HD
BRANCH  22  24
ATOM     24  C   UNL     1      32.563  -6.760 -21.628  0.00  0.00    +0.116 C 
BRANCH  24  27
ATOM     25  O   UNL     1      33.110  -3.980 -25.672  0.00  0.00    -0.435 OA
ATOM     26  O   UNL     1      35.064  -5.197 -26.385  0.00  0.00    -0.435 OA
ATOM     27  C   UNL     1      33.259  -6.367 -22.900  0.00  0.00    +0.001 C 
ATOM     28  C   UNL     1      32.765  -5.304 -23.650  0.00  0.00    +0.038 C 
ATOM     29  C   UNL     1      34.395  -7.079 -23.308  0.00  0.00    +0.001 C 
ATOM     30  C   UNL     1      33.439  -4.980 -24.810  0.00  0.00    +0.176 C 
ATOM     31  C   UNL     1      34.555  -5.675 -25.217  0.00  0.00    +0.176 C 
ATOM     32  C   UNL     1      35.059  -6.732 -24.486  0.00  0.00    +0.040 C 
ATOM     33  C   UNL     1      34.144  -4.123 -26.667  0.00  0.00    +0.429 C 
ENDBRANCH  24  27
ENDBRANCH  22  24
ENDBRANCH  21  22
ENDBRANCH   3  21
TORSDOF 4
ENDMDL
MODEL 6
REMARK VINA RESULT:      -9.9      8.010     13.777
REMARK  Name = 11282283
REMARK  4 active torsions:
REMARK  status: ('A' for Active; 'I' for Inactive)
REMARK    1  A    between atoms: N_3  and  C_21
REMARK    2  A    between atoms: C_21  and  N_22
REMARK    3  A    between atoms: N_22  and  C_24
REMARK    4  A    between atoms: C_24  and  C_27
REMARK                            x       y       z     vdW  Elec       q    Type
REMARK                         _______ _______ _______ _____ _____    ______ ____
ROOT
ATOM      1  O   UNL     1      36.753 -24.768 -14.761  0.00  0.00    -0.466 OA
ATOM      2  N   UNL     1      34.008 -23.978 -14.059  0.00  0.00    -0.290 N 
ATOM      3  N   UNL     1      32.012 -23.235 -15.997  0.00  0.00    -0.288 N 
ATOM      4  N   UNL     1      34.692 -24.337 -11.798  0.00  0.00    -0.230 NA
ATOM      5  N   UNL     1      36.954 -25.067 -11.237  0.00  0.00    -0.245 NA
ATOM      6  C   UNL     1      32.584 -24.220 -13.801  0.00  0.00    +0.113 C 
ATOM      7  C   UNL     1      34.391 -23.349 -15.328  0.00  0.00    +0.113 C 
ATOM      8  C   UNL     1      31.816 -24.374 -15.112  0.00  0.00    +0.114 C 
ATOM      9  C   UNL     1      33.253 -22.486 -15.869  0.00  0.00    +0.114 C 
ATOM     10  C   UNL     1      34.973 -24.334 -13.120  0.00  0.00    +0.152 C 
ATOM     11  C   UNL     1      36.247 -24.698 -13.503  0.00  0.00    +0.258 C 
ATOM     12  C   UNL     1      37.209 -25.055 -12.568  0.00  0.00    +0.106 C 
ATOM     13  C   UNL     1      38.384 -25.365 -13.300  0.00  0.00    +0.051 C 
ATOM     14  C   UNL     1      38.052 -25.173 -14.641  0.00  0.00    +0.141 C 
ATOM     15  C   UNL     1      35.685 -24.698 -10.950  0.00  0.00    +0.251 C 
ATOM     16  C   UNL     1      39.687 -25.784 -12.985  0.00  0.00    +0.004 C 
ATOM     17  C   UNL     1      38.938 -25.373 -15.698  0.00  0.00    +0.037 C 
ATOM     18  C   UNL     1      40.599 -25.993 -14.028  0.00  0.00    +0.000 C 
ATOM     19  C   UNL     1      40.229 -25.790 -15.360  0.00  0.00    +0.003 C 
ENDROOT
BRANCH   3  21
ATOM     20  S   UNL     1      29.441 -22.928 -16.530  0.00  0.00    -0.019 S 
ATOM     21  C   UNL     1      31.070 -22.885 -16.909  0.00  0.00    +0.135 C 
BRANCH  21  22
ATOM     22  N   UNL     1      31.500 -22.493 -18.151  0.00  0.00    -0.312 N 
ATOM     23  H   UNL     1      30.926 -21.864 -18.644  0.00  0.00    +0.149 HD
BRANCH  22  24
ATOM     24  C   UNL     1      32.723 -22.919 -18.804  0.00  0.00    +0.116 C 
BRANCH  24  27
ATOM     25  O   UNL     1      36.564 -20.261 -20.403  0.00  0.00    -0.435 OA
ATOM     26  O   UNL     1      35.165 -18.834 -21.749  0.00  0.00    -0.435 OA
ATOM     27  C   UNL     1      33.345 -21.814 -19.607  0.00  0.00    +0.001 C 
ATOM     28  C   UNL     1      34.723 -21.627 -19.563  0.00  0.00    +0.038 C 
ATOM     29  C   UNL     1      32.525 -20.988 -20.387  0.00  0.00    +0.001 C 
ATOM     30  C   UNL     1      35.249 -20.599 -20.318  0.00  0.00    +0.176 C 
ATOM     31  C   UNL     1      34.450 -19.784 -21.087  0.00  0.00    +0.176 C 
ATOM     32  C   UNL     1      33.081 -19.953 -21.142  0.00  0.00    +0.040 C 
ATOM     33  C   UNL     1      36.503 -19.143 -21.312  0.00  0.00    +0.429 C 
ENDBRANCH  24  27
ENDBRANCH  22  24
ENDBRANCH  21  22
ENDBRANCH   3  21
TORSDOF 4
ENDMDL
MODEL 7
REMARK VINA RESULT:      -9.8      4.606     11.962
REMARK  Name = 11282283
REMARK  4 active torsions:
REMARK  status: ('A' for Active; 'I' for Inactive)
REMARK    1  A    between atoms: N_3  and  C_21
REMARK    2  A    between atoms: C_21  and  N_22
REMARK    3  A    between atoms: N_22  and  C_24
REMARK    4  A    between atoms: C_24  and  C_27
REMARK                            x       y       z     vdW  Elec       q    Type
REMARK                         _______ _______ _______ _____ _____    ______ ____
ROOT
ATOM      1  O   UNL     1      34.086 -13.713 -22.920  0.00  0.00    -0.466 OA
ATOM      2  N   UNL     1      33.413 -11.190 -24.275  0.00  0.00    -0.290 N 
ATOM      3  N   UNL     1      33.123  -8.671 -22.913  0.00  0.00    -0.288 N 
ATOM      4  N   UNL     1      33.378 -12.500 -26.274  0.00  0.00    -0.230 NA
ATOM      5  N   UNL     1      33.840 -14.898 -26.250  0.00  0.00    -0.245 NA
ATOM      6  C   UNL     1      33.722  -9.928 -24.956  0.00  0.00    +0.113 C 
ATOM      7  C   UNL     1      32.953 -11.138 -22.883  0.00  0.00    +0.113 C 
ATOM      8  C   UNL     1      34.129  -8.856 -23.948  0.00  0.00    +0.114 C 
ATOM      9  C   UNL     1      32.270  -9.804 -22.589  0.00  0.00    +0.114 C 
ATOM     10  C   UNL     1      33.550 -12.409 -24.936  0.00  0.00    +0.152 C 
ATOM     11  C   UNL     1      33.869 -13.564 -24.252  0.00  0.00    +0.258 C 
ATOM     12  C   UNL     1      34.007 -14.778 -24.910  0.00  0.00    +0.106 C 
ATOM     13  C   UNL     1      34.332 -15.738 -23.916  0.00  0.00    +0.051 C 
ATOM     14  C   UNL     1      34.368 -15.033 -22.713  0.00  0.00    +0.141 C 
ATOM     15  C   UNL     1      33.531 -13.722 -26.840  0.00  0.00    +0.251 C 
ATOM     16  C   UNL     1      34.598 -17.117 -23.895  0.00  0.00    +0.004 C 
ATOM     17  C   UNL     1      34.654 -15.615 -21.479  0.00  0.00    +0.037 C 
ATOM     18  C   UNL     1      34.889 -17.728 -22.668  0.00  0.00    +0.000 C 
ATOM     19  C   UNL     1      34.916 -16.988 -21.483  0.00  0.00    +0.003 C 
ENDROOT
BRANCH   3  21
ATOM     20  S   UNL     1      32.697  -7.415 -20.626  0.00  0.00    -0.019 S 
ATOM     21  C   UNL     1      32.986  -7.482 -22.273  0.00  0.00    +0.135 C 
BRANCH  21  22
ATOM     22  N   UNL     1      33.095  -6.338 -23.022  0.00  0.00    -0.312 N 
ATOM     23  H   UNL     1      33.909  -5.798 -22.897  0.00  0.00    +0.149 HD
BRANCH  22  24
ATOM     24  C   UNL     1      32.123  -5.851 -23.981  0.00  0.00    +0.116 C 
BRANCH  24  27
ATOM     25  O   UNL     1      32.067  -3.167 -28.124  0.00  0.00    -0.435 OA
ATOM     26  O   UNL     1      34.448  -3.376 -28.430  0.00  0.00    -0.435 OA
ATOM     27  C   UNL     1      32.779  -5.199 -25.163  0.00  0.00    +0.001 C 
ATOM     28  C   UNL     1      32.003  -4.482 -26.069  0.00  0.00    +0.038 C 
ATOM     29  C   UNL     1      34.165  -5.325 -25.334  0.00  0.00    +0.001 C 
ATOM     30  C   UNL     1      32.651  -3.901 -27.139  0.00  0.00    +0.176 C 
ATOM     31  C   UNL     1      34.011  -4.020 -27.313  0.00  0.00    +0.176 C 
ATOM     32  C   UNL     1      34.798  -4.727 -26.426  0.00  0.00    +0.040 C 
ATOM     33  C   UNL     1      33.211  -2.836 -28.938  0.00  0.00    +0.429 C 
ENDBRANCH  24  27
ENDBRANCH  22  24
ENDBRANCH  21  22
ENDBRANCH   3  21
TORSDOF 4
ENDMDL
MODEL 8
REMARK VINA RESULT:      -9.8      4.995      7.489
REMARK  Name = 11282283
REMARK  4 active torsions:
REMARK  status: ('A' for Active; 'I' for Inactive)
REMARK    1  A    between atoms: N_3  and  C_21
REMARK    2  A    between atoms: C_21  and  N_22
REMARK    3  A    between atoms: N_22  and  C_24
REMARK    4  A    between atoms: C_24  and  C_27
REMARK                            x       y       z     vdW  Elec       q    Type
REMARK                         _______ _______ _______ _____ _____    ______ ____
ROOT
ATOM      1  O   UNL     1      31.651  -5.267 -24.417  0.00  0.00    -0.466 OA
ATOM      2  N   UNL     1      33.044  -7.692 -23.503  0.00  0.00    -0.290 N 
ATOM      3  N   UNL     1      31.920  -9.575 -21.638  0.00  0.00    -0.288 N 
ATOM      4  N   UNL     1      34.825  -6.966 -24.921  0.00  0.00    -0.230 NA
ATOM      5  N   UNL     1      34.671  -4.912 -26.234  0.00  0.00    -0.245 NA
ATOM      6  C   UNL     1      33.407  -9.112 -23.559  0.00  0.00    +0.113 C 
ATOM      7  C   UNL     1      32.094  -7.254 -22.474  0.00  0.00    +0.113 C 
ATOM      8  C   UNL     1      32.288  -9.979 -22.987  0.00  0.00    +0.114 C 
ATOM      9  C   UNL     1      32.139  -8.186 -21.265  0.00  0.00    +0.114 C 
ATOM     10  C   UNL     1      33.590  -6.780 -24.404  0.00  0.00    +0.152 C 
ATOM     11  C   UNL     1      32.893  -5.658 -24.801  0.00  0.00    +0.258 C 
ATOM     12  C   UNL     1      33.436  -4.750 -25.699  0.00  0.00    +0.106 C 
ATOM     13  C   UNL     1      32.463  -3.734 -25.880  0.00  0.00    +0.051 C 
ATOM     14  C   UNL     1      31.386  -4.098 -25.072  0.00  0.00    +0.141 C 
ATOM     15  C   UNL     1      35.282  -6.034 -25.792  0.00  0.00    +0.251 C 
ATOM     16  C   UNL     1      32.367  -2.551 -26.632  0.00  0.00    +0.004 C 
ATOM     17  C   UNL     1      30.211  -3.357 -24.961  0.00  0.00    +0.037 C 
ATOM     18  C   UNL     1      31.197  -1.786 -26.539  0.00  0.00    +0.000 C 
ATOM     19  C   UNL     1      30.139  -2.184 -25.718  0.00  0.00    +0.003 C 
ENDROOT
BRANCH   3  21
ATOM     20  S   UNL     1      30.900  -9.984 -19.234  0.00  0.00    -0.019 S 
ATOM     21  C   UNL     1      31.392 -10.464 -20.759  0.00  0.00    +0.135 C 
BRANCH  21  22
ATOM     22  N   UNL     1      31.274 -11.769 -21.166  0.00  0.00    -0.312 N 
ATOM     23  H   UNL     1      30.692 -11.945 -21.939  0.00  0.00    +0.149 HD
BRANCH  22  24
ATOM     24  C   UNL     1      31.930 -12.913 -20.562  0.00  0.00    +0.116 C 
BRANCH  24  27
ATOM     25  O   UNL     1      33.022 -14.374 -25.150  0.00  0.00    -0.435 OA
ATOM     26  O   UNL     1      34.824 -15.785 -24.396  0.00  0.00    -0.435 OA
ATOM     27  C   UNL     1      32.727 -13.697 -21.564  0.00  0.00    +0.001 C 
ATOM     28  C   UNL     1      32.414 -13.598 -22.916  0.00  0.00    +0.038 C 
ATOM     29  C   UNL     1      33.774 -14.515 -21.118  0.00  0.00    +0.001 C 
ATOM     30  C   UNL     1      33.175 -14.337 -23.799  0.00  0.00    +0.176 C 
ATOM     31  C   UNL     1      34.205 -15.143 -23.368  0.00  0.00    +0.176 C 
ATOM     32  C   UNL     1      34.529 -15.254 -22.031  0.00  0.00    +0.040 C 
ATOM     33  C   UNL     1      34.070 -15.291 -25.522  0.00  0.00    +0.429 C 
ENDBRANCH  24  27
ENDBRANCH  22  24
ENDBRANCH  21  22
ENDBRANCH   3  21
TORSDOF 4
ENDMDL
MODEL 9
REMARK VINA RESULT:      -9.7      4.574      7.242
REMARK  Name = 11282283
REMARK  4 active torsions:
REMARK  status: ('A' for Active; 'I' for Inactive)
REMARK    1  A    between atoms: N_3  and  C_21
REMARK    2  A    between atoms: C_21  and  N_22
REMARK    3  A    between atoms: N_22  and  C_24
REMARK    4  A    between atoms: C_24  and  C_27
REMARK                            x       y       z     vdW  Elec       q    Type
REMARK                         _______ _______ _______ _____ _____    ______ ____
ROOT
ATOM      1  O   UNL     1      34.251  -5.784 -25.832  0.00  0.00    -0.466 OA
ATOM      2  N   UNL     1      32.266  -7.367 -24.346  0.00  0.00    -0.290 N 
ATOM      3  N   UNL     1      32.656 -10.116 -23.586  0.00  0.00    -0.288 N 
ATOM      4  N   UNL     1      30.933  -5.384 -24.401  0.00  0.00    -0.230 NA
ATOM      5  N   UNL     1      31.716  -3.335 -25.475  0.00  0.00    -0.245 NA
ATOM      6  C   UNL     1      31.640  -7.907 -23.134  0.00  0.00    +0.113 C 
ATOM      7  C   UNL     1      33.096  -8.260 -25.161  0.00  0.00    +0.113 C 
ATOM      8  C   UNL     1      32.449  -9.080 -22.585  0.00  0.00    +0.114 C 
ATOM      9  C   UNL     1      32.661  -9.713 -24.984  0.00  0.00    +0.114 C 
ATOM     10  C   UNL     1      32.074  -6.037 -24.715  0.00  0.00    +0.152 C 
ATOM     11  C   UNL     1      33.039  -5.339 -25.411  0.00  0.00    +0.258 C 
ATOM     12  C   UNL     1      32.850  -4.014 -25.778  0.00  0.00    +0.106 C 
ATOM     13  C   UNL     1      34.023  -3.617 -26.469  0.00  0.00    +0.051 C 
ATOM     14  C   UNL     1      34.852  -4.739 -26.475  0.00  0.00    +0.141 C 
ATOM     15  C   UNL     1      30.826  -4.092 -24.794  0.00  0.00    +0.251 C 
ATOM     16  C   UNL     1      34.480  -2.442 -27.090  0.00  0.00    +0.004 C 
ATOM     17  C   UNL     1      36.116  -4.770 -27.062  0.00  0.00    +0.037 C 
ATOM     18  C   UNL     1      35.747  -2.445 -27.688  0.00  0.00    +0.000 C 
ATOM     19  C   UNL     1      36.548  -3.590 -27.673  0.00  0.00    +0.003 C 
ENDROOT
BRANCH   3  21
ATOM     20  S   UNL     1      31.924 -12.110 -22.013  0.00  0.00    -0.019 S 
ATOM     21  C   UNL     1      32.839 -11.411 -23.227  0.00  0.00    +0.135 C 
BRANCH  21  22
ATOM     22  N   UNL     1      33.798 -12.129 -23.896  0.00  0.00    -0.312 N 
ATOM     23  H   UNL     1      34.737 -11.933 -23.676  0.00  0.00    +0.149 HD
BRANCH  22  24
ATOM     24  C   UNL     1      33.555 -13.151 -24.896  0.00  0.00    +0.116 C 
BRANCH  24  27
ATOM     25  O   UNL     1      33.924 -18.052 -25.362  0.00  0.00    -0.435 OA
ATOM     26  O   UNL     1      34.889 -18.305 -23.168  0.00  0.00    -0.435 OA
ATOM     27  C   UNL     1      33.925 -14.520 -24.401  0.00  0.00    +0.001 C 
ATOM     28  C   UNL     1      33.705 -15.625 -25.217  0.00  0.00    +0.038 C 
ATOM     29  C   UNL     1      34.486 -14.658 -23.124  0.00  0.00    +0.001 C 
ATOM     30  C   UNL     1      34.062 -16.861 -24.719  0.00  0.00    +0.176 C 
ATOM     31  C   UNL     1      34.613 -17.006 -23.466  0.00  0.00    +0.176 C 
ATOM     32  C   UNL     1      34.838 -15.921 -22.642  0.00  0.00    +0.040 C 
ATOM     33  C   UNL     1      34.451 -18.962 -24.375  0.00  0.00    +0.429 C 
ENDBRANCH  24  27
ENDBRANCH  22  24
ENDBRANCH  21  22
ENDBRANCH   3  21
TORSDOF 4
ENDMDL
