MODEL 1
REMARK VINA RESULT:     -11.7      0.000      0.000
REMARK  Name = 25243828
REMARK  6 active torsions:
REMARK  status: ('A' for Active; 'I' for Inactive)
REMARK    1  A    between atoms: C_1  and  C_18
REMARK    2  A    between atoms: C_4  and  O_7
REMARK    3  A    between atoms: O_7  and  C_9
REMARK    4  A    between atoms: C_11  and  C_17
REMARK    5  A    between atoms: C_18  and  C_21
REMARK    6  A    between atoms: C_26  and  O_27
REMARK                            x       y       z     vdW  Elec       q    Type
REMARK                         _______ _______ _______ _____ _____    ______ ____
ROOT
ATOM      1  C   UNL     1      33.692 -23.586 -15.136  0.00  0.00    -0.019 C 
ATOM      2  C   UNL     1      33.848 -23.698 -16.517  0.00  0.00    +0.033 C 
ATOM      3  C   UNL     1      32.461 -23.204 -14.602  0.00  0.00    -0.004 C 
ATOM      4  C   UNL     1      32.774 -23.426 -17.365  0.00  0.00    +0.147 C 
ATOM      5  C   UNL     1      31.387 -22.932 -15.449  0.00  0.00    +0.003 C 
ATOM      6  C   UNL     1      31.543 -23.043 -16.831  0.00  0.00    +0.038 C 
ENDROOT
BRANCH   4   7
ATOM      7  O   UNL     1      32.927 -23.532 -18.713  0.00  0.00    -0.436 OA
BRANCH   7   9
ATOM      8  N   UNL     1      34.890 -22.506 -19.445  0.00  0.00    -0.210 NA
ATOM      9  C   UNL     1      33.540 -22.482 -19.377  0.00  0.00    +0.230 C 
ATOM     10  C   UNL     1      32.753 -21.484 -19.927  0.00  0.00    +0.058 C 
ATOM     11  C   UNL     1      34.780 -20.432 -20.682  0.00  0.00    +0.091 C 
ATOM     12  C   UNL     1      33.392 -20.442 -20.592  0.00  0.00    +0.010 C 
ATOM     13  C   UNL     1      35.477 -21.477 -20.097  0.00  0.00    +0.106 C 
BRANCH  11  17
ATOM     14  F   UNL     1      35.424 -19.410 -22.747  0.00  0.00    -0.166 F 
ATOM     15  F   UNL     1      35.019 -18.085 -21.078  0.00  0.00    -0.166 F 
ATOM     16  F   UNL     1      36.827 -19.293 -21.091  0.00  0.00    -0.166 F 
ATOM     17  C   UNL     1      35.493 -19.331 -21.384  0.00  0.00    +0.420 C 
ENDBRANCH  11  17
ENDBRANCH   7   9
ENDBRANCH   4   7
BRANCH   1  18
ATOM     18  C   UNL     1      34.849 -23.877 -14.221  0.00  0.00    +0.027 C 
BRANCH  18  21
ATOM     19  O   UNL     1      40.953 -24.566 -14.711  0.00  0.00    -0.226 OA
ATOM     20  N   UNL     1      38.793 -25.347 -15.080  0.00  0.00    -0.246 N 
ATOM     21  C   UNL     1      36.021 -24.500 -14.976  0.00  0.00    +0.008 C 
ATOM     22  C   UNL     1      37.174 -23.494 -15.123  0.00  0.00    +0.022 C 
ATOM     23  C   UNL     1      36.509 -25.776 -14.271  0.00  0.00    +0.022 C 
ATOM     24  C   UNL     1      38.387 -24.135 -15.797  0.00  0.00    +0.097 C 
ATOM     25  C   UNL     1      37.734 -26.360 -14.974  0.00  0.00    +0.097 C 
ATOM     26  C   UNL     1      40.098 -25.443 -14.587  0.00  0.00    +0.402 C 
BRANCH  26  27
ATOM     27  O   UNL     1      40.412 -26.591 -13.921  0.00  0.00    -0.466 OA
ATOM     28  H   UNL     1      40.935 -27.246 -14.339  0.00  0.00    +0.297 HD
ENDBRANCH  26  27
ENDBRANCH  18  21
ENDBRANCH   1  18
TORSDOF 6
ENDMDL
MODEL 2
REMARK VINA RESULT:     -11.1      3.212      5.932
REMARK  Name = 25243828
REMARK  6 active torsions:
REMARK  status: ('A' for Active; 'I' for Inactive)
REMARK    1  A    between atoms: C_1  and  C_18
REMARK    2  A    between atoms: C_4  and  O_7
REMARK    3  A    between atoms: O_7  and  C_9
REMARK    4  A    between atoms: C_11  and  C_17
REMARK    5  A    between atoms: C_18  and  C_21
REMARK    6  A    between atoms: C_26  and  O_27
REMARK                            x       y       z     vdW  Elec       q    Type
REMARK                         _______ _______ _______ _____ _____    ______ ____
ROOT
ATOM      1  C   UNL     1      33.318 -24.131 -14.896  0.00  0.00    -0.019 C 
ATOM      2  C   UNL     1      33.011 -24.158 -16.256  0.00  0.00    +0.033 C 
ATOM      3  C   UNL     1      34.449 -23.446 -14.449  0.00  0.00    -0.004 C 
ATOM      4  C   UNL     1      33.835 -23.501 -17.170  0.00  0.00    +0.147 C 
ATOM      5  C   UNL     1      35.273 -22.789 -15.364  0.00  0.00    +0.003 C 
ATOM      6  C   UNL     1      34.965 -22.815 -16.724  0.00  0.00    +0.038 C 
ENDROOT
BRANCH   4   7
ATOM      7  O   UNL     1      33.537 -23.528 -18.498  0.00  0.00    -0.436 OA
BRANCH   7   9
ATOM      8  N   UNL     1      35.275 -22.364 -19.530  0.00  0.00    -0.210 NA
ATOM      9  C   UNL     1      33.951 -22.458 -19.274  0.00  0.00    +0.230 C 
ATOM     10  C   UNL     1      33.005 -21.559 -19.739  0.00  0.00    +0.058 C 
ATOM     11  C   UNL     1      34.801 -20.365 -20.803  0.00  0.00    +0.091 C 
ATOM     12  C   UNL     1      33.447 -20.495 -20.518  0.00  0.00    +0.010 C 
ATOM     13  C   UNL     1      35.667 -21.316 -20.290  0.00  0.00    +0.106 C 
BRANCH  11  17
ATOM     14  F   UNL     1      34.787 -18.020 -21.280  0.00  0.00    -0.166 F 
ATOM     15  F   UNL     1      36.661 -19.072 -21.573  0.00  0.00    -0.166 F 
ATOM     16  F   UNL     1      35.014 -19.383 -22.958  0.00  0.00    -0.166 F 
ATOM     17  C   UNL     1      35.304 -19.236 -21.632  0.00  0.00    +0.420 C 
ENDBRANCH  11  17
ENDBRANCH   7   9
ENDBRANCH   4   7
BRANCH   1  18
ATOM     18  C   UNL     1      32.432 -24.840 -13.910  0.00  0.00    +0.027 C 
BRANCH  18  21
ATOM     19  O   UNL     1      28.090 -22.407 -17.541  0.00  0.00    -0.226 OA
ATOM     20  N   UNL     1      28.711 -23.808 -15.791  0.00  0.00    -0.246 N 
ATOM     21  C   UNL     1      30.967 -24.448 -14.085  0.00  0.00    +0.008 C 
ATOM     22  C   UNL     1      30.845 -23.091 -14.796  0.00  0.00    +0.022 C 
ATOM     23  C   UNL     1      30.200 -25.531 -14.860  0.00  0.00    +0.022 C 
ATOM     24  C   UNL     1      29.383 -22.731 -15.057  0.00  0.00    +0.097 C 
ATOM     25  C   UNL     1      28.753 -25.109 -15.111  0.00  0.00    +0.097 C 
ATOM     26  C   UNL     1      28.104 -23.521 -17.018  0.00  0.00    +0.402 C 
BRANCH  26  27
ATOM     27  O   UNL     1      27.505 -24.566 -17.656  0.00  0.00    -0.466 OA
ATOM     28  H   UNL     1      26.662 -24.864 -17.376  0.00  0.00    +0.297 HD
ENDBRANCH  26  27
ENDBRANCH  18  21
ENDBRANCH   1  18
TORSDOF 6
ENDMDL
MODEL 3
REMARK VINA RESULT:     -10.9      5.211      8.782
REMARK  Name = 25243828
REMARK  6 active torsions:
REMARK  status: ('A' for Active; 'I' for Inactive)
REMARK    1  A    between atoms: C_1  and  C_18
REMARK    2  A    between atoms: C_4  and  O_7
REMARK    3  A    between atoms: O_7  and  C_9
REMARK    4  A    between atoms: C_11  and  C_17
REMARK    5  A    between atoms: C_18  and  C_21
REMARK    6  A    between atoms: C_26  and  O_27
REMARK                            x       y       z     vdW  Elec       q    Type
REMARK                         _______ _______ _______ _____ _____    ______ ____
ROOT
ATOM      1  C   UNL     1      35.141 -18.568 -22.426  0.00  0.00    -0.019 C 
ATOM      2  C   UNL     1      35.345 -17.195 -22.559  0.00  0.00    +0.033 C 
ATOM      3  C   UNL     1      34.531 -19.286 -23.455  0.00  0.00    -0.004 C 
ATOM      4  C   UNL     1      34.938 -16.538 -23.721  0.00  0.00    +0.147 C 
ATOM      5  C   UNL     1      34.124 -18.629 -24.617  0.00  0.00    +0.003 C 
ATOM      6  C   UNL     1      34.328 -17.256 -24.750  0.00  0.00    +0.038 C 
ENDROOT
BRANCH   4   7
ATOM      7  O   UNL     1      35.134 -15.198 -23.850  0.00  0.00    -0.436 OA
BRANCH   7   9
ATOM      8  N   UNL     1      33.760 -13.314 -23.906  0.00  0.00    -0.210 NA
ATOM      9  C   UNL     1      34.256 -14.352 -23.195  0.00  0.00    +0.230 C 
ATOM     10  C   UNL     1      33.936 -14.609 -21.872  0.00  0.00    +0.058 C 
ATOM     11  C   UNL     1      32.518 -12.667 -21.935  0.00  0.00    +0.091 C 
ATOM     12  C   UNL     1      33.049 -13.745 -21.237  0.00  0.00    +0.010 C 
ATOM     13  C   UNL     1      32.902 -12.496 -23.255  0.00  0.00    +0.106 C 
BRANCH  11  17
ATOM     14  F   UNL     1      31.479 -11.883 -19.928  0.00  0.00    -0.166 F 
ATOM     15  F   UNL     1      31.890 -10.407 -21.464  0.00  0.00    -0.166 F 
ATOM     16  F   UNL     1      30.291 -11.854 -21.749  0.00  0.00    -0.166 F 
ATOM     17  C   UNL     1      31.569 -11.725 -21.283  0.00  0.00    +0.420 C 
ENDBRANCH  11  17
ENDBRANCH   7   9
ENDBRANCH   4   7
BRANCH   1  18
ATOM     18  C   UNL     1      35.578 -19.277 -21.173  0.00  0.00    +0.027 C 
BRANCH  18  21
ATOM     19  O   UNL     1      33.399 -23.444 -17.192  0.00  0.00    -0.226 OA
ATOM     20  N   UNL     1      33.281 -22.349 -19.241  0.00  0.00    -0.246 N 
ATOM     21  C   UNL     1      34.798 -20.571 -20.958  0.00  0.00    +0.008 C 
ATOM     22  C   UNL     1      35.476 -21.449 -19.894  0.00  0.00    +0.022 C 
ATOM     23  C   UNL     1      33.343 -20.273 -20.560  0.00  0.00    +0.022 C 
ATOM     24  C   UNL     1      34.655 -22.705 -19.606  0.00  0.00    +0.097 C 
ATOM     25  C   UNL     1      32.578 -21.562 -20.263  0.00  0.00    +0.097 C 
ATOM     26  C   UNL     1      32.770 -22.776 -18.012  0.00  0.00    +0.402 C 
BRANCH  26  27
ATOM     27  O   UNL     1      31.488 -22.405 -17.727  0.00  0.00    -0.466 OA
ATOM     28  H   UNL     1      30.855 -22.344 -18.414  0.00  0.00    +0.297 HD
ENDBRANCH  26  27
ENDBRANCH  18  21
ENDBRANCH   1  18
TORSDOF 6
ENDMDL
MODEL 4
REMARK VINA RESULT:     -10.8      6.143     11.059
REMARK  Name = 25243828
REMARK  6 active torsions:
REMARK  status: ('A' for Active; 'I' for Inactive)
REMARK    1  A    between atoms: C_1  and  C_18
REMARK    2  A    between atoms: C_4  and  O_7
REMARK    3  A    between atoms: O_7  and  C_9
REMARK    4  A    between atoms: C_11  and  C_17
REMARK    5  A    between atoms: C_18  and  C_21
REMARK    6  A    between atoms: C_26  and  O_27
REMARK                            x       y       z     vdW  Elec       q    Type
REMARK                         _______ _______ _______ _____ _____    ______ ____
ROOT
ATOM      1  C   UNL     1      34.699 -16.214 -23.571  0.00  0.00    -0.019 C 
ATOM      2  C   UNL     1      35.416 -16.943 -22.622  0.00  0.00    +0.033 C 
ATOM      3  C   UNL     1      34.055 -16.873 -24.618  0.00  0.00    -0.004 C 
ATOM      4  C   UNL     1      35.489 -18.333 -22.721  0.00  0.00    +0.147 C 
ATOM      5  C   UNL     1      34.128 -18.263 -24.717  0.00  0.00    +0.003 C 
ATOM      6  C   UNL     1      34.845 -18.993 -23.768  0.00  0.00    +0.038 C 
ENDROOT
BRANCH   4   7
ATOM      7  O   UNL     1      36.190 -19.045 -21.797  0.00  0.00    -0.436 OA
BRANCH   7   9
ATOM      8  N   UNL     1      36.218 -20.746 -20.201  0.00  0.00    -0.210 NA
ATOM      9  C   UNL     1      35.490 -19.946 -21.012  0.00  0.00    +0.230 C 
ATOM     10  C   UNL     1      34.108 -19.979 -21.097  0.00  0.00    +0.058 C 
ATOM     11  C   UNL     1      34.143 -21.730 -19.448  0.00  0.00    +0.091 C 
ATOM     12  C   UNL     1      33.428 -20.891 -20.296  0.00  0.00    +0.010 C 
ATOM     13  C   UNL     1      35.523 -21.620 -19.438  0.00  0.00    +0.106 C 
BRANCH  11  17
ATOM     14  F   UNL     1      32.139 -22.401 -18.325  0.00  0.00    -0.166 F 
ATOM     15  F   UNL     1      33.405 -23.980 -19.105  0.00  0.00    -0.166 F 
ATOM     16  F   UNL     1      34.031 -22.853 -17.355  0.00  0.00    -0.166 F 
ATOM     17  C   UNL     1      33.445 -22.718 -18.581  0.00  0.00    +0.420 C 
ENDBRANCH  11  17
ENDBRANCH   7   9
ENDBRANCH   4   7
BRANCH   1  18
ATOM     18  C   UNL     1      34.621 -14.715 -23.467  0.00  0.00    +0.027 C 
BRANCH  18  21
ATOM     19  O   UNL     1      31.689 -11.172 -19.365  0.00  0.00    -0.226 OA
ATOM     20  N   UNL     1      31.719 -12.332 -21.382  0.00  0.00    -0.246 N 
ATOM     21  C   UNL     1      33.290 -14.261 -22.871  0.00  0.00    +0.008 C 
ATOM     22  C   UNL     1      33.388 -14.139 -21.342  0.00  0.00    +0.022 C 
ATOM     23  C   UNL     1      32.843 -12.926 -23.488  0.00  0.00    +0.022 C 
ATOM     24  C   UNL     1      32.090 -13.599 -20.745  0.00  0.00    +0.097 C 
ATOM     25  C   UNL     1      31.554 -12.423 -22.839  0.00  0.00    +0.097 C 
ATOM     26  C   UNL     1      31.548 -11.194 -20.588  0.00  0.00    +0.402 C 
BRANCH  26  27
ATOM     27  O   UNL     1      31.212 -10.044 -21.241  0.00  0.00    -0.466 OA
ATOM     28  H   UNL     1      31.388  -9.958 -22.157  0.00  0.00    +0.297 HD
ENDBRANCH  26  27
ENDBRANCH  18  21
ENDBRANCH   1  18
TORSDOF 6
ENDMDL
MODEL 5
REMARK VINA RESULT:     -10.5     10.881     15.991
REMARK  Name = 25243828
REMARK  6 active torsions:
REMARK  status: ('A' for Active; 'I' for Inactive)
REMARK    1  A    between atoms: C_1  and  C_18
REMARK    2  A    between atoms: C_4  and  O_7
REMARK    3  A    between atoms: O_7  and  C_9
REMARK    4  A    between atoms: C_11  and  C_17
REMARK    5  A    between atoms: C_18  and  C_21
REMARK    6  A    between atoms: C_26  and  O_27
REMARK                            x       y       z     vdW  Elec       q    Type
REMARK                         _______ _______ _______ _____ _____    ______ ____
ROOT
ATOM      1  C   UNL     1      34.521 -10.533 -25.573  0.00  0.00    -0.019 C 
ATOM      2  C   UNL     1      33.762 -11.659 -25.253  0.00  0.00    +0.033 C 
ATOM      3  C   UNL     1      35.148 -10.444 -26.816  0.00  0.00    -0.004 C 
ATOM      4  C   UNL     1      33.631 -12.697 -26.176  0.00  0.00    +0.147 C 
ATOM      5  C   UNL     1      35.018 -11.482 -27.738  0.00  0.00    +0.003 C 
ATOM      6  C   UNL     1      34.259 -12.608 -27.419  0.00  0.00    +0.038 C 
ENDROOT
BRANCH   4   7
ATOM      7  O   UNL     1      32.893 -13.797 -25.864  0.00  0.00    -0.436 OA
BRANCH   7   9
ATOM      8  N   UNL     1      33.645 -15.994 -25.641  0.00  0.00    -0.210 NA
ATOM      9  C   UNL     1      33.489 -14.772 -25.083  0.00  0.00    +0.230 C 
ATOM     10  C   UNL     1      33.888 -14.451 -23.796  0.00  0.00    +0.058 C 
ATOM     11  C   UNL     1      34.664 -16.717 -23.572  0.00  0.00    +0.091 C 
ATOM     12  C   UNL     1      34.488 -15.448 -23.032  0.00  0.00    +0.010 C 
ATOM     13  C   UNL     1      34.230 -16.937 -24.869  0.00  0.00    +0.106 C 
BRANCH  11  17
ATOM     14  F   UNL     1      36.528 -18.182 -23.248  0.00  0.00    -0.166 F 
ATOM     15  F   UNL     1      35.507 -17.480 -21.468  0.00  0.00    -0.166 F 
ATOM     16  F   UNL     1      34.554 -18.948 -22.758  0.00  0.00    -0.166 F 
ATOM     17  C   UNL     1      35.300 -17.805 -22.780  0.00  0.00    +0.420 C 
ENDBRANCH  11  17
ENDBRANCH   7   9
ENDBRANCH   4   7
BRANCH   1  18
ATOM     18  C   UNL     1      34.664  -9.414 -24.578  0.00  0.00    +0.027 C 
BRANCH  18  21
ATOM     19  O   UNL     1      30.482  -4.901 -24.238  0.00  0.00    -0.226 OA
ATOM     20  N   UNL     1      32.601  -5.656 -24.835  0.00  0.00    -0.246 N 
ATOM     21  C   UNL     1      34.143  -8.093 -25.138  0.00  0.00    +0.008 C 
ATOM     22  C   UNL     1      32.607  -8.090 -25.195  0.00  0.00    +0.022 C 
ATOM     23  C   UNL     1      34.651  -6.906 -24.302  0.00  0.00    +0.022 C 
ATOM     24  C   UNL     1      32.072  -6.739 -25.668  0.00  0.00    +0.097 C 
ATOM     25  C   UNL     1      34.068  -5.587 -24.806  0.00  0.00    +0.097 C 
ATOM     26  C   UNL     1      31.708  -4.807 -24.174  0.00  0.00    +0.402 C 
BRANCH  26  27
ATOM     27  O   UNL     1      32.262  -3.824 -23.407  0.00  0.00    -0.466 OA
ATOM     28  H   UNL     1      31.737  -3.103 -23.120  0.00  0.00    +0.297 HD
ENDBRANCH  26  27
ENDBRANCH  18  21
ENDBRANCH   1  18
TORSDOF 6
ENDMDL
MODEL 6
REMARK VINA RESULT:     -10.5      1.004      1.693
REMARK  Name = 25243828
REMARK  6 active torsions:
REMARK  status: ('A' for Active; 'I' for Inactive)
REMARK    1  A    between atoms: C_1  and  C_18
REMARK    2  A    between atoms: C_4  and  O_7
REMARK    3  A    between atoms: O_7  and  C_9
REMARK    4  A    between atoms: C_11  and  C_17
REMARK    5  A    between atoms: C_18  and  C_21
REMARK    6  A    between atoms: C_26  and  O_27
REMARK                            x       y       z     vdW  Elec       q    Type
REMARK                         _______ _______ _______ _____ _____    ______ ____
ROOT
ATOM      1  C   UNL     1      33.166 -23.897 -14.873  0.00  0.00    -0.019 C 
ATOM      2  C   UNL     1      33.566 -24.089 -16.195  0.00  0.00    +0.033 C 
ATOM      3  C   UNL     1      31.983 -23.210 -14.594  0.00  0.00    -0.004 C 
ATOM      4  C   UNL     1      32.785 -23.594 -17.239  0.00  0.00    +0.147 C 
ATOM      5  C   UNL     1      31.202 -22.715 -15.639  0.00  0.00    +0.003 C 
ATOM      6  C   UNL     1      31.602 -22.908 -16.961  0.00  0.00    +0.038 C 
ENDROOT
BRANCH   4   7
ATOM      7  O   UNL     1      33.176 -23.780 -18.529  0.00  0.00    -0.436 OA
BRANCH   7   9
ATOM      8  N   UNL     1      32.794 -21.902 -19.860  0.00  0.00    -0.210 NA
ATOM      9  C   UNL     1      33.684 -22.687 -19.212  0.00  0.00    +0.230 C 
ATOM     10  C   UNL     1      35.050 -22.459 -19.194  0.00  0.00    +0.058 C 
ATOM     11  C   UNL     1      34.650 -20.523 -20.563  0.00  0.00    +0.091 C 
ATOM     12  C   UNL     1      35.535 -21.353 -19.884  0.00  0.00    +0.010 C 
ATOM     13  C   UNL     1      33.302 -20.837 -20.520  0.00  0.00    +0.106 C 
BRANCH  11  17
ATOM     14  F   UNL     1      34.391 -18.207 -21.106  0.00  0.00    -0.166 F 
ATOM     15  F   UNL     1      36.418 -18.971 -20.996  0.00  0.00    -0.166 F 
ATOM     16  F   UNL     1      35.140 -19.524 -22.665  0.00  0.00    -0.166 F 
ATOM     17  C   UNL     1      35.138 -19.333 -21.313  0.00  0.00    +0.420 C 
ENDBRANCH  11  17
ENDBRANCH   7   9
ENDBRANCH   4   7
BRANCH   1  18
ATOM     18  C   UNL     1      34.008 -24.428 -13.745  0.00  0.00    +0.027 C 
BRANCH  18  21
ATOM     19  O   UNL     1      39.913 -26.189 -13.810  0.00  0.00    -0.226 OA
ATOM     20  N   UNL     1      38.234 -24.714 -14.459  0.00  0.00    -0.246 N 
ATOM     21  C   UNL     1      35.473 -24.026 -13.899  0.00  0.00    +0.008 C 
ATOM     22  C   UNL     1      36.352 -24.758 -12.874  0.00  0.00    +0.022 C 
ATOM     23  C   UNL     1      35.969 -24.305 -15.328  0.00  0.00    +0.022 C 
ATOM     24  C   UNL     1      37.831 -24.433 -13.078  0.00  0.00    +0.097 C 
ATOM     25  C   UNL     1      37.455 -23.983 -15.468  0.00  0.00    +0.097 C 
ATOM     26  C   UNL     1      39.284 -25.607 -14.695  0.00  0.00    +0.402 C 
BRANCH  26  27
ATOM     27  O   UNL     1      39.605 -25.834 -16.001  0.00  0.00    -0.466 OA
ATOM     28  H   UNL     1      40.365 -26.338 -16.215  0.00  0.00    +0.297 HD
ENDBRANCH  26  27
ENDBRANCH  18  21
ENDBRANCH   1  18
TORSDOF 6
ENDMDL
MODEL 7
REMARK VINA RESULT:     -10.4      4.164      5.887
REMARK  Name = 25243828
REMARK  6 active torsions:
REMARK  status: ('A' for Active; 'I' for Inactive)
REMARK    1  A    between atoms: C_1  and  C_18
REMARK    2  A    between atoms: C_4  and  O_7
REMARK    3  A    between atoms: O_7  and  C_9
REMARK    4  A    between atoms: C_11  and  C_17
REMARK    5  A    between atoms: C_18  and  C_21
REMARK    6  A    between atoms: C_26  and  O_27
REMARK                            x       y       z     vdW  Elec       q    Type
REMARK                         _______ _______ _______ _____ _____    ______ ____
ROOT
ATOM      1  C   UNL     1      34.117 -21.992 -19.219  0.00  0.00    -0.019 C 
ATOM      2  C   UNL     1      35.112 -21.250 -19.856  0.00  0.00    +0.033 C 
ATOM      3  C   UNL     1      32.775 -21.770 -19.528  0.00  0.00    -0.004 C 
ATOM      4  C   UNL     1      34.765 -20.285 -20.802  0.00  0.00    +0.147 C 
ATOM      5  C   UNL     1      32.428 -20.805 -20.474  0.00  0.00    +0.003 C 
ATOM      6  C   UNL     1      33.423 -20.063 -21.112  0.00  0.00    +0.038 C 
ENDROOT
BRANCH   4   7
ATOM      7  O   UNL     1      35.734 -19.559 -21.422  0.00  0.00    -0.436 OA
BRANCH   7   9
ATOM      8  N   UNL     1      35.175 -17.295 -21.367  0.00  0.00    -0.210 NA
ATOM      9  C   UNL     1      35.348 -18.417 -22.102  0.00  0.00    +0.230 C 
ATOM     10  C   UNL     1      35.164 -18.481 -23.474  0.00  0.00    +0.058 C 
ATOM     11  C   UNL     1      34.591 -16.146 -23.412  0.00  0.00    +0.091 C 
ATOM     12  C   UNL     1      34.779 -17.319 -24.134  0.00  0.00    +0.010 C 
ATOM     13  C   UNL     1      34.800 -16.186 -22.043  0.00  0.00    +0.106 C 
BRANCH  11  17
ATOM     14  F   UNL     1      34.405 -14.886 -25.437  0.00  0.00    -0.166 F 
ATOM     15  F   UNL     1      32.846 -14.603 -23.956  0.00  0.00    -0.166 F 
ATOM     16  F   UNL     1      34.832 -13.788 -23.610  0.00  0.00    -0.166 F 
ATOM     17  C   UNL     1      34.177 -14.887 -24.089  0.00  0.00    +0.420 C 
ENDBRANCH  11  17
ENDBRANCH   7   9
ENDBRANCH   4   7
BRANCH   1  18
ATOM     18  C   UNL     1      34.490 -23.031 -18.197  0.00  0.00    +0.027 C 
BRANCH  18  21
ATOM     19  O   UNL     1      30.130 -25.408 -14.549  0.00  0.00    -0.226 OA
ATOM     20  N   UNL     1      32.011 -24.072 -14.848  0.00  0.00    -0.246 N 
ATOM     21  C   UNL     1      33.656 -22.895 -16.926  0.00  0.00    +0.008 C 
ATOM     22  C   UNL     1      32.198 -23.310 -17.180  0.00  0.00    +0.022 C 
ATOM     23  C   UNL     1      34.261 -23.728 -15.784  0.00  0.00    +0.022 C 
ATOM     24  C   UNL     1      31.376 -23.265 -15.893  0.00  0.00    +0.097 C 
ATOM     25  C   UNL     1      33.387 -23.663 -14.532  0.00  0.00    +0.097 C 
ATOM     26  C   UNL     1      31.288 -25.111 -14.254  0.00  0.00    +0.402 C 
BRANCH  26  27
ATOM     27  O   UNL     1      31.937 -25.831 -13.295  0.00  0.00    -0.466 OA
ATOM     28  H   UNL     1      31.554 -25.931 -12.446  0.00  0.00    +0.297 HD
ENDBRANCH  26  27
ENDBRANCH  18  21
ENDBRANCH   1  18
TORSDOF 6
ENDMDL
MODEL 8
REMARK VINA RESULT:     -10.4     10.796     13.760
REMARK  Name = 25243828
REMARK  6 active torsions:
REMARK  status: ('A' for Active; 'I' for Inactive)
REMARK    1  A    between atoms: C_1  and  C_18
REMARK    2  A    between atoms: C_4  and  O_7
REMARK    3  A    between atoms: O_7  and  C_9
REMARK    4  A    between atoms: C_11  and  C_17
REMARK    5  A    between atoms: C_18  and  C_21
REMARK    6  A    between atoms: C_26  and  O_27
REMARK                            x       y       z     vdW  Elec       q    Type
REMARK                         _______ _______ _______ _____ _____    ______ ____
ROOT
ATOM      1  C   UNL     1      31.574 -11.257 -20.738  0.00  0.00    -0.019 C 
ATOM      2  C   UNL     1      31.817 -10.343 -21.762  0.00  0.00    +0.033 C 
ATOM      3  C   UNL     1      31.295 -10.803 -19.448  0.00  0.00    -0.004 C 
ATOM      4  C   UNL     1      31.782  -8.973 -21.497  0.00  0.00    +0.147 C 
ATOM      5  C   UNL     1      31.260  -9.434 -19.184  0.00  0.00    +0.003 C 
ATOM      6  C   UNL     1      31.503  -8.518 -20.208  0.00  0.00    +0.038 C 
ENDROOT
BRANCH   4   7
ATOM      7  O   UNL     1      32.021  -8.080 -22.496  0.00  0.00    -0.436 OA
BRANCH   7   9
ATOM      8  N   UNL     1      32.396  -9.146 -24.537  0.00  0.00    -0.210 NA
ATOM      9  C   UNL     1      32.906  -8.452 -23.495  0.00  0.00    +0.230 C 
ATOM     10  C   UNL     1      34.240  -8.098 -23.376  0.00  0.00    +0.058 C 
ATOM     11  C   UNL     1      34.620  -9.196 -25.482  0.00  0.00    +0.091 C 
ATOM     12  C   UNL     1      35.108  -8.480 -24.394  0.00  0.00    +0.010 C 
ATOM     13  C   UNL     1      33.269  -9.501 -25.506  0.00  0.00    +0.106 C 
BRANCH  11  17
ATOM     14  F   UNL     1      35.010 -10.621 -27.364  0.00  0.00    -0.166 F 
ATOM     15  F   UNL     1      35.834  -8.616 -27.461  0.00  0.00    -0.166 F 
ATOM     16  F   UNL     1      36.723 -10.093 -26.136  0.00  0.00    -0.166 F 
ATOM     17  C   UNL     1      35.524  -9.621 -26.586  0.00  0.00    +0.420 C 
ENDBRANCH  11  17
ENDBRANCH   7   9
ENDBRANCH   4   7
BRANCH   1  18
ATOM     18  C   UNL     1      31.613 -12.734 -21.021  0.00  0.00    +0.027 C 
BRANCH  18  21
ATOM     19  O   UNL     1      34.722 -17.158 -23.976  0.00  0.00    -0.226 OA
ATOM     20  N   UNL     1      34.084 -14.930 -23.763  0.00  0.00    -0.246 N 
ATOM     21  C   UNL     1      32.791 -13.104 -21.919  0.00  0.00    +0.008 C 
ATOM     22  C   UNL     1      33.455 -14.406 -21.443  0.00  0.00    +0.022 C 
ATOM     23  C   UNL     1      32.343 -13.234 -23.383  0.00  0.00    +0.022 C 
ATOM     24  C   UNL     1      34.578 -14.834 -22.387  0.00  0.00    +0.097 C 
ATOM     25  C   UNL     1      33.499 -13.684 -24.275  0.00  0.00    +0.097 C 
ATOM     26  C   UNL     1      34.213 -16.142 -24.450  0.00  0.00    +0.402 C 
BRANCH  26  27
ATOM     27  O   UNL     1      33.726 -16.171 -25.724  0.00  0.00    -0.466 OA
ATOM     28  H   UNL     1      34.024 -15.544 -26.353  0.00  0.00    +0.297 HD
ENDBRANCH  26  27
ENDBRANCH  18  21
ENDBRANCH   1  18
TORSDOF 6
ENDMDL
MODEL 9
REMARK VINA RESULT:     -10.4      9.735     14.557
REMARK  Name = 25243828
REMARK  6 active torsions:
REMARK  status: ('A' for Active; 'I' for Inactive)
REMARK    1  A    between atoms: C_1  and  C_18
REMARK    2  A    between atoms: C_4  and  O_7
REMARK    3  A    between atoms: O_7  and  C_9
REMARK    4  A    between atoms: C_11  and  C_17
REMARK    5  A    between atoms: C_18  and  C_21
REMARK    6  A    between atoms: C_26  and  O_27
REMARK                            x       y       z     vdW  Elec       q    Type
REMARK                         _______ _______ _______ _____ _____    ______ ____
ROOT
ATOM      1  C   UNL     1      34.826 -10.733 -25.746  0.00  0.00    -0.019 C 
ATOM      2  C   UNL     1      34.052 -11.687 -25.086  0.00  0.00    +0.033 C 
ATOM      3  C   UNL     1      35.109 -10.881 -27.104  0.00  0.00    -0.004 C 
ATOM      4  C   UNL     1      33.561 -12.790 -25.784  0.00  0.00    +0.147 C 
ATOM      5  C   UNL     1      34.618 -11.984 -27.802  0.00  0.00    +0.003 C 
ATOM      6  C   UNL     1      33.843 -12.939 -27.143  0.00  0.00    +0.038 C 
ENDROOT
BRANCH   4   7
ATOM      7  O   UNL     1      32.807 -13.724 -25.141  0.00  0.00    -0.436 OA
BRANCH   7   9
ATOM      8  N   UNL     1      33.419 -15.961 -25.389  0.00  0.00    -0.210 NA
ATOM      9  C   UNL     1      33.455 -14.839 -24.636  0.00  0.00    +0.230 C 
ATOM     10  C   UNL     1      34.095 -14.747 -23.411  0.00  0.00    +0.058 C 
ATOM     11  C   UNL     1      34.726 -17.053 -23.674  0.00  0.00    +0.091 C 
ATOM     12  C   UNL     1      34.741 -15.880 -22.928  0.00  0.00    +0.010 C 
ATOM     13  C   UNL     1      34.057 -17.042 -24.887  0.00  0.00    +0.106 C 
BRANCH  11  17
ATOM     14  F   UNL     1      34.964 -18.704 -21.959  0.00  0.00    -0.166 F 
ATOM     15  F   UNL     1      35.250 -19.363 -24.006  0.00  0.00    -0.166 F 
ATOM     16  F   UNL     1      36.755 -18.122 -23.046  0.00  0.00    -0.166 F 
ATOM     17  C   UNL     1      35.406 -18.282 -23.183  0.00  0.00    +0.420 C 
ENDBRANCH  11  17
ENDBRANCH   7   9
ENDBRANCH   4   7
BRANCH   1  18
ATOM     18  C   UNL     1      35.357  -9.543 -24.994  0.00  0.00    +0.027 C 
BRANCH  18  21
ATOM     19  O   UNL     1      31.970  -8.634 -19.927  0.00  0.00    -0.226 OA
ATOM     20  N   UNL     1      32.894  -7.846 -21.912  0.00  0.00    -0.246 N 
ATOM     21  C   UNL     1      34.237  -8.760 -24.314  0.00  0.00    +0.008 C 
ATOM     22  C   UNL     1      33.349  -9.692 -23.473  0.00  0.00    +0.022 C 
ATOM     23  C   UNL     1      34.811  -7.633 -23.439  0.00  0.00    +0.022 C 
ATOM     24  C   UNL     1      32.280  -8.906 -22.716  0.00  0.00    +0.097 C 
ATOM     25  C   UNL     1      33.700  -6.897 -22.691  0.00  0.00    +0.097 C 
ATOM     26  C   UNL     1      32.665  -7.817 -20.533  0.00  0.00    +0.402 C 
BRANCH  26  27
ATOM     27  O   UNL     1      33.271  -6.812 -19.838  0.00  0.00    -0.466 OA
ATOM     28  H   UNL     1      32.928  -5.941 -19.880  0.00  0.00    +0.297 HD
ENDBRANCH  26  27
ENDBRANCH  18  21
ENDBRANCH   1  18
TORSDOF 6
ENDMDL
