MODEL 1
REMARK VINA RESULT:     -11.3      0.000      0.000
REMARK  Name = 71226662
REMARK  4 active torsions:
REMARK  status: ('A' for Active; 'I' for Inactive)
REMARK    1  A    between atoms: C_5  and  C_15
REMARK    2  A    between atoms: C_7  and  C_23
REMARK    3  A    between atoms: C_19  and  C_20
REMARK    4  A    between atoms: C_28  and  C_31
REMARK                            x       y       z     vdW  Elec       q    Type
REMARK                         _______ _______ _______ _____ _____    ______ ____
ROOT
ATOM      1  N   UNL     1      32.674 -24.345 -15.031  0.00  0.00    -0.251 N 
ATOM      2  N   UNL     1      34.627 -23.791 -15.928  0.00  0.00    -0.392 NA
ATOM      3  N   UNL     1      30.040 -23.837 -15.736  0.00  0.00    -0.231 NA
ATOM      4  N   UNL     1      30.635 -22.616 -17.616  0.00  0.00    -0.344 N 
ATOM      5  C   UNL     1      34.035 -24.429 -14.940  0.00  0.00    +0.182 C 
ATOM      6  C   UNL     1      32.382 -23.606 -16.151  0.00  0.00    +0.185 C 
ATOM      7  C   UNL     1      33.603 -23.274 -16.689  0.00  0.00    +0.136 C 
ATOM      8  C   UNL     1      31.656 -24.841 -14.245  0.00  0.00    +0.089 C 
ATOM      9  C   UNL     1      30.994 -23.349 -16.507  0.00  0.00    +0.128 C 
ATOM     10  C   UNL     1      30.393 -24.575 -14.618  0.00  0.00    +0.116 C 
ATOM     11  H   UNL     1      29.683 -22.467 -17.819  0.00  0.00    +0.143 HD
ATOM     12  H   UNL     1      31.329 -22.243 -18.205  0.00  0.00    +0.143 HD
ENDROOT
BRANCH   5  15
ATOM     13  O   UNL     1      36.212 -26.746 -15.758  0.00  0.00    -0.260 OA
ATOM     14  N   UNL     1      36.192 -25.260 -13.976  0.00  0.00    -0.263 N 
ATOM     15  C   UNL     1      34.737 -25.176 -13.820  0.00  0.00    +0.143 C 
ATOM     16  C   UNL     1      34.553 -24.496 -12.457  0.00  0.00    +0.030 C 
ATOM     17  C   UNL     1      35.801 -23.631 -12.310  0.00  0.00    +0.024 C 
ATOM     18  C   UNL     1      36.887 -24.475 -12.959  0.00  0.00    +0.095 C 
ATOM     19  C   UNL     1      36.801 -26.089 -14.907  0.00  0.00    +0.293 C 
BRANCH  19  20
ATOM     20  C   UNL     1      38.243 -26.183 -14.864  0.00  0.00    -0.007 C 
ATOM     21  C   UNL     1      39.441 -26.261 -14.829  0.00  0.00    -0.081 C 
ATOM     22  C   UNL     1      40.899 -26.356 -14.785  0.00  0.00    +0.090 C 
ENDBRANCH  19  20
ENDBRANCH   5  15
BRANCH   7  23
ATOM     23  C   UNL     1      33.840 -22.504 -17.871  0.00  0.00    +0.028 C 
ATOM     24  C   UNL     1      32.766 -22.077 -18.653  0.00  0.00    +0.002 C 
ATOM     25  C   UNL     1      35.146 -22.181 -18.242  0.00  0.00    +0.002 C 
ATOM     26  C   UNL     1      32.999 -21.327 -19.806  0.00  0.00    +0.005 C 
ATOM     27  C   UNL     1      35.377 -21.431 -19.394  0.00  0.00    +0.005 C 
ATOM     28  C   UNL     1      34.304 -21.004 -20.177  0.00  0.00    +0.054 C 
BRANCH  28  31
ATOM     29  O   UNL     1      34.798 -20.810 -22.441  0.00  0.00    -0.270 OA
ATOM     30  N   UNL     1      34.493 -18.829 -21.222  0.00  0.00    -0.266 N 
ATOM     31  C   UNL     1      34.546 -20.220 -21.378  0.00  0.00    +0.251 C 
ATOM     32  H   UNL     1      34.279 -18.507 -20.317  0.00  0.00    +0.157 HD
ATOM     33  N   UNL     1      34.605 -16.529 -21.822  0.00  0.00    -0.229 NA
ATOM     34  C   UNL     1      34.708 -17.824 -22.198  0.00  0.00    +0.134 C 
ATOM     35  C   UNL     1      35.010 -18.236 -23.485  0.00  0.00    +0.034 C 
ATOM     36  C   UNL     1      35.224 -17.258 -24.449  0.00  0.00    +0.004 C 
ATOM     37  C   UNL     1      34.818 -15.606 -22.786  0.00  0.00    +0.100 C 
ATOM     38  C   UNL     1      35.127 -15.914 -24.101  0.00  0.00    +0.021 C 
ENDBRANCH  28  31
ENDBRANCH   7  23
TORSDOF 4
ENDMDL
MODEL 2
REMARK VINA RESULT:     -10.2      5.909     14.742
REMARK  Name = 71226662
REMARK  4 active torsions:
REMARK  status: ('A' for Active; 'I' for Inactive)
REMARK    1  A    between atoms: C_5  and  C_15
REMARK    2  A    between atoms: C_7  and  C_23
REMARK    3  A    between atoms: C_19  and  C_20
REMARK    4  A    between atoms: C_28  and  C_31
REMARK                            x       y       z     vdW  Elec       q    Type
REMARK                         _______ _______ _______ _____ _____    ______ ____
ROOT
ATOM      1  N   UNL     1      33.284 -10.901 -24.953  0.00  0.00    -0.251 N 
ATOM      2  N   UNL     1      33.637 -11.518 -22.851  0.00  0.00    -0.392 NA
ATOM      3  N   UNL     1      33.369 -12.251 -27.376  0.00  0.00    -0.231 NA
ATOM      4  N   UNL     1      33.945 -14.267 -26.387  0.00  0.00    -0.344 N 
ATOM      5  C   UNL     1      33.320 -10.514 -23.643  0.00  0.00    +0.182 C 
ATOM      6  C   UNL     1      33.598 -12.237 -24.997  0.00  0.00    +0.185 C 
ATOM      7  C   UNL     1      33.812 -12.596 -23.687  0.00  0.00    +0.136 C 
ATOM      8  C   UNL     1      33.008 -10.217 -26.119  0.00  0.00    +0.089 C 
ATOM      9  C   UNL     1      33.638 -12.930 -26.276  0.00  0.00    +0.128 C 
ATOM     10  C   UNL     1      33.059 -10.905 -27.272  0.00  0.00    +0.116 C 
ATOM     11  H   UNL     1      33.961 -14.697 -27.273  0.00  0.00    +0.143 HD
ATOM     12  H   UNL     1      34.148 -14.795 -25.581  0.00  0.00    +0.143 HD
ENDROOT
BRANCH   5  15
ATOM     13  O   UNL     1      35.700  -8.274 -23.957  0.00  0.00    -0.260 OA
ATOM     14  N   UNL     1      33.399  -8.069 -24.181  0.00  0.00    -0.263 N 
ATOM     15  C   UNL     1      33.024  -9.093 -23.200  0.00  0.00    +0.143 C 
ATOM     16  C   UNL     1      31.527  -8.850 -22.971  0.00  0.00    +0.030 C 
ATOM     17  C   UNL     1      31.046  -8.261 -24.293  0.00  0.00    +0.024 C 
ATOM     18  C   UNL     1      32.223  -7.408 -24.741  0.00  0.00    +0.095 C 
ATOM     19  C   UNL     1      34.717  -7.714 -24.430  0.00  0.00    +0.293 C 
BRANCH  19  20
ATOM     20  C   UNL     1      34.943  -6.596 -25.318  0.00  0.00    -0.007 C 
ATOM     21  C   UNL     1      35.132  -5.667 -26.055  0.00  0.00    -0.081 C 
ATOM     22  C   UNL     1      35.361  -4.537 -26.953  0.00  0.00    +0.090 C 
ENDBRANCH  19  20
ENDBRANCH   5  15
BRANCH   7  23
ATOM     23  C   UNL     1      34.168 -13.893 -23.199  0.00  0.00    +0.028 C 
ATOM     24  C   UNL     1      34.607 -14.877 -24.087  0.00  0.00    +0.002 C 
ATOM     25  C   UNL     1      34.076 -14.174 -21.836  0.00  0.00    +0.002 C 
ATOM     26  C   UNL     1      34.953 -16.141 -23.611  0.00  0.00    +0.005 C 
ATOM     27  C   UNL     1      34.423 -15.439 -21.361  0.00  0.00    +0.005 C 
ATOM     28  C   UNL     1      34.861 -16.422 -22.247  0.00  0.00    +0.054 C 
BRANCH  28  31
ATOM     29  O   UNL     1      36.417 -18.084 -21.771  0.00  0.00    -0.270 OA
ATOM     30  N   UNL     1      34.164 -18.539 -21.302  0.00  0.00    -0.266 N 
ATOM     31  C   UNL     1      35.224 -17.740 -21.751  0.00  0.00    +0.251 C 
ATOM     32  H   UNL     1      33.270 -18.128 -21.346  0.00  0.00    +0.157 HD
ATOM     33  N   UNL     1      33.051 -20.445 -20.414  0.00  0.00    -0.229 NA
ATOM     34  C   UNL     1      34.209 -19.860 -20.793  0.00  0.00    +0.134 C 
ATOM     35  C   UNL     1      35.449 -20.473 -20.715  0.00  0.00    +0.034 C 
ATOM     36  C   UNL     1      35.504 -21.770 -20.217  0.00  0.00    +0.004 C 
ATOM     37  C   UNL     1      33.143 -21.706 -19.935  0.00  0.00    +0.100 C 
ATOM     38  C   UNL     1      34.333 -22.405 -19.817  0.00  0.00    +0.021 C 
ENDBRANCH  28  31
ENDBRANCH   7  23
TORSDOF 4
ENDMDL
MODEL 3
REMARK VINA RESULT:      -9.9      1.573      2.851
REMARK  Name = 71226662
REMARK  4 active torsions:
REMARK  status: ('A' for Active; 'I' for Inactive)
REMARK    1  A    between atoms: C_5  and  C_15
REMARK    2  A    between atoms: C_7  and  C_23
REMARK    3  A    between atoms: C_19  and  C_20
REMARK    4  A    between atoms: C_28  and  C_31
REMARK                            x       y       z     vdW  Elec       q    Type
REMARK                         _______ _______ _______ _____ _____    ______ ____
ROOT
ATOM      1  N   UNL     1      34.793 -23.971 -15.773  0.00  0.00    -0.251 N 
ATOM      2  N   UNL     1      36.445 -23.034 -16.922  0.00  0.00    -0.392 NA
ATOM      3  N   UNL     1      32.034 -23.980 -16.065  0.00  0.00    -0.231 NA
ATOM      4  N   UNL     1      32.093 -22.644 -17.959  0.00  0.00    -0.344 N 
ATOM      5  C   UNL     1      36.143 -23.787 -15.884  0.00  0.00    +0.182 C 
ATOM      6  C   UNL     1      34.198 -23.290 -16.807  0.00  0.00    +0.185 C 
ATOM      7  C   UNL     1      35.237 -22.719 -17.503  0.00  0.00    +0.136 C 
ATOM      8  C   UNL     1      34.019 -24.666 -14.867  0.00  0.00    +0.089 C 
ATOM      9  C   UNL     1      32.749 -23.305 -16.945  0.00  0.00    +0.128 C 
ATOM     10  C   UNL     1      32.687 -24.648 -15.041  0.00  0.00    +0.116 C 
ATOM     11  H   UNL     1      31.111 -22.682 -18.015  0.00  0.00    +0.143 HD
ATOM     12  H   UNL     1      32.605 -22.135 -18.628  0.00  0.00    +0.143 HD
ENDROOT
BRANCH   5  15
ATOM     13  O   UNL     1      36.253 -22.574 -12.836  0.00  0.00    -0.260 OA
ATOM     14  N   UNL     1      36.561 -24.741 -13.607  0.00  0.00    -0.263 N 
ATOM     15  C   UNL     1      37.135 -24.395 -14.911  0.00  0.00    +0.143 C 
ATOM     16  C   UNL     1      37.717 -25.721 -15.418  0.00  0.00    +0.030 C 
ATOM     17  C   UNL     1      36.830 -26.780 -14.771  0.00  0.00    +0.024 C 
ATOM     18  C   UNL     1      36.524 -26.187 -13.404  0.00  0.00    +0.095 C 
ATOM     19  C   UNL     1      36.220 -23.787 -12.659  0.00  0.00    +0.293 C 
BRANCH  19  20
ATOM     20  C   UNL     1      35.793 -24.266 -11.364  0.00  0.00    -0.007 C 
ATOM     21  C   UNL     1      35.438 -24.663 -10.288  0.00  0.00    -0.081 C 
ATOM     22  C   UNL     1      35.006 -25.148  -8.978  0.00  0.00    +0.090 C 
ENDBRANCH  19  20
ENDBRANCH   5  15
BRANCH   7  23
ATOM     23  C   UNL     1      35.141 -21.903 -18.674  0.00  0.00    +0.028 C 
ATOM     24  C   UNL     1      33.902 -21.702 -19.285  0.00  0.00    +0.002 C 
ATOM     25  C   UNL     1      36.286 -21.309 -19.206  0.00  0.00    +0.002 C 
ATOM     26  C   UNL     1      33.810 -20.908 -20.427  0.00  0.00    +0.005 C 
ATOM     27  C   UNL     1      36.192 -20.515 -20.348  0.00  0.00    +0.005 C 
ATOM     28  C   UNL     1      34.954 -20.314 -20.959  0.00  0.00    +0.054 C 
BRANCH  28  31
ATOM     29  O   UNL     1      34.866 -20.028 -23.266  0.00  0.00    -0.270 OA
ATOM     30  N   UNL     1      34.781 -18.102 -21.928  0.00  0.00    -0.266 N 
ATOM     31  C   UNL     1      34.857 -19.484 -22.150  0.00  0.00    +0.251 C 
ATOM     32  H   UNL     1      34.783 -17.819 -20.986  0.00  0.00    +0.157 HD
ATOM     33  N   UNL     1      34.638 -15.783 -22.442  0.00  0.00    -0.229 NA
ATOM     34  C   UNL     1      34.703 -17.059 -22.884  0.00  0.00    +0.134 C 
ATOM     35  C   UNL     1      34.697 -17.418 -24.222  0.00  0.00    +0.034 C 
ATOM     36  C   UNL     1      34.622 -16.401 -25.168  0.00  0.00    +0.004 C 
ATOM     37  C   UNL     1      34.565 -14.822 -23.390  0.00  0.00    +0.100 C 
ATOM     38  C   UNL     1      34.554 -15.076 -24.752  0.00  0.00    +0.021 C 
ENDBRANCH  28  31
ENDBRANCH   7  23
TORSDOF 4
ENDMDL
MODEL 4
REMARK VINA RESULT:      -9.8      8.293     15.651
REMARK  Name = 71226662
REMARK  4 active torsions:
REMARK  status: ('A' for Active; 'I' for Inactive)
REMARK    1  A    between atoms: C_5  and  C_15
REMARK    2  A    between atoms: C_7  and  C_23
REMARK    3  A    between atoms: C_19  and  C_20
REMARK    4  A    between atoms: C_28  and  C_31
REMARK                            x       y       z     vdW  Elec       q    Type
REMARK                         _______ _______ _______ _____ _____    ______ ____
ROOT
ATOM      1  N   UNL     1      32.030  -8.259 -21.774  0.00  0.00    -0.251 N 
ATOM      2  N   UNL     1      32.728  -8.934 -23.769  0.00  0.00    -0.392 NA
ATOM      3  N   UNL     1      31.426  -9.591 -19.416  0.00  0.00    -0.231 NA
ATOM      4  N   UNL     1      31.924 -11.674 -20.304  0.00  0.00    -0.344 N 
ATOM      5  C   UNL     1      32.390  -7.891 -23.039  0.00  0.00    +0.182 C 
ATOM      6  C   UNL     1      32.147  -9.626 -21.693  0.00  0.00    +0.185 C 
ATOM      7  C   UNL     1      32.579 -10.020 -22.938  0.00  0.00    +0.136 C 
ATOM      8  C   UNL     1      31.608  -7.536 -20.677  0.00  0.00    +0.089 C 
ATOM      9  C   UNL     1      31.826 -10.308 -20.449  0.00  0.00    +0.128 C 
ATOM     10  C   UNL     1      31.325  -8.216 -19.553  0.00  0.00    +0.116 C 
ATOM     11  H   UNL     1      31.697 -12.095 -19.443  0.00  0.00    +0.143 HD
ATOM     12  H   UNL     1      32.221 -12.229 -21.060  0.00  0.00    +0.143 HD
ENDROOT
BRANCH   5  15
ATOM     13  O   UNL     1      35.269  -6.506 -23.791  0.00  0.00    -0.260 OA
ATOM     14  N   UNL     1      33.166  -6.207 -24.723  0.00  0.00    -0.263 N 
ATOM     15  C   UNL     1      32.386  -6.446 -23.504  0.00  0.00    +0.143 C 
ATOM     16  C   UNL     1      30.980  -5.950 -23.865  0.00  0.00    +0.030 C 
ATOM     17  C   UNL     1      30.894  -6.163 -25.373  0.00  0.00    +0.024 C 
ATOM     18  C   UNL     1      32.305  -5.851 -25.848  0.00  0.00    +0.095 C 
ATOM     19  C   UNL     1      34.552  -6.206 -24.739  0.00  0.00    +0.293 C 
BRANCH  19  20
ATOM     20  C   UNL     1      35.198  -5.820 -25.974  0.00  0.00    -0.007 C 
ATOM     21  C   UNL     1      35.735  -5.500 -26.999  0.00  0.00    -0.081 C 
ATOM     22  C   UNL     1      36.389  -5.110 -28.248  0.00  0.00    +0.090 C 
ENDBRANCH  19  20
ENDBRANCH   5  15
BRANCH   7  23
ATOM     23  C   UNL     1      32.854 -11.357 -23.368  0.00  0.00    +0.028 C 
ATOM     24  C   UNL     1      33.825 -11.591 -24.342  0.00  0.00    +0.002 C 
ATOM     25  C   UNL     1      32.151 -12.426 -22.813  0.00  0.00    +0.002 C 
ATOM     26  C   UNL     1      34.092 -12.894 -24.761  0.00  0.00    +0.005 C 
ATOM     27  C   UNL     1      32.418 -13.729 -23.232  0.00  0.00    +0.005 C 
ATOM     28  C   UNL     1      33.388 -13.964 -24.206  0.00  0.00    +0.054 C 
BRANCH  28  31
ATOM     29  O   UNL     1      33.475 -15.625 -25.831  0.00  0.00    -0.270 OA
ATOM     30  N   UNL     1      34.123 -16.202 -23.651  0.00  0.00    -0.266 N 
ATOM     31  C   UNL     1      33.668 -15.322 -24.642  0.00  0.00    +0.251 C 
ATOM     32  H   UNL     1      34.229 -15.816 -22.751  0.00  0.00    +0.157 HD
ATOM     33  N   UNL     1      34.872 -18.238 -22.673  0.00  0.00    -0.229 NA
ATOM     34  C   UNL     1      34.449 -17.576 -23.773  0.00  0.00    +0.134 C 
ATOM     35  C   UNL     1      34.313 -18.156 -25.024  0.00  0.00    +0.034 C 
ATOM     36  C   UNL     1      34.630 -19.504 -25.154  0.00  0.00    +0.004 C 
ATOM     37  C   UNL     1      35.172 -19.546 -22.838  0.00  0.00    +0.100 C 
ATOM     38  C   UNL     1      35.069 -20.219 -24.045  0.00  0.00    +0.021 C 
ENDBRANCH  28  31
ENDBRANCH   7  23
TORSDOF 4
ENDMDL
MODEL 5
REMARK VINA RESULT:      -9.4      6.020     14.655
REMARK  Name = 71226662
REMARK  4 active torsions:
REMARK  status: ('A' for Active; 'I' for Inactive)
REMARK    1  A    between atoms: C_5  and  C_15
REMARK    2  A    between atoms: C_7  and  C_23
REMARK    3  A    between atoms: C_19  and  C_20
REMARK    4  A    between atoms: C_28  and  C_31
REMARK                            x       y       z     vdW  Elec       q    Type
REMARK                         _______ _______ _______ _____ _____    ______ ____
ROOT
ATOM      1  N   UNL     1      32.777 -10.505 -23.552  0.00  0.00    -0.251 N 
ATOM      2  N   UNL     1      34.451 -11.744 -24.320  0.00  0.00    -0.392 NA
ATOM      3  N   UNL     1      30.790 -10.945 -21.667  0.00  0.00    -0.231 NA
ATOM      4  N   UNL     1      31.529 -13.090 -21.187  0.00  0.00    -0.344 N 
ATOM      5  C   UNL     1      33.842 -10.579 -24.405  0.00  0.00    +0.182 C 
ATOM      6  C   UNL     1      32.704 -11.701 -22.880  0.00  0.00    +0.185 C 
ATOM      7  C   UNL     1      33.748 -12.450 -23.371  0.00  0.00    +0.136 C 
ATOM      8  C   UNL     1      31.857  -9.510 -23.294  0.00  0.00    +0.089 C 
ATOM      9  C   UNL     1      31.655 -11.915 -21.894  0.00  0.00    +0.128 C 
ATOM     10  C   UNL     1      30.910  -9.760 -22.374  0.00  0.00    +0.116 C 
ATOM     11  H   UNL     1      30.804 -13.192 -20.529  0.00  0.00    +0.143 HD
ATOM     12  H   UNL     1      32.163 -13.827 -21.339  0.00  0.00    +0.143 HD
ENDROOT
BRANCH   5  15
ATOM     13  O   UNL     1      31.450  -8.908 -25.911  0.00  0.00    -0.260 OA
ATOM     14  N   UNL     1      33.497  -8.193 -25.083  0.00  0.00    -0.263 N 
ATOM     15  C   UNL     1      34.238  -9.435 -25.321  0.00  0.00    +0.143 C 
ATOM     16  C   UNL     1      35.706  -9.025 -25.144  0.00  0.00    +0.030 C 
ATOM     17  C   UNL     1      35.645  -7.867 -24.154  0.00  0.00    +0.024 C 
ATOM     18  C   UNL     1      34.361  -7.148 -24.540  0.00  0.00    +0.095 C 
ATOM     19  C   UNL     1      32.171  -8.027 -25.455  0.00  0.00    +0.293 C 
BRANCH  19  20
ATOM     20  C   UNL     1      31.598  -6.709 -25.291  0.00  0.00    -0.007 C 
ATOM     21  C   UNL     1      31.123  -5.616 -25.154  0.00  0.00    -0.081 C 
ATOM     22  C   UNL     1      30.543  -4.284 -24.987  0.00  0.00    +0.090 C 
ENDBRANCH  19  20
ENDBRANCH   5  15
BRANCH   7  23
ATOM     23  C   UNL     1      34.104 -13.781 -22.988  0.00  0.00    +0.028 C 
ATOM     24  C   UNL     1      34.335 -14.751 -23.965  0.00  0.00    +0.002 C 
ATOM     25  C   UNL     1      34.220 -14.111 -21.637  0.00  0.00    +0.002 C 
ATOM     26  C   UNL     1      34.681 -16.049 -23.590  0.00  0.00    +0.005 C 
ATOM     27  C   UNL     1      34.566 -15.409 -21.263  0.00  0.00    +0.005 C 
ATOM     28  C   UNL     1      34.797 -16.378 -22.239  0.00  0.00    +0.054 C 
BRANCH  28  31
ATOM     29  O   UNL     1      36.319 -18.127 -22.053  0.00  0.00    -0.270 OA
ATOM     30  N   UNL     1      34.135 -18.501 -21.283  0.00  0.00    -0.266 N 
ATOM     31  C   UNL     1      35.159 -17.731 -21.849  0.00  0.00    +0.251 C 
ATOM     32  H   UNL     1      33.265 -18.050 -21.184  0.00  0.00    +0.157 HD
ATOM     33  N   UNL     1      33.064 -20.394 -20.317  0.00  0.00    -0.229 NA
ATOM     34  C   UNL     1      34.185 -19.844 -20.835  0.00  0.00    +0.134 C 
ATOM     35  C   UNL     1      35.392 -20.514 -20.958  0.00  0.00    +0.034 C 
ATOM     36  C   UNL     1      35.452 -21.833 -20.522  0.00  0.00    +0.004 C 
ATOM     37  C   UNL     1      33.160 -21.677 -19.903  0.00  0.00    +0.100 C 
ATOM     38  C   UNL     1      34.318 -22.433 -19.983  0.00  0.00    +0.021 C 
ENDBRANCH  28  31
ENDBRANCH   7  23
TORSDOF 4
ENDMDL
MODEL 6
REMARK VINA RESULT:      -9.0      7.257     15.864
REMARK  Name = 71226662
REMARK  4 active torsions:
REMARK  status: ('A' for Active; 'I' for Inactive)
REMARK    1  A    between atoms: C_5  and  C_15
REMARK    2  A    between atoms: C_7  and  C_23
REMARK    3  A    between atoms: C_19  and  C_20
REMARK    4  A    between atoms: C_28  and  C_31
REMARK                            x       y       z     vdW  Elec       q    Type
REMARK                         _______ _______ _______ _____ _____    ______ ____
ROOT
ATOM      1  N   UNL     1      32.646  -8.860 -23.765  0.00  0.00    -0.251 N 
ATOM      2  N   UNL     1      33.841 -10.152 -25.118  0.00  0.00    -0.392 NA
ATOM      3  N   UNL     1      31.209  -9.349 -21.443  0.00  0.00    -0.231 NA
ATOM      4  N   UNL     1      31.722 -11.610 -21.438  0.00  0.00    -0.344 N 
ATOM      5  C   UNL     1      33.413  -8.926 -24.894  0.00  0.00    +0.182 C 
ATOM      6  C   UNL     1      32.582 -10.127 -23.236  0.00  0.00    +0.185 C 
ATOM      7  C   UNL     1      33.327 -10.907 -24.089  0.00  0.00    +0.136 C 
ATOM      8  C   UNL     1      31.992  -7.818 -23.142  0.00  0.00    +0.089 C 
ATOM      9  C   UNL     1      31.824 -10.365 -22.018  0.00  0.00    +0.128 C 
ATOM     10  C   UNL     1      31.307  -8.093 -22.020  0.00  0.00    +0.116 C 
ATOM     11  H   UNL     1      31.198 -11.726 -20.612  0.00  0.00    +0.143 HD
ATOM     12  H   UNL     1      32.173 -12.383 -21.848  0.00  0.00    +0.143 HD
ENDROOT
BRANCH   5  15
ATOM     13  O   UNL     1      30.884  -7.086 -25.891  0.00  0.00    -0.260 OA
ATOM     14  N   UNL     1      33.047  -6.483 -25.306  0.00  0.00    -0.263 N 
ATOM     15  C   UNL     1      33.710  -7.711 -25.754  0.00  0.00    +0.143 C 
ATOM     16  C   UNL     1      35.200  -7.344 -25.755  0.00  0.00    +0.030 C 
ATOM     17  C   UNL     1      35.313  -6.278 -24.669  0.00  0.00    +0.024 C 
ATOM     18  C   UNL     1      34.010  -5.507 -24.803  0.00  0.00    +0.095 C 
ATOM     19  C   UNL     1      31.687  -6.262 -25.468  0.00  0.00    +0.293 C 
BRANCH  19  20
ATOM     20  C   UNL     1      31.183  -4.955 -25.110  0.00  0.00    -0.007 C 
ATOM     21  C   UNL     1      30.764  -3.870 -24.812  0.00  0.00    -0.081 C 
ATOM     22  C   UNL     1      30.255  -2.548 -24.449  0.00  0.00    +0.090 C 
ENDBRANCH  19  20
ENDBRANCH   5  15
BRANCH   7  23
ATOM     23  C   UNL     1      33.572 -12.312 -23.975  0.00  0.00    +0.028 C 
ATOM     24  C   UNL     1      34.171 -12.825 -22.824  0.00  0.00    +0.002 C 
ATOM     25  C   UNL     1      33.211 -13.169 -25.015  0.00  0.00    +0.002 C 
ATOM     26  C   UNL     1      34.410 -14.195 -22.714  0.00  0.00    +0.005 C 
ATOM     27  C   UNL     1      33.449 -14.538 -24.904  0.00  0.00    +0.005 C 
ATOM     28  C   UNL     1      34.049 -15.052 -23.754  0.00  0.00    +0.054 C 
BRANCH  28  31
ATOM     29  O   UNL     1      33.893 -17.237 -24.537  0.00  0.00    -0.270 OA
ATOM     30  N   UNL     1      34.967 -16.893 -22.479  0.00  0.00    -0.266 N 
ATOM     31  C   UNL     1      34.296 -16.480 -23.638  0.00  0.00    +0.251 C 
ATOM     32  H   UNL     1      35.227 -16.176 -21.856  0.00  0.00    +0.157 HD
ATOM     33  N   UNL     1      35.972 -18.377 -20.914  0.00  0.00    -0.229 NA
ATOM     34  C   UNL     1      35.321 -18.208 -22.086  0.00  0.00    +0.134 C 
ATOM     35  C   UNL     1      34.973 -19.245 -22.937  0.00  0.00    +0.034 C 
ATOM     36  C   UNL     1      35.315 -20.538 -22.560  0.00  0.00    +0.004 C 
ATOM     37  C   UNL     1      36.289 -19.648 -20.581  0.00  0.00    +0.100 C 
ATOM     38  C   UNL     1      35.986 -20.753 -21.360  0.00  0.00    +0.021 C 
ENDBRANCH  28  31
ENDBRANCH   7  23
TORSDOF 4
ENDMDL
