MODEL 1
REMARK VINA RESULT:     -11.7      0.000      0.000
REMARK  Name = 15602701
REMARK  5 active torsions:
REMARK  status: ('A' for Active; 'I' for Inactive)
REMARK    1  A    between atoms: N_5  and  C_12
REMARK    2  A    between atoms: C_6  and  C_22
REMARK    3  A    between atoms: C_13  and  C_21
REMARK    4  A    between atoms: C_22  and  C_23
REMARK    5  A    between atoms: C_23  and  N_24
REMARK                            x       y       z     vdW  Elec       q    Type
REMARK                         _______ _______ _______ _____ _____    ______ ____
ROOT
ATOM      1  S   UNL     1      36.534 -20.576 -19.970  0.00  0.00    -0.056 S 
ATOM      2  O   UNL     1      35.137 -23.441 -16.595  0.00  0.00    -0.252 OA
ATOM      3  N   UNL     1      34.523 -21.898 -19.028  0.00  0.00    -0.223 NA
ATOM      4  N   UNL     1      36.605 -22.087 -17.830  0.00  0.00    -0.248 N 
ATOM      5  N   UNL     1      37.367 -23.192 -15.945  0.00  0.00    -0.268 N 
ATOM      6  C   UNL     1      35.041 -20.481 -20.772  0.00  0.00    +0.031 C 
ATOM      7  C   UNL     1      34.091 -21.227 -20.155  0.00  0.00    +0.103 C 
ATOM      8  C   UNL     1      35.794 -21.628 -18.834  0.00  0.00    +0.166 C 
ATOM      9  C   UNL     1      36.251 -22.961 -16.767  0.00  0.00    +0.310 C 
ATOM     10  H   UNL     1      37.540 -21.776 -17.846  0.00  0.00    +0.158 HD
ATOM     11  H   UNL     1      38.199 -22.736 -16.209  0.00  0.00    +0.156 HD
ENDROOT
BRANCH   5  12
ATOM     12  C   UNL     1      37.442 -23.998 -14.785  0.00  0.00    +0.052 C 
ATOM     13  C   UNL     1      36.667 -24.531 -12.577  0.00  0.00    +0.073 C 
ATOM     14  C   UNL     1      36.594 -23.736 -13.721  0.00  0.00    +0.019 C 
ATOM     15  C   UNL     1      38.359 -25.034 -14.737  0.00  0.00    +0.015 C 
ATOM     16  C   UNL     1      37.586 -25.579 -12.513  0.00  0.00    +0.004 C 
ATOM     17  C   UNL     1      38.433 -25.829 -13.594  0.00  0.00    +0.001 C 
BRANCH  13  21
ATOM     18  F   UNL     1      35.285 -25.396 -10.826  0.00  0.00    -0.166 F 
ATOM     19  F   UNL     1      36.354 -23.554 -10.417  0.00  0.00    -0.166 F 
ATOM     20  F   UNL     1      34.657 -23.544 -11.777  0.00  0.00    -0.166 F 
ATOM     21  C   UNL     1      35.762 -24.263 -11.422  0.00  0.00    +0.419 C 
ENDBRANCH  13  21
ENDBRANCH   5  12
BRANCH   6  22
ATOM     22  C   UNL     1      34.914 -19.630 -22.015  0.00  0.00    +0.056 C 
BRANCH  22  23
ATOM     23  C   UNL     1      35.946 -18.504 -22.064  0.00  0.00    +0.093 C 
BRANCH  23  24
ATOM     24  N   UNL     1      35.307 -17.223 -22.133  0.00  0.00    -0.320 N 
ATOM     25  N   UNL     1      33.908 -14.495 -22.426  0.00  0.00    -0.220 N 
ATOM     26  N   UNL     1      33.266 -13.417 -22.916  0.00  0.00    -0.178 NA
ATOM     27  N   UNL     1      34.823 -17.412 -24.466  0.00  0.00    -0.232 NA
ATOM     28  N   UNL     1      33.668 -15.660 -25.707  0.00  0.00    -0.245 NA
ATOM     29  C   UNL     1      34.150 -15.462 -23.356  0.00  0.00    +0.185 C 
ATOM     30  C   UNL     1      34.761 -16.702 -23.318  0.00  0.00    +0.128 C 
ATOM     31  C   UNL     1      33.621 -14.975 -24.541  0.00  0.00    +0.103 C 
ATOM     32  C   UNL     1      33.093 -13.716 -24.208  0.00  0.00    +0.134 C 
ATOM     33  C   UNL     1      34.263 -14.514 -21.026  0.00  0.00    +0.135 C 
ATOM     34  C   UNL     1      34.281 -16.855 -25.575  0.00  0.00    +0.251 C 
ATOM     35  H   UNL     1      35.248 -16.684 -21.311  0.00  0.00    +0.148 HD
ENDBRANCH  23  24
ENDBRANCH  22  23
ENDBRANCH   6  22
TORSDOF 5
ENDMDL
MODEL 2
REMARK VINA RESULT:     -11.7      4.738      7.637
REMARK  Name = 15602701
REMARK  5 active torsions:
REMARK  status: ('A' for Active; 'I' for Inactive)
REMARK    1  A    between atoms: N_5  and  C_12
REMARK    2  A    between atoms: C_6  and  C_22
REMARK    3  A    between atoms: C_13  and  C_21
REMARK    4  A    between atoms: C_22  and  C_23
REMARK    5  A    between atoms: C_23  and  N_24
REMARK                            x       y       z     vdW  Elec       q    Type
REMARK                         _______ _______ _______ _____ _____    ______ ____
ROOT
ATOM      1  S   UNL     1      33.823 -15.596 -25.149  0.00  0.00    -0.056 S 
ATOM      2  O   UNL     1      35.121 -17.109 -20.956  0.00  0.00    -0.252 OA
ATOM      3  N   UNL     1      34.483 -14.868 -22.759  0.00  0.00    -0.223 NA
ATOM      4  N   UNL     1      34.468 -17.235 -23.209  0.00  0.00    -0.248 N 
ATOM      5  N   UNL     1      34.909 -19.175 -22.027  0.00  0.00    -0.268 N 
ATOM      6  C   UNL     1      33.850 -13.941 -24.773  0.00  0.00    +0.031 C 
ATOM      7  C   UNL     1      34.217 -13.724 -23.485  0.00  0.00    +0.103 C 
ATOM      8  C   UNL     1      34.308 -15.914 -23.534  0.00  0.00    +0.166 C 
ATOM      9  C   UNL     1      34.862 -17.772 -21.954  0.00  0.00    +0.310 C 
ATOM     10  H   UNL     1      34.291 -17.887 -23.926  0.00  0.00    +0.158 HD
ATOM     11  H   UNL     1      34.674 -19.570 -22.898  0.00  0.00    +0.156 HD
ENDROOT
BRANCH   5  12
ATOM     12  C   UNL     1      35.253 -20.089 -21.003  0.00  0.00    +0.052 C 
ATOM     13  C   UNL     1      34.601 -21.767 -19.417  0.00  0.00    +0.073 C 
ATOM     14  C   UNL     1      34.261 -20.865 -20.426  0.00  0.00    +0.019 C 
ATOM     15  C   UNL     1      36.575 -20.191 -20.602  0.00  0.00    +0.015 C 
ATOM     16  C   UNL     1      35.928 -21.882 -19.001  0.00  0.00    +0.004 C 
ATOM     17  C   UNL     1      36.914 -21.093 -19.593  0.00  0.00    +0.001 C 
BRANCH  13  21
ATOM     18  F   UNL     1      33.797 -22.911 -17.475  0.00  0.00    -0.166 F 
ATOM     19  F   UNL     1      32.309 -22.033 -18.786  0.00  0.00    -0.166 F 
ATOM     20  F   UNL     1      33.390 -23.813 -19.411  0.00  0.00    -0.166 F 
ATOM     21  C   UNL     1      33.546 -22.611 -18.784  0.00  0.00    +0.419 C 
ENDBRANCH  13  21
ENDBRANCH   5  12
BRANCH   6  22
ATOM     22  C   UNL     1      33.492 -12.928 -25.836  0.00  0.00    +0.056 C 
BRANCH  22  23
ATOM     23  C   UNL     1      34.151 -11.569 -25.600  0.00  0.00    +0.093 C 
BRANCH  23  24
ATOM     24  N   UNL     1      33.471 -10.839 -24.571  0.00  0.00    -0.320 N 
ATOM     25  N   UNL     1      32.107  -9.157 -22.380  0.00  0.00    -0.220 N 
ATOM     26  N   UNL     1      31.786  -8.176 -21.516  0.00  0.00    -0.178 NA
ATOM     27  N   UNL     1      34.926  -8.949 -24.730  0.00  0.00    -0.232 NA
ATOM     28  N   UNL     1      34.660  -6.973 -23.327  0.00  0.00    -0.245 NA
ATOM     29  C   UNL     1      33.189  -8.873 -23.161  0.00  0.00    +0.185 C 
ATOM     30  C   UNL     1      33.863  -9.555 -24.157  0.00  0.00    +0.128 C 
ATOM     31  C   UNL     1      33.601  -7.607 -22.773  0.00  0.00    +0.103 C 
ATOM     32  C   UNL     1      32.702  -7.231 -21.760  0.00  0.00    +0.134 C 
ATOM     33  C   UNL     1      31.309 -10.361 -22.392  0.00  0.00    +0.135 C 
ATOM     34  C   UNL     1      35.255  -7.713 -24.287  0.00  0.00    +0.251 C 
ATOM     35  H   UNL     1      32.694 -11.257 -24.135  0.00  0.00    +0.148 HD
ENDBRANCH  23  24
ENDBRANCH  22  23
ENDBRANCH   6  22
TORSDOF 5
ENDMDL
MODEL 3
REMARK VINA RESULT:     -11.0      8.212     14.121
REMARK  Name = 15602701
REMARK  5 active torsions:
REMARK  status: ('A' for Active; 'I' for Inactive)
REMARK    1  A    between atoms: N_5  and  C_12
REMARK    2  A    between atoms: C_6  and  C_22
REMARK    3  A    between atoms: C_13  and  C_21
REMARK    4  A    between atoms: C_22  and  C_23
REMARK    5  A    between atoms: C_23  and  N_24
REMARK                            x       y       z     vdW  Elec       q    Type
REMARK                         _______ _______ _______ _____ _____    ______ ____
ROOT
ATOM      1  S   UNL     1      34.561 -15.100 -23.141  0.00  0.00    -0.056 S 
ATOM      2  O   UNL     1      33.574 -11.377 -25.733  0.00  0.00    -0.252 OA
ATOM      3  N   UNL     1      33.788 -14.304 -25.476  0.00  0.00    -0.223 NA
ATOM      4  N   UNL     1      34.226 -12.595 -23.834  0.00  0.00    -0.248 N 
ATOM      5  N   UNL     1      34.147 -10.284 -23.750  0.00  0.00    -0.268 N 
ATOM      6  C   UNL     1      34.236 -16.259 -24.338  0.00  0.00    +0.031 C 
ATOM      7  C   UNL     1      33.844 -15.684 -25.502  0.00  0.00    +0.103 C 
ATOM      8  C   UNL     1      34.145 -13.887 -24.282  0.00  0.00    +0.166 C 
ATOM      9  C   UNL     1      33.943 -11.410 -24.565  0.00  0.00    +0.310 C 
ATOM     10  H   UNL     1      34.515 -12.473 -22.900  0.00  0.00    +0.158 HD
ATOM     11  H   UNL     1      34.445 -10.466 -22.829  0.00  0.00    +0.156 HD
ENDROOT
BRANCH   5  12
ATOM     12  C   UNL     1      33.978  -8.921 -24.089  0.00  0.00    +0.052 C 
ATOM     13  C   UNL     1      32.534  -7.042 -24.468  0.00  0.00    +0.073 C 
ATOM     14  C   UNL     1      32.701  -8.386 -24.134  0.00  0.00    +0.019 C 
ATOM     15  C   UNL     1      35.093  -8.148 -24.367  0.00  0.00    +0.015 C 
ATOM     16  C   UNL     1      33.647  -6.250 -24.751  0.00  0.00    +0.004 C 
ATOM     17  C   UNL     1      34.927  -6.804 -24.701  0.00  0.00    +0.001 C 
BRANCH  13  21
ATOM     18  F   UNL     1      30.458  -6.602 -23.361  0.00  0.00    -0.166 F 
ATOM     19  F   UNL     1      31.162  -5.106 -24.765  0.00  0.00    -0.166 F 
ATOM     20  F   UNL     1      30.391  -7.003 -25.497  0.00  0.00    -0.166 F 
ATOM     21  C   UNL     1      31.166  -6.450 -24.520  0.00  0.00    +0.419 C 
ENDBRANCH  13  21
ENDBRANCH   5  12
BRANCH   6  22
ATOM     22  C   UNL     1      34.405 -17.727 -24.021  0.00  0.00    +0.056 C 
BRANCH  22  23
ATOM     23  C   UNL     1      35.089 -17.963 -22.675  0.00  0.00    +0.093 C 
BRANCH  23  24
ATOM     24  N   UNL     1      34.394 -18.958 -21.912  0.00  0.00    -0.320 N 
ATOM     25  N   UNL     1      33.033 -21.138 -20.214  0.00  0.00    -0.220 N 
ATOM     26  N   UNL     1      32.798 -22.156 -19.365  0.00  0.00    -0.178 NA
ATOM     27  N   UNL     1      36.387 -19.792 -20.889  0.00  0.00    -0.232 NA
ATOM     28  N   UNL     1      36.362 -21.634 -19.290  0.00  0.00    -0.245 NA
ATOM     29  C   UNL     1      34.350 -20.798 -20.316  0.00  0.00    +0.185 C 
ATOM     30  C   UNL     1      35.045 -19.847 -21.040  0.00  0.00    +0.128 C 
ATOM     31  C   UNL     1      35.021 -21.661 -19.464  0.00  0.00    +0.103 C 
ATOM     32  C   UNL     1      34.015 -22.472 -18.909  0.00  0.00    +0.134 C 
ATOM     33  C   UNL     1      31.916 -20.537 -20.904  0.00  0.00    +0.135 C 
ATOM     34  C   UNL     1      36.955 -20.677 -20.035  0.00  0.00    +0.251 C 
ATOM     35  H   UNL     1      33.416 -19.021 -22.003  0.00  0.00    +0.148 HD
ENDBRANCH  23  24
ENDBRANCH  22  23
ENDBRANCH   6  22
TORSDOF 5
ENDMDL
MODEL 4
REMARK VINA RESULT:     -10.9      7.357     13.272
REMARK  Name = 15602701
REMARK  5 active torsions:
REMARK  status: ('A' for Active; 'I' for Inactive)
REMARK    1  A    between atoms: N_5  and  C_12
REMARK    2  A    between atoms: C_6  and  C_22
REMARK    3  A    between atoms: C_13  and  C_21
REMARK    4  A    between atoms: C_22  and  C_23
REMARK    5  A    between atoms: C_23  and  N_24
REMARK                            x       y       z     vdW  Elec       q    Type
REMARK                         _______ _______ _______ _____ _____    ______ ____
ROOT
ATOM      1  S   UNL     1      34.996 -16.242 -22.359  0.00  0.00    -0.056 S 
ATOM      2  O   UNL     1      33.541 -13.149 -25.502  0.00  0.00    -0.252 OA
ATOM      3  N   UNL     1      34.334 -15.907 -24.835  0.00  0.00    -0.223 NA
ATOM      4  N   UNL     1      34.222 -13.969 -23.408  0.00  0.00    -0.248 N 
ATOM      5  N   UNL     1      33.651 -11.739 -23.643  0.00  0.00    -0.268 N 
ATOM      6  C   UNL     1      35.055 -17.572 -23.412  0.00  0.00    +0.031 C 
ATOM      7  C   UNL     1      34.681 -17.234 -24.671  0.00  0.00    +0.103 C 
ATOM      8  C   UNL     1      34.462 -15.289 -23.683  0.00  0.00    +0.166 C 
ATOM      9  C   UNL     1      33.778 -12.967 -24.313  0.00  0.00    +0.310 C 
ATOM     10  H   UNL     1      34.374 -13.681 -22.478  0.00  0.00    +0.158 HD
ATOM     11  H   UNL     1      33.878 -11.744 -22.685  0.00  0.00    +0.156 HD
ENDROOT
BRANCH   5  12
ATOM     12  C   UNL     1      33.238 -10.494 -24.176  0.00  0.00    +0.052 C 
ATOM     13  C   UNL     1      32.196  -8.354 -23.876  0.00  0.00    +0.073 C 
ATOM     14  C   UNL     1      32.602  -9.581 -23.351  0.00  0.00    +0.019 C 
ATOM     15  C   UNL     1      33.481 -10.215 -25.510  0.00  0.00    +0.015 C 
ATOM     16  C   UNL     1      32.433  -8.057 -25.218  0.00  0.00    +0.004 C 
ATOM     17  C   UNL     1      33.075  -8.988 -26.035  0.00  0.00    +0.001 C 
BRANCH  13  21
ATOM     18  F   UNL     1      31.275  -7.812 -21.735  0.00  0.00    -0.166 F 
ATOM     19  F   UNL     1      32.214  -6.199 -22.839  0.00  0.00    -0.166 F 
ATOM     20  F   UNL     1      30.293  -6.982 -23.489  0.00  0.00    -0.166 F 
ATOM     21  C   UNL     1      31.511  -7.358 -23.002  0.00  0.00    +0.419 C 
ENDBRANCH  13  21
ENDBRANCH   5  12
BRANCH   6  22
ATOM     22  C   UNL     1      35.492 -18.920 -22.887  0.00  0.00    +0.056 C 
BRANCH  22  23
ATOM     23  C   UNL     1      36.380 -18.810 -21.648  0.00  0.00    +0.093 C 
BRANCH  23  24
ATOM     24  N   UNL     1      36.085 -19.850 -20.708  0.00  0.00    -0.320 N 
ATOM     25  N   UNL     1      35.307 -22.081 -18.732  0.00  0.00    -0.220 N 
ATOM     26  N   UNL     1      34.622 -22.995 -18.018  0.00  0.00    -0.178 NA
ATOM     27  N   UNL     1      33.761 -19.913 -21.266  0.00  0.00    -0.232 NA
ATOM     28  N   UNL     1      32.199 -21.440 -20.185  0.00  0.00    -0.245 NA
ATOM     29  C   UNL     1      34.538 -21.385 -19.618  0.00  0.00    +0.185 C 
ATOM     30  C   UNL     1      34.796 -20.381 -20.533  0.00  0.00    +0.128 C 
ATOM     31  C   UNL     1      33.256 -21.887 -19.468  0.00  0.00    +0.103 C 
ATOM     32  C   UNL     1      33.370 -22.872 -18.471  0.00  0.00    +0.134 C 
ATOM     33  C   UNL     1      36.725 -21.936 -18.497  0.00  0.00    +0.135 C 
ATOM     34  C   UNL     1      32.543 -20.463 -21.050  0.00  0.00    +0.251 C 
ATOM     35  H   UNL     1      36.820 -20.209 -20.160  0.00  0.00    +0.148 HD
ENDBRANCH  23  24
ENDBRANCH  22  23
ENDBRANCH   6  22
TORSDOF 5
ENDMDL
MODEL 5
REMARK VINA RESULT:     -10.7      5.669      8.718
REMARK  Name = 15602701
REMARK  5 active torsions:
REMARK  status: ('A' for Active; 'I' for Inactive)
REMARK    1  A    between atoms: N_5  and  C_12
REMARK    2  A    between atoms: C_6  and  C_22
REMARK    3  A    between atoms: C_13  and  C_21
REMARK    4  A    between atoms: C_22  and  C_23
REMARK    5  A    between atoms: C_23  and  N_24
REMARK                            x       y       z     vdW  Elec       q    Type
REMARK                         _______ _______ _______ _____ _____    ______ ____
ROOT
ATOM      1  S   UNL     1      33.712 -14.081 -25.683  0.00  0.00    -0.056 S 
ATOM      2  O   UNL     1      34.952 -15.972 -21.628  0.00  0.00    -0.252 OA
ATOM      3  N   UNL     1      34.341 -13.575 -23.227  0.00  0.00    -0.223 NA
ATOM      4  N   UNL     1      34.329 -15.891 -23.891  0.00  0.00    -0.248 N 
ATOM      5  N   UNL     1      34.752 -17.931 -22.884  0.00  0.00    -0.268 N 
ATOM      6  C   UNL     1      33.736 -12.467 -25.158  0.00  0.00    +0.031 C 
ATOM      7  C   UNL     1      34.085 -12.369 -23.850  0.00  0.00    +0.103 C 
ATOM      8  C   UNL     1      34.176 -14.546 -24.097  0.00  0.00    +0.166 C 
ATOM      9  C   UNL     1      34.706 -16.541 -22.685  0.00  0.00    +0.310 C 
ATOM     10  H   UNL     1      34.161 -16.475 -24.667  0.00  0.00    +0.158 HD
ATOM     11  H   UNL     1      34.529 -18.245 -23.790  0.00  0.00    +0.156 HD
ENDROOT
BRANCH   5  12
ATOM     12  C   UNL     1      35.082 -18.936 -21.943  0.00  0.00    +0.052 C 
ATOM     13  C   UNL     1      34.391 -20.663 -20.428  0.00  0.00    +0.073 C 
ATOM     14  C   UNL     1      34.066 -19.673 -21.355  0.00  0.00    +0.019 C 
ATOM     15  C   UNL     1      36.412 -19.163 -21.632  0.00  0.00    +0.015 C 
ATOM     16  C   UNL     1      35.727 -20.905 -20.103  0.00  0.00    +0.004 C 
ATOM     17  C   UNL     1      36.737 -20.153 -20.705  0.00  0.00    +0.001 C 
BRANCH  13  21
ATOM     18  F   UNL     1      32.192 -20.743 -19.490  0.00  0.00    -0.166 F 
ATOM     19  F   UNL     1      32.872 -22.506 -20.555  0.00  0.00    -0.166 F 
ATOM     20  F   UNL     1      33.706 -22.028 -18.605  0.00  0.00    -0.166 F 
ATOM     21  C   UNL     1      33.312 -21.467 -19.785  0.00  0.00    +0.419 C 
ENDBRANCH  13  21
ENDBRANCH   5  12
BRANCH   6  22
ATOM     22  C   UNL     1      33.394 -11.361 -26.128  0.00  0.00    +0.056 C 
BRANCH  22  23
ATOM     23  C   UNL     1      33.325  -9.990 -25.458  0.00  0.00    +0.093 C 
BRANCH  23  24
ATOM     24  N   UNL     1      32.699 -10.076 -24.172  0.00  0.00    -0.320 N 
ATOM     25  N   UNL     1      31.406 -10.124 -21.376  0.00  0.00    -0.220 N 
ATOM     26  N   UNL     1      31.003  -9.802 -20.132  0.00  0.00    -0.178 NA
ATOM     27  N   UNL     1      33.455  -7.916 -23.482  0.00  0.00    -0.232 NA
ATOM     28  N   UNL     1      32.925  -6.983 -21.293  0.00  0.00    -0.245 NA
ATOM     29  C   UNL     1      32.158  -9.160 -21.980  0.00  0.00    +0.185 C 
ATOM     30  C   UNL     1      32.771  -9.051 -23.214  0.00  0.00    +0.128 C 
ATOM     31  C   UNL     1      32.248  -8.131 -21.056  0.00  0.00    +0.103 C 
ATOM     32  C   UNL     1      31.520  -8.583 -19.942  0.00  0.00    +0.134 C 
ATOM     33  C   UNL     1      31.019 -11.405 -21.921  0.00  0.00    +0.135 C 
ATOM     34  C   UNL     1      33.489  -6.965 -22.519  0.00  0.00    +0.251 C 
ATOM     35  H   UNL     1      32.195 -10.892 -23.949  0.00  0.00    +0.148 HD
ENDBRANCH  23  24
ENDBRANCH  22  23
ENDBRANCH   6  22
TORSDOF 5
ENDMDL
MODEL 6
REMARK VINA RESULT:     -10.7      7.934     13.689
REMARK  Name = 15602701
REMARK  5 active torsions:
REMARK  status: ('A' for Active; 'I' for Inactive)
REMARK    1  A    between atoms: N_5  and  C_12
REMARK    2  A    between atoms: C_6  and  C_22
REMARK    3  A    between atoms: C_13  and  C_21
REMARK    4  A    between atoms: C_22  and  C_23
REMARK    5  A    between atoms: C_23  and  N_24
REMARK                            x       y       z     vdW  Elec       q    Type
REMARK                         _______ _______ _______ _____ _____    ______ ____
ROOT
ATOM      1  S   UNL     1      34.687 -15.898 -22.614  0.00  0.00    -0.056 S 
ATOM      2  O   UNL     1      33.512 -12.215 -25.186  0.00  0.00    -0.252 OA
ATOM      3  N   UNL     1      34.280 -15.055 -25.024  0.00  0.00    -0.223 NA
ATOM      4  N   UNL     1      33.986 -13.454 -23.247  0.00  0.00    -0.248 N 
ATOM      5  N   UNL     1      33.404 -11.221 -23.075  0.00  0.00    -0.268 N 
ATOM      6  C   UNL     1      34.879 -16.982 -23.907  0.00  0.00    +0.031 C 
ATOM      7  C   UNL     1      34.632 -16.388 -25.101  0.00  0.00    +0.103 C 
ATOM      8  C   UNL     1      34.277 -14.689 -23.761  0.00  0.00    +0.166 C 
ATOM      9  C   UNL     1      33.621 -12.284 -23.967  0.00  0.00    +0.310 C 
ATOM     10  H   UNL     1      34.036 -13.365 -22.267  0.00  0.00    +0.158 HD
ATOM     11  H   UNL     1      33.530 -11.425 -22.120  0.00  0.00    +0.156 HD
ENDROOT
BRANCH   5  12
ATOM     12  C   UNL     1      33.027  -9.891 -23.379  0.00  0.00    +0.052 C 
ATOM     13  C   UNL     1      33.612  -7.695 -24.149  0.00  0.00    +0.073 C 
ATOM     14  C   UNL     1      33.984  -9.006 -23.848  0.00  0.00    +0.019 C 
ATOM     15  C   UNL     1      31.709  -9.504 -23.205  0.00  0.00    +0.015 C 
ATOM     16  C   UNL     1      32.288  -7.289 -23.979  0.00  0.00    +0.004 C 
ATOM     17  C   UNL     1      31.337  -8.193 -23.506  0.00  0.00    +0.001 C 
BRANCH  13  21
ATOM     18  F   UNL     1      34.900  -6.866 -25.987  0.00  0.00    -0.166 F 
ATOM     19  F   UNL     1      34.264  -5.421 -24.500  0.00  0.00    -0.166 F 
ATOM     20  F   UNL     1      35.831  -6.851 -24.022  0.00  0.00    -0.166 F 
ATOM     21  C   UNL     1      34.628  -6.728 -24.655  0.00  0.00    +0.419 C 
ENDBRANCH  13  21
ENDBRANCH   5  12
BRANCH   6  22
ATOM     22  C   UNL     1      35.283 -18.411 -23.629  0.00  0.00    +0.056 C 
BRANCH  22  23
ATOM     23  C   UNL     1      35.706 -18.631 -22.177  0.00  0.00    +0.093 C 
BRANCH  23  24
ATOM     24  N   UNL     1      34.774 -19.477 -21.491  0.00  0.00    -0.320 N 
ATOM     25  N   UNL     1      32.887 -21.354 -19.940  0.00  0.00    -0.220 N 
ATOM     26  N   UNL     1      32.390 -22.283 -19.103  0.00  0.00    -0.178 NA
ATOM     27  N   UNL     1      36.463 -20.532 -20.168  0.00  0.00    -0.232 NA
ATOM     28  N   UNL     1      35.949 -22.268 -18.535  0.00  0.00    -0.245 NA
ATOM     29  C   UNL     1      34.241 -21.209 -19.863  0.00  0.00    +0.185 C 
ATOM     30  C   UNL     1      35.161 -20.404 -20.508  0.00  0.00    +0.128 C 
ATOM     31  C   UNL     1      34.654 -22.114 -18.898  0.00  0.00    +0.103 C 
ATOM     32  C   UNL     1      33.474 -22.745 -18.468  0.00  0.00    +0.134 C 
ATOM     33  C   UNL     1      31.976 -20.636 -20.800  0.00  0.00    +0.135 C 
ATOM     34  C   UNL     1      36.772 -21.444 -19.216  0.00  0.00    +0.251 C 
ATOM     35  H   UNL     1      33.820 -19.405 -21.719  0.00  0.00    +0.148 HD
ENDBRANCH  23  24
ENDBRANCH  22  23
ENDBRANCH   6  22
TORSDOF 5
ENDMDL
MODEL 7
REMARK VINA RESULT:     -10.7      3.727      4.295
REMARK  Name = 15602701
REMARK  5 active torsions:
REMARK  status: ('A' for Active; 'I' for Inactive)
REMARK    1  A    between atoms: N_5  and  C_12
REMARK    2  A    between atoms: C_6  and  C_22
REMARK    3  A    between atoms: C_13  and  C_21
REMARK    4  A    between atoms: C_22  and  C_23
REMARK    5  A    between atoms: C_23  and  N_24
REMARK                            x       y       z     vdW  Elec       q    Type
REMARK                         _______ _______ _______ _____ _____    ______ ____
ROOT
ATOM      1  S   UNL     1      35.411 -21.050 -20.321  0.00  0.00    -0.056 S 
ATOM      2  O   UNL     1      31.563 -22.365 -18.079  0.00  0.00    -0.252 OA
ATOM      3  N   UNL     1      32.832 -20.879 -20.285  0.00  0.00    -0.223 NA
ATOM      4  N   UNL     1      33.858 -22.203 -18.552  0.00  0.00    -0.248 N 
ATOM      5  N   UNL     1      33.140 -23.450 -16.740  0.00  0.00    -0.268 N 
ATOM      6  C   UNL     1      34.632 -20.131 -21.517  0.00  0.00    +0.031 C 
ATOM      7  C   UNL     1      33.285 -20.140 -21.360  0.00  0.00    +0.103 C 
ATOM      8  C   UNL     1      33.865 -21.404 -19.665  0.00  0.00    +0.166 C 
ATOM      9  C   UNL     1      32.727 -22.645 -17.815  0.00  0.00    +0.310 C 
ATOM     10  H   UNL     1      34.737 -22.506 -18.226  0.00  0.00    +0.158 HD
ATOM     11  H   UNL     1      34.111 -23.588 -16.652  0.00  0.00    +0.156 HD
ENDROOT
BRANCH   5  12
ATOM     12  C   UNL     1      32.332 -24.086 -15.768  0.00  0.00    +0.052 C 
ATOM     13  C   UNL     1      30.175 -24.841 -15.035  0.00  0.00    +0.073 C 
ATOM     14  C   UNL     1      30.971 -24.213 -15.994  0.00  0.00    +0.019 C 
ATOM     15  C   UNL     1      32.919 -24.571 -14.611  0.00  0.00    +0.015 C 
ATOM     16  C   UNL     1      30.751 -25.334 -13.865  0.00  0.00    +0.004 C 
ATOM     17  C   UNL     1      32.124 -25.198 -13.652  0.00  0.00    +0.001 C 
BRANCH  13  21
ATOM     18  F   UNL     1      28.113 -25.893 -14.431  0.00  0.00    -0.166 F 
ATOM     19  F   UNL     1      28.010 -23.827 -15.085  0.00  0.00    -0.166 F 
ATOM     20  F   UNL     1      28.412 -25.403 -16.528  0.00  0.00    -0.166 F 
ATOM     21  C   UNL     1      28.708 -24.987 -15.263  0.00  0.00    +0.419 C 
ENDBRANCH  13  21
ENDBRANCH   5  12
BRANCH   6  22
ATOM     22  C   UNL     1      35.454 -19.432 -22.574  0.00  0.00    +0.056 C 
BRANCH  22  23
ATOM     23  C   UNL     1      36.254 -18.256 -22.016  0.00  0.00    +0.093 C 
BRANCH  23  24
ATOM     24  N   UNL     1      35.497 -17.041 -22.082  0.00  0.00    -0.320 N 
ATOM     25  N   UNL     1      33.845 -14.457 -22.371  0.00  0.00    -0.220 N 
ATOM     26  N   UNL     1      33.099 -13.447 -22.858  0.00  0.00    -0.178 NA
ATOM     27  N   UNL     1      35.011 -17.285 -24.410  0.00  0.00    -0.232 NA
ATOM     28  N   UNL     1      33.684 -15.654 -25.646  0.00  0.00    -0.245 NA
ATOM     29  C   UNL     1      34.168 -15.402 -23.300  0.00  0.00    +0.185 C 
ATOM     30  C   UNL     1      34.893 -16.579 -23.263  0.00  0.00    +0.128 C 
ATOM     31  C   UNL     1      33.584 -14.972 -24.481  0.00  0.00    +0.103 C 
ATOM     32  C   UNL     1      32.943 -13.767 -24.148  0.00  0.00    +0.134 C 
ATOM     33  C   UNL     1      34.213 -14.438 -20.974  0.00  0.00    +0.135 C 
ATOM     34  C   UNL     1      34.408 -16.786 -25.515  0.00  0.00    +0.251 C 
ATOM     35  H   UNL     1      35.395 -16.506 -21.262  0.00  0.00    +0.148 HD
ENDBRANCH  23  24
ENDBRANCH  22  23
ENDBRANCH   6  22
TORSDOF 5
ENDMDL
MODEL 8
REMARK VINA RESULT:     -10.7      0.689      1.917
REMARK  Name = 15602701
REMARK  5 active torsions:
REMARK  status: ('A' for Active; 'I' for Inactive)
REMARK    1  A    between atoms: N_5  and  C_12
REMARK    2  A    between atoms: C_6  and  C_22
REMARK    3  A    between atoms: C_13  and  C_21
REMARK    4  A    between atoms: C_22  and  C_23
REMARK    5  A    between atoms: C_23  and  N_24
REMARK                            x       y       z     vdW  Elec       q    Type
REMARK                         _______ _______ _______ _____ _____    ______ ____
ROOT
ATOM      1  S   UNL     1      36.455 -20.586 -20.074  0.00  0.00    -0.056 S 
ATOM      2  O   UNL     1      35.130 -23.402 -16.628  0.00  0.00    -0.252 OA
ATOM      3  N   UNL     1      34.466 -21.899 -19.073  0.00  0.00    -0.223 NA
ATOM      4  N   UNL     1      36.571 -22.063 -17.912  0.00  0.00    -0.248 N 
ATOM      5  N   UNL     1      37.371 -23.136 -16.024  0.00  0.00    -0.268 N 
ATOM      6  C   UNL     1      34.947 -20.509 -20.849  0.00  0.00    +0.031 C 
ATOM      7  C   UNL     1      34.011 -21.248 -20.203  0.00  0.00    +0.103 C 
ATOM      8  C   UNL     1      35.740 -21.623 -18.907  0.00  0.00    +0.166 C 
ATOM      9  C   UNL     1      36.240 -22.921 -16.829  0.00  0.00    +0.310 C 
ATOM     10  H   UNL     1      37.504 -21.749 -17.950  0.00  0.00    +0.158 HD
ATOM     11  H   UNL     1      38.197 -22.682 -16.310  0.00  0.00    +0.156 HD
ENDROOT
BRANCH   5  12
ATOM     12  C   UNL     1      37.470 -23.924 -14.853  0.00  0.00    +0.052 C 
ATOM     13  C   UNL     1      36.728 -24.434 -12.629  0.00  0.00    +0.073 C 
ATOM     14  C   UNL     1      36.630 -23.657 -13.783  0.00  0.00    +0.019 C 
ATOM     15  C   UNL     1      38.403 -24.945 -14.800  0.00  0.00    +0.015 C 
ATOM     16  C   UNL     1      37.663 -25.468 -12.560  0.00  0.00    +0.004 C 
ATOM     17  C   UNL     1      38.501 -25.723 -13.646  0.00  0.00    +0.001 C 
BRANCH  13  21
ATOM     18  F   UNL     1      34.689 -23.493 -11.804  0.00  0.00    -0.166 F 
ATOM     19  F   UNL     1      35.407 -25.293 -10.829  0.00  0.00    -0.166 F 
ATOM     20  F   UNL     1      36.432 -23.402 -10.507  0.00  0.00    -0.166 F 
ATOM     21  C   UNL     1      35.831 -24.163 -11.468  0.00  0.00    +0.419 C 
ENDBRANCH  13  21
ENDBRANCH   5  12
BRANCH   6  22
ATOM     22  C   UNL     1      34.794 -19.678 -22.102  0.00  0.00    +0.056 C 
BRANCH  22  23
ATOM     23  C   UNL     1      35.662 -18.421 -22.084  0.00  0.00    +0.093 C 
BRANCH  23  24
ATOM     24  N   UNL     1      35.115 -17.405 -22.933  0.00  0.00    -0.320 N 
ATOM     25  N   UNL     1      33.918 -15.135 -24.637  0.00  0.00    -0.220 N 
ATOM     26  N   UNL     1      33.357 -13.979 -25.041  0.00  0.00    -0.178 NA
ATOM     27  N   UNL     1      34.654 -15.915 -21.121  0.00  0.00    -0.232 NA
ATOM     28  N   UNL     1      33.640 -13.723 -21.458  0.00  0.00    -0.245 NA
ATOM     29  C   UNL     1      34.103 -15.217 -23.288  0.00  0.00    +0.185 C 
ATOM     30  C   UNL     1      34.626 -16.181 -22.447  0.00  0.00    +0.128 C 
ATOM     31  C   UNL     1      33.627 -14.020 -22.778  0.00  0.00    +0.103 C 
ATOM     32  C   UNL     1      33.181 -13.302 -23.901  0.00  0.00    +0.134 C 
ATOM     33  C   UNL     1      34.250 -16.130 -25.631  0.00  0.00    +0.135 C 
ATOM     34  C   UNL     1      34.166 -14.719 -20.714  0.00  0.00    +0.251 C 
ATOM     35  H   UNL     1      35.082 -17.571 -23.903  0.00  0.00    +0.148 HD
ENDBRANCH  23  24
ENDBRANCH  22  23
ENDBRANCH   6  22
TORSDOF 5
ENDMDL
MODEL 9
REMARK VINA RESULT:     -10.6      1.978      2.428
REMARK  Name = 15602701
REMARK  5 active torsions:
REMARK  status: ('A' for Active; 'I' for Inactive)
REMARK    1  A    between atoms: N_5  and  C_12
REMARK    2  A    between atoms: C_6  and  C_22
REMARK    3  A    between atoms: C_13  and  C_21
REMARK    4  A    between atoms: C_22  and  C_23
REMARK    5  A    between atoms: C_23  and  N_24
REMARK                            x       y       z     vdW  Elec       q    Type
REMARK                         _______ _______ _______ _____ _____    ______ ____
ROOT
ATOM      1  S   UNL     1      33.927 -20.932 -20.694  0.00  0.00    -0.056 S 
ATOM      2  O   UNL     1      36.742 -22.173 -17.217  0.00  0.00    -0.252 OA
ATOM      3  N   UNL     1      36.323 -20.725 -19.748  0.00  0.00    -0.223 NA
ATOM      4  N   UNL     1      34.761 -22.044 -18.472  0.00  0.00    -0.248 N 
ATOM      5  N   UNL     1      34.802 -23.263 -16.506  0.00  0.00    -0.268 N 
ATOM      6  C   UNL     1      35.071 -20.015 -21.549  0.00  0.00    +0.031 C 
ATOM      7  C   UNL     1      36.275 -20.005 -20.926  0.00  0.00    +0.103 C 
ATOM      8  C   UNL     1      35.142 -21.257 -19.527  0.00  0.00    +0.166 C 
ATOM      9  C   UNL     1      35.562 -22.465 -17.377  0.00  0.00    +0.310 C 
ATOM     10  H   UNL     1      33.826 -22.355 -18.474  0.00  0.00    +0.158 HD
ATOM     11  H   UNL     1      33.864 -23.413 -16.765  0.00  0.00    +0.156 HD
ENDROOT
BRANCH   5  12
ATOM     12  C   UNL     1      35.218 -23.879 -15.302  0.00  0.00    +0.052 C 
ATOM     13  C   UNL     1      36.862 -25.117 -14.067  0.00  0.00    +0.073 C 
ATOM     14  C   UNL     1      36.451 -24.510 -15.254  0.00  0.00    +0.019 C 
ATOM     15  C   UNL     1      34.386 -23.837 -14.196  0.00  0.00    +0.015 C 
ATOM     16  C   UNL     1      36.035 -25.083 -12.944  0.00  0.00    +0.004 C 
ATOM     17  C   UNL     1      34.797 -24.443 -13.009  0.00  0.00    +0.001 C 
BRANCH  13  21
ATOM     18  F   UNL     1      38.255 -26.938 -14.749  0.00  0.00    -0.166 F 
ATOM     19  F   UNL     1      39.224 -25.025 -14.428  0.00  0.00    -0.166 F 
ATOM     20  F   UNL     1      38.514 -26.180 -12.728  0.00  0.00    -0.166 F 
ATOM     21  C   UNL     1      38.186 -25.800 -13.997  0.00  0.00    +0.419 C 
ENDBRANCH  13  21
ENDBRANCH   5  12
BRANCH   6  22
ATOM     22  C   UNL     1      34.671 -19.341 -22.841  0.00  0.00    +0.056 C 
BRANCH  22  23
ATOM     23  C   UNL     1      35.583 -18.168 -23.200  0.00  0.00    +0.093 C 
BRANCH  23  24
ATOM     24  N   UNL     1      34.991 -16.920 -22.818  0.00  0.00    -0.320 N 
ATOM     25  N   UNL     1      33.683 -14.214 -22.143  0.00  0.00    -0.220 N 
ATOM     26  N   UNL     1      33.054 -13.026 -22.225  0.00  0.00    -0.178 NA
ATOM     27  N   UNL     1      34.364 -16.353 -25.054  0.00  0.00    -0.232 NA
ATOM     28  N   UNL     1      33.205 -14.278 -25.600  0.00  0.00    -0.245 NA
ATOM     29  C   UNL     1      33.832 -14.843 -23.345  0.00  0.00    +0.185 C 
ATOM     30  C   UNL     1      34.396 -16.042 -23.739  0.00  0.00    +0.128 C 
ATOM     31  C   UNL     1      33.254 -13.997 -24.277  0.00  0.00    +0.103 C 
ATOM     32  C   UNL     1      32.794 -12.898 -23.531  0.00  0.00    +0.134 C 
ATOM     33  C   UNL     1      34.118 -14.682 -20.848  0.00  0.00    +0.135 C 
ATOM     34  C   UNL     1      33.778 -15.465 -25.892  0.00  0.00    +0.251 C 
ATOM     35  H   UNL     1      35.001 -16.667 -21.867  0.00  0.00    +0.148 HD
ENDBRANCH  23  24
ENDBRANCH  22  23
ENDBRANCH   6  22
TORSDOF 5
ENDMDL
