MODEL 1
REMARK VINA RESULT:     -12.1      0.000      0.000
REMARK  Name = 5326868
REMARK  6 active torsions:
REMARK  status: ('A' for Active; 'I' for Inactive)
REMARK    1  A    between atoms: C_2  and  C_28
REMARK    2  A    between atoms: C_7  and  N_12
REMARK    3  A    between atoms: C_13  and  C_18
REMARK    4  A    between atoms: C_16  and  N_23
REMARK    5  A    between atoms: C_28  and  C_29
REMARK    6  A    between atoms: C_29  and  C_31
REMARK                            x       y       z     vdW  Elec       q    Type
REMARK                         _______ _______ _______ _____ _____    ______ ____
ROOT
ATOM      1  N   UNL     1      34.760 -17.681 -25.067  0.00  0.00    -0.312 N 
ATOM      2  C   UNL     1      35.084 -17.577 -22.873  0.00  0.00    -0.006 C 
ATOM      3  C   UNL     1      34.485 -16.356 -23.293  0.00  0.00    +0.012 C 
ATOM      4  C   UNL     1      34.293 -16.447 -24.673  0.00  0.00    +0.048 C 
ATOM      5  C   UNL     1      35.240 -18.371 -23.986  0.00  0.00    +0.058 C 
ATOM      6  C   UNL     1      34.088 -15.178 -22.630  0.00  0.00    +0.016 C 
ATOM      7  C   UNL     1      33.514 -14.138 -23.369  0.00  0.00    +0.051 C 
ATOM      8  C   UNL     1      33.721 -15.415 -25.426  0.00  0.00    +0.016 C 
ATOM      9  C   UNL     1      33.334 -14.257 -24.746  0.00  0.00    +0.016 C 
ATOM     10  H   UNL     1      34.751 -18.018 -25.991  0.00  0.00    +0.152 HD
ENDROOT
BRANCH   7  12
ATOM     11  O   UNL     1      31.530 -13.725 -21.160  0.00  0.00    -0.270 OA
ATOM     12  N   UNL     1      33.118 -12.967 -22.719  0.00  0.00    -0.280 N 
ATOM     13  C   UNL     1      32.181 -12.830 -21.687  0.00  0.00    +0.250 C 
ATOM     14  H   UNL     1      33.550 -12.137 -23.024  0.00  0.00    +0.155 HD
BRANCH  13  18
ATOM     15  F   UNL     1      31.182  -9.687 -18.151  0.00  0.00    -0.204 F 
ATOM     16  C   UNL     1      31.820  -9.100 -21.684  0.00  0.00    +0.050 C 
ATOM     17  C   UNL     1      32.033 -10.406 -22.128  0.00  0.00    +0.019 C 
ATOM     18  C   UNL     1      31.953 -11.438 -21.217  0.00  0.00    +0.057 C 
ATOM     19  C   UNL     1      31.532  -8.858 -20.341  0.00  0.00    +0.044 C 
ATOM     20  C   UNL     1      31.670 -11.225 -19.884  0.00  0.00    +0.034 C 
ATOM     21  C   UNL     1      31.457  -9.921 -19.440  0.00  0.00    +0.142 C 
BRANCH  16  23
ATOM     22  O   UNL     1      31.853  -5.768 -24.249  0.00  0.00    -0.350 OA
ATOM     23  N   UNL     1      31.896  -8.034 -22.587  0.00  0.00    -0.303 N 
ATOM     24  C   UNL     1      32.738  -6.873 -22.277  0.00  0.00    +0.123 C 
ATOM     25  C   UNL     1      30.724  -7.751 -23.427  0.00  0.00    +0.123 C 
ATOM     26  C   UNL     1      33.055  -6.110 -23.560  0.00  0.00    +0.164 C 
ATOM     27  C   UNL     1      31.149  -6.944 -24.648  0.00  0.00    +0.164 C 
ENDBRANCH  16  23
ENDBRANCH  13  18
ENDBRANCH   7  12
BRANCH   2  28
ATOM     28  C   UNL     1      35.471 -17.937 -21.494  0.00  0.00    +0.032 C 
BRANCH  28  29
ATOM     29  C   UNL     1      35.932 -19.401 -21.320  0.00  0.00    +0.031 C 
BRANCH  29  31
ATOM     30  N   UNL     1      32.901 -21.944 -19.673  0.00  0.00    -0.242 NA
ATOM     31  C   UNL     1      34.865 -20.296 -20.740  0.00  0.00    -0.019 C 
ATOM     32  C   UNL     1      33.537 -20.035 -21.014  0.00  0.00    +0.016 C 
ATOM     33  C   UNL     1      35.232 -21.363 -19.943  0.00  0.00    +0.016 C 
ATOM     34  C   UNL     1      32.595 -20.886 -20.459  0.00  0.00    +0.099 C 
ATOM     35  C   UNL     1      34.215 -22.155 -19.435  0.00  0.00    +0.099 C 
ENDBRANCH  29  31
ENDBRANCH  28  29
ENDBRANCH   2  28
TORSDOF 6
ENDMDL
MODEL 2
REMARK VINA RESULT:     -11.5      4.530     11.486
REMARK  Name = 5326868
REMARK  6 active torsions:
REMARK  status: ('A' for Active; 'I' for Inactive)
REMARK    1  A    between atoms: C_2  and  C_28
REMARK    2  A    between atoms: C_7  and  N_12
REMARK    3  A    between atoms: C_13  and  C_18
REMARK    4  A    between atoms: C_16  and  N_23
REMARK    5  A    between atoms: C_28  and  C_29
REMARK    6  A    between atoms: C_29  and  C_31
REMARK                            x       y       z     vdW  Elec       q    Type
REMARK                         _______ _______ _______ _____ _____    ______ ____
ROOT
ATOM      1  N   UNL     1      34.716 -16.750 -24.867  0.00  0.00    -0.312 N 
ATOM      2  C   UNL     1      34.663 -15.801 -22.860  0.00  0.00    -0.006 C 
ATOM      3  C   UNL     1      34.669 -17.214 -22.685  0.00  0.00    +0.012 C 
ATOM      4  C   UNL     1      34.702 -17.784 -23.959  0.00  0.00    +0.048 C 
ATOM      5  C   UNL     1      34.692 -15.547 -24.212  0.00  0.00    +0.058 C 
ATOM      6  C   UNL     1      34.648 -18.064 -21.561  0.00  0.00    +0.016 C 
ATOM      7  C   UNL     1      34.662 -19.450 -21.753  0.00  0.00    +0.051 C 
ATOM      8  C   UNL     1      34.716 -19.169 -24.166  0.00  0.00    +0.016 C 
ATOM      9  C   UNL     1      34.696 -19.992 -23.037  0.00  0.00    +0.016 C 
ATOM     10  H   UNL     1      34.740 -16.858 -25.844  0.00  0.00    +0.152 HD
ENDROOT
BRANCH   7  12
ATOM     11  O   UNL     1      32.447 -21.146 -20.655  0.00  0.00    -0.270 OA
ATOM     12  N   UNL     1      34.641 -20.299 -20.645  0.00  0.00    -0.280 N 
ATOM     13  C   UNL     1      33.573 -21.073 -20.173  0.00  0.00    +0.250 C 
ATOM     14  H   UNL     1      35.479 -20.361 -20.132  0.00  0.00    +0.155 HD
BRANCH  13  18
ATOM     15  F   UNL     1      36.686 -22.939 -16.978  0.00  0.00    -0.204 F 
ATOM     16  C   UNL     1      33.055 -23.131 -17.086  0.00  0.00    +0.050 C 
ATOM     17  C   UNL     1      32.792 -22.394 -18.241  0.00  0.00    +0.019 C 
ATOM     18  C   UNL     1      33.852 -21.860 -18.943  0.00  0.00    +0.057 C 
ATOM     19  C   UNL     1      34.370 -23.315 -16.659  0.00  0.00    +0.044 C 
ATOM     20  C   UNL     1      35.161 -22.026 -18.543  0.00  0.00    +0.034 C 
ATOM     21  C   UNL     1      35.424 -22.762 -17.389  0.00  0.00    +0.142 C 
BRANCH  16  23
ATOM     22  O   UNL     1      29.904 -24.581 -14.709  0.00  0.00    -0.350 OA
ATOM     23  N   UNL     1      31.999 -23.684 -16.353  0.00  0.00    -0.303 N 
ATOM     24  C   UNL     1      30.627 -23.217 -16.581  0.00  0.00    +0.123 C 
ATOM     25  C   UNL     1      32.277 -24.170 -14.995  0.00  0.00    +0.123 C 
ATOM     26  C   UNL     1      29.637 -24.260 -16.073  0.00  0.00    +0.164 C 
ATOM     27  C   UNL     1      31.200 -25.164 -14.573  0.00  0.00    +0.164 C 
ENDBRANCH  16  23
ENDBRANCH  13  18
ENDBRANCH   7  12
BRANCH   2  28
ATOM     28  C   UNL     1      34.631 -14.784 -21.791  0.00  0.00    +0.032 C 
BRANCH  28  29
ATOM     29  C   UNL     1      33.248 -14.591 -21.131  0.00  0.00    +0.031 C 
BRANCH  29  31
ATOM     30  N   UNL     1      31.373 -10.884 -22.187  0.00  0.00    -0.242 NA
ATOM     31  C   UNL     1      32.588 -13.286 -21.502  0.00  0.00    -0.019 C 
ATOM     32  C   UNL     1      32.918 -12.673 -22.696  0.00  0.00    +0.016 C 
ATOM     33  C   UNL     1      31.664 -12.722 -20.644  0.00  0.00    +0.016 C 
ATOM     34  C   UNL     1      32.284 -11.477 -22.992  0.00  0.00    +0.099 C 
ATOM     35  C   UNL     1      31.086 -11.523 -21.031  0.00  0.00    +0.099 C 
ENDBRANCH  29  31
ENDBRANCH  28  29
ENDBRANCH   2  28
TORSDOF 6
ENDMDL
MODEL 3
REMARK VINA RESULT:     -11.3      4.723      8.912
REMARK  Name = 5326868
REMARK  6 active torsions:
REMARK  status: ('A' for Active; 'I' for Inactive)
REMARK    1  A    between atoms: C_2  and  C_28
REMARK    2  A    between atoms: C_7  and  N_12
REMARK    3  A    between atoms: C_13  and  C_18
REMARK    4  A    between atoms: C_16  and  N_23
REMARK    5  A    between atoms: C_28  and  C_29
REMARK    6  A    between atoms: C_29  and  C_31
REMARK                            x       y       z     vdW  Elec       q    Type
REMARK                         _______ _______ _______ _____ _____    ______ ____
ROOT
ATOM      1  N   UNL     1      35.871 -23.392 -15.701  0.00  0.00    -0.312 N 
ATOM      2  C   UNL     1      33.813 -23.529 -16.523  0.00  0.00    -0.006 C 
ATOM      3  C   UNL     1      34.601 -22.755 -17.421  0.00  0.00    +0.012 C 
ATOM      4  C   UNL     1      35.887 -22.684 -16.882  0.00  0.00    +0.048 C 
ATOM      5  C   UNL     1      34.622 -23.906 -15.476  0.00  0.00    +0.058 C 
ATOM      6  C   UNL     1      34.341 -22.104 -18.644  0.00  0.00    +0.016 C 
ATOM      7  C   UNL     1      35.375 -21.411 -19.281  0.00  0.00    +0.051 C 
ATOM      8  C   UNL     1      36.931 -21.993 -17.508  0.00  0.00    +0.016 C 
ATOM      9  C   UNL     1      36.650 -21.357 -18.721  0.00  0.00    +0.016 C 
ATOM     10  H   UNL     1      36.646 -23.511 -15.106  0.00  0.00    +0.152 HD
ENDROOT
BRANCH   7  12
ATOM     11  O   UNL     1      36.659 -18.980 -20.478  0.00  0.00    -0.270 OA
ATOM     12  N   UNL     1      35.126 -20.763 -20.493  0.00  0.00    -0.280 N 
ATOM     13  C   UNL     1      35.759 -19.624 -21.007  0.00  0.00    +0.250 C 
ATOM     14  H   UNL     1      34.419 -21.154 -21.054  0.00  0.00    +0.155 HD
BRANCH  13  18
ATOM     15  F   UNL     1      34.435 -20.496 -25.575  0.00  0.00    -0.204 F 
ATOM     16  C   UNL     1      34.476 -17.371 -23.712  0.00  0.00    +0.050 C 
ATOM     17  C   UNL     1      34.956 -17.813 -22.479  0.00  0.00    +0.019 C 
ATOM     18  C   UNL     1      35.249 -19.151 -22.321  0.00  0.00    +0.057 C 
ATOM     19  C   UNL     1      34.301 -18.277 -24.758  0.00  0.00    +0.044 C 
ATOM     20  C   UNL     1      35.084 -20.068 -23.338  0.00  0.00    +0.034 C 
ATOM     21  C   UNL     1      34.605 -19.626 -24.571  0.00  0.00    +0.142 C 
BRANCH  16  23
ATOM     22  O   UNL     1      33.827 -13.259 -24.309  0.00  0.00    -0.350 OA
ATOM     23  N   UNL     1      34.170 -16.019 -23.900  0.00  0.00    -0.303 N 
ATOM     24  C   UNL     1      34.016 -15.485 -25.258  0.00  0.00    +0.123 C 
ATOM     25  C   UNL     1      34.647 -15.055 -22.899  0.00  0.00    +0.123 C 
ATOM     26  C   UNL     1      33.222 -14.184 -25.212  0.00  0.00    +0.164 C 
ATOM     27  C   UNL     1      33.818 -13.778 -22.978  0.00  0.00    +0.164 C 
ENDBRANCH  16  23
ENDBRANCH  13  18
ENDBRANCH   7  12
BRANCH   2  28
ATOM     28  C   UNL     1      32.385 -23.871 -16.677  0.00  0.00    +0.032 C 
BRANCH  28  29
ATOM     29  C   UNL     1      31.504 -23.507 -15.462  0.00  0.00    +0.031 C 
BRANCH  29  31
ATOM     30  N   UNL     1      27.308 -23.579 -16.335  0.00  0.00    -0.242 NA
ATOM     31  C   UNL     1      30.027 -23.533 -15.769  0.00  0.00    -0.019 C 
ATOM     32  C   UNL     1      29.252 -22.429 -15.470  0.00  0.00    +0.016 C 
ATOM     33  C   UNL     1      29.471 -24.659 -16.344  0.00  0.00    +0.016 C 
ATOM     34  C   UNL     1      27.901 -22.502 -15.772  0.00  0.00    +0.099 C 
ATOM     35  C   UNL     1      28.111 -24.633 -16.607  0.00  0.00    +0.099 C 
ENDBRANCH  29  31
ENDBRANCH  28  29
ENDBRANCH   2  28
TORSDOF 6
ENDMDL
MODEL 4
REMARK VINA RESULT:     -11.3      4.682     11.772
REMARK  Name = 5326868
REMARK  6 active torsions:
REMARK  status: ('A' for Active; 'I' for Inactive)
REMARK    1  A    between atoms: C_2  and  C_28
REMARK    2  A    between atoms: C_7  and  N_12
REMARK    3  A    between atoms: C_13  and  C_18
REMARK    4  A    between atoms: C_16  and  N_23
REMARK    5  A    between atoms: C_28  and  C_29
REMARK    6  A    between atoms: C_29  and  C_31
REMARK                            x       y       z     vdW  Elec       q    Type
REMARK                         _______ _______ _______ _____ _____    ______ ____
ROOT
ATOM      1  N   UNL     1      35.081 -16.785 -24.674  0.00  0.00    -0.312 N 
ATOM      2  C   UNL     1      34.772 -15.833 -22.692  0.00  0.00    -0.006 C 
ATOM      3  C   UNL     1      34.738 -17.245 -22.518  0.00  0.00    +0.012 C 
ATOM      4  C   UNL     1      34.933 -17.818 -23.776  0.00  0.00    +0.048 C 
ATOM      5  C   UNL     1      34.984 -15.581 -24.028  0.00  0.00    +0.058 C 
ATOM      6  C   UNL     1      34.556 -18.093 -21.407  0.00  0.00    +0.016 C 
ATOM      7  C   UNL     1      34.580 -19.479 -21.595  0.00  0.00    +0.051 C 
ATOM      8  C   UNL     1      34.959 -19.203 -23.980  0.00  0.00    +0.016 C 
ATOM      9  C   UNL     1      34.778 -20.024 -22.862  0.00  0.00    +0.016 C 
ATOM     10  H   UNL     1      35.233 -16.896 -25.639  0.00  0.00    +0.152 HD
ENDROOT
BRANCH   7  12
ATOM     11  O   UNL     1      36.490 -21.386 -20.289  0.00  0.00    -0.270 OA
ATOM     12  N   UNL     1      34.401 -20.326 -20.499  0.00  0.00    -0.280 N 
ATOM     13  C   UNL     1      35.332 -21.202 -19.927  0.00  0.00    +0.250 C 
ATOM     14  H   UNL     1      33.512 -20.306 -20.079  0.00  0.00    +0.155 HD
BRANCH  13  18
ATOM     15  F   UNL     1      31.739 -23.459 -17.607  0.00  0.00    -0.204 F 
ATOM     16  C   UNL     1      35.247 -23.112 -16.705  0.00  0.00    +0.050 C 
ATOM     17  C   UNL     1      35.717 -22.362 -17.783  0.00  0.00    +0.019 C 
ATOM     18  C   UNL     1      34.832 -22.000 -18.776  0.00  0.00    +0.057 C 
ATOM     19  C   UNL     1      33.903 -23.483 -16.645  0.00  0.00    +0.044 C 
ATOM     20  C   UNL     1      33.499 -22.353 -18.742  0.00  0.00    +0.034 C 
ATOM     21  C   UNL     1      33.029 -23.103 -17.664  0.00  0.00    +0.142 C 
BRANCH  16  23
ATOM     22  O   UNL     1      37.963 -23.996 -13.619  0.00  0.00    -0.350 OA
ATOM     23  N   UNL     1      36.123 -23.494 -15.683  0.00  0.00    -0.303 N 
ATOM     24  C   UNL     1      35.720 -23.346 -14.280  0.00  0.00    +0.123 C 
ATOM     25  C   UNL     1      37.567 -23.390 -15.934  0.00  0.00    +0.123 C 
ATOM     26  C   UNL     1      36.576 -24.252 -13.401  0.00  0.00    +0.164 C 
ATOM     27  C   UNL     1      38.323 -24.295 -14.968  0.00  0.00    +0.164 C 
ENDBRANCH  16  23
ENDBRANCH  13  18
ENDBRANCH   7  12
BRANCH   2  28
ATOM     28  C   UNL     1      34.609 -14.813 -21.637  0.00  0.00    +0.032 C 
BRANCH  28  29
ATOM     29  C   UNL     1      33.159 -14.636 -21.135  0.00  0.00    +0.031 C 
BRANCH  29  31
ATOM     30  N   UNL     1      31.449 -10.855 -22.208  0.00  0.00    -0.242 NA
ATOM     31  C   UNL     1      32.557 -13.305 -21.513  0.00  0.00    -0.019 C 
ATOM     32  C   UNL     1      31.675 -12.688 -20.647  0.00  0.00    +0.016 C 
ATOM     33  C   UNL     1      32.896 -12.723 -22.719  0.00  0.00    +0.016 C 
ATOM     34  C   UNL     1      31.150 -11.467 -21.039  0.00  0.00    +0.099 C 
ATOM     35  C   UNL     1      32.317 -11.501 -23.019  0.00  0.00    +0.099 C 
ENDBRANCH  29  31
ENDBRANCH  28  29
ENDBRANCH   2  28
TORSDOF 6
ENDMDL
MODEL 5
REMARK VINA RESULT:     -10.3      3.414      6.670
REMARK  Name = 5326868
REMARK  6 active torsions:
REMARK  status: ('A' for Active; 'I' for Inactive)
REMARK    1  A    between atoms: C_2  and  C_28
REMARK    2  A    between atoms: C_7  and  N_12
REMARK    3  A    between atoms: C_13  and  C_18
REMARK    4  A    between atoms: C_16  and  N_23
REMARK    5  A    between atoms: C_28  and  C_29
REMARK    6  A    between atoms: C_29  and  C_31
REMARK                            x       y       z     vdW  Elec       q    Type
REMARK                         _______ _______ _______ _____ _____    ______ ____
ROOT
ATOM      1  N   UNL     1      31.528 -12.459 -20.305  0.00  0.00    -0.312 N 
ATOM      2  C   UNL     1      32.265 -12.701 -22.385  0.00  0.00    -0.006 C 
ATOM      3  C   UNL     1      32.096 -11.311 -22.131  0.00  0.00    +0.012 C 
ATOM      4  C   UNL     1      31.633 -11.187 -20.820  0.00  0.00    +0.048 C 
ATOM      5  C   UNL     1      31.908 -13.381 -21.243  0.00  0.00    +0.058 C 
ATOM      6  C   UNL     1      32.292 -10.143 -22.895  0.00  0.00    +0.016 C 
ATOM      7  C   UNL     1      32.020  -8.897 -22.319  0.00  0.00    +0.051 C 
ATOM      8  C   UNL     1      31.356  -9.947 -20.231  0.00  0.00    +0.016 C 
ATOM      9  C   UNL     1      31.559  -8.802 -21.007  0.00  0.00    +0.016 C 
ATOM     10  H   UNL     1      31.224 -12.674 -19.394  0.00  0.00    +0.152 HD
ENDROOT
BRANCH   7  12
ATOM     11  O   UNL     1      34.525  -7.352 -22.892  0.00  0.00    -0.270 OA
ATOM     12  N   UNL     1      32.211  -7.735 -23.069  0.00  0.00    -0.280 N 
ATOM     13  C   UNL     1      33.410  -7.050 -23.306  0.00  0.00    +0.250 C 
ATOM     14  H   UNL     1      31.405  -7.349 -23.482  0.00  0.00    +0.155 HD
BRANCH  13  18
ATOM     15  F   UNL     1      31.422  -2.722 -24.142  0.00  0.00    -0.204 F 
ATOM     16  C   UNL     1      33.958  -4.530 -26.024  0.00  0.00    +0.050 C 
ATOM     17  C   UNL     1      34.072  -5.688 -25.254  0.00  0.00    +0.019 C 
ATOM     18  C   UNL     1      33.288  -5.817 -24.128  0.00  0.00    +0.057 C 
ATOM     19  C   UNL     1      33.062  -3.528 -25.648  0.00  0.00    +0.044 C 
ATOM     20  C   UNL     1      32.396  -4.842 -23.734  0.00  0.00    +0.034 C 
ATOM     21  C   UNL     1      32.281  -3.685 -24.503  0.00  0.00    +0.142 C 
BRANCH  16  23
ATOM     22  O   UNL     1      36.402  -3.813 -29.370  0.00  0.00    -0.350 OA
ATOM     23  N   UNL     1      34.742  -4.372 -27.171  0.00  0.00    -0.303 N 
ATOM     24  C   UNL     1      36.154  -4.770 -27.153  0.00  0.00    +0.123 C 
ATOM     25  C   UNL     1      34.414  -3.273 -28.090  0.00  0.00    +0.123 C 
ATOM     26  C   UNL     1      36.649  -4.976 -28.580  0.00  0.00    +0.164 C 
ATOM     27  C   UNL     1      35.000  -3.561 -29.467  0.00  0.00    +0.164 C 
ENDBRANCH  16  23
ENDBRANCH  13  18
ENDBRANCH   7  12
BRANCH   2  28
ATOM     28  C   UNL     1      32.737 -13.314 -23.643  0.00  0.00    +0.032 C 
BRANCH  28  29
ATOM     29  C   UNL     1      34.220 -13.744 -23.628  0.00  0.00    +0.031 C 
BRANCH  29  31
ATOM     30  N   UNL     1      34.749 -17.993 -23.831  0.00  0.00    -0.242 NA
ATOM     31  C   UNL     1      34.407 -15.240 -23.700  0.00  0.00    -0.019 C 
ATOM     32  C   UNL     1      34.877 -15.919 -22.593  0.00  0.00    +0.016 C 
ATOM     33  C   UNL     1      34.105 -15.908 -24.871  0.00  0.00    +0.016 C 
ATOM     34  C   UNL     1      35.030 -17.292 -22.709  0.00  0.00    +0.099 C 
ATOM     35  C   UNL     1      34.292 -17.281 -24.885  0.00  0.00    +0.099 C 
ENDBRANCH  29  31
ENDBRANCH  28  29
ENDBRANCH   2  28
TORSDOF 6
ENDMDL
MODEL 6
REMARK VINA RESULT:     -10.1      3.479      6.354
REMARK  Name = 5326868
REMARK  6 active torsions:
REMARK  status: ('A' for Active; 'I' for Inactive)
REMARK    1  A    between atoms: C_2  and  C_28
REMARK    2  A    between atoms: C_7  and  N_12
REMARK    3  A    between atoms: C_13  and  C_18
REMARK    4  A    between atoms: C_16  and  N_23
REMARK    5  A    between atoms: C_28  and  C_29
REMARK    6  A    between atoms: C_29  and  C_31
REMARK                            x       y       z     vdW  Elec       q    Type
REMARK                         _______ _______ _______ _____ _____    ______ ____
ROOT
ATOM      1  N   UNL     1      31.488 -12.802 -21.399  0.00  0.00    -0.312 N 
ATOM      2  C   UNL     1      33.105 -13.032 -22.903  0.00  0.00    -0.006 C 
ATOM      3  C   UNL     1      32.675 -11.675 -22.915  0.00  0.00    +0.012 C 
ATOM      4  C   UNL     1      31.659 -11.559 -21.964  0.00  0.00    +0.048 C 
ATOM      5  C   UNL     1      32.357 -13.699 -21.960  0.00  0.00    +0.058 C 
ATOM      6  C   UNL     1      33.052 -10.533 -23.650  0.00  0.00    +0.016 C 
ATOM      7  C   UNL     1      32.402  -9.319 -23.403  0.00  0.00    +0.051 C 
ATOM      8  C   UNL     1      31.000 -10.351 -21.708  0.00  0.00    +0.016 C 
ATOM      9  C   UNL     1      31.392  -9.230 -22.447  0.00  0.00    +0.016 C 
ATOM     10  H   UNL     1      30.835 -13.015 -20.695  0.00  0.00    +0.152 HD
ENDROOT
BRANCH   7  12
ATOM     11  O   UNL     1      34.905  -7.672 -23.283  0.00  0.00    -0.270 OA
ATOM     12  N   UNL     1      32.770  -8.182 -24.126  0.00  0.00    -0.280 N 
ATOM     13  C   UNL     1      33.958  -7.447 -24.030  0.00  0.00    +0.250 C 
ATOM     14  H   UNL     1      32.113  -7.857 -24.784  0.00  0.00    +0.155 HD
BRANCH  13  18
ATOM     15  F   UNL     1      36.407  -4.705 -27.171  0.00  0.00    -0.204 F 
ATOM     16  C   UNL     1      33.045  -4.297 -25.843  0.00  0.00    +0.050 C 
ATOM     17  C   UNL     1      32.962  -5.411 -25.006  0.00  0.00    +0.019 C 
ATOM     18  C   UNL     1      34.046  -6.259 -24.920  0.00  0.00    +0.057 C 
ATOM     19  C   UNL     1      34.208  -4.059 -26.574  0.00  0.00    +0.044 C 
ATOM     20  C   UNL     1      35.207  -6.047 -25.632  0.00  0.00    +0.034 C 
ATOM     21  C   UNL     1      35.291  -4.934 -26.468  0.00  0.00    +0.142 C 
BRANCH  16  23
ATOM     22  O   UNL     1      29.636  -1.872 -26.269  0.00  0.00    -0.350 OA
ATOM     23  N   UNL     1      31.960  -3.421 -25.950  0.00  0.00    -0.303 N 
ATOM     24  C   UNL     1      30.951  -3.371 -24.886  0.00  0.00    +0.123 C 
ATOM     25  C   UNL     1      31.468  -3.087 -27.294  0.00  0.00    +0.123 C 
ATOM     26  C   UNL     1      30.184  -2.055 -24.964  0.00  0.00    +0.164 C 
ATOM     27  C   UNL     1      30.676  -1.786 -27.244  0.00  0.00    +0.164 C 
ENDBRANCH  16  23
ENDBRANCH  13  18
ENDBRANCH   7  12
BRANCH   2  28
ATOM     28  C   UNL     1      34.163 -13.626 -23.744  0.00  0.00    +0.032 C 
BRANCH  28  29
ATOM     29  C   UNL     1      33.676 -14.744 -24.692  0.00  0.00    +0.031 C 
BRANCH  29  31
ATOM     30  N   UNL     1      35.043 -18.643 -23.550  0.00  0.00    -0.242 NA
ATOM     31  C   UNL     1      34.157 -16.117 -24.290  0.00  0.00    -0.019 C 
ATOM     32  C   UNL     1      34.997 -16.250 -23.202  0.00  0.00    +0.016 C 
ATOM     33  C   UNL     1      33.751 -17.219 -25.016  0.00  0.00    +0.016 C 
ATOM     34  C   UNL     1      35.411 -17.531 -22.873  0.00  0.00    +0.099 C 
ATOM     35  C   UNL     1      34.221 -18.458 -24.607  0.00  0.00    +0.099 C 
ENDBRANCH  29  31
ENDBRANCH  28  29
ENDBRANCH   2  28
TORSDOF 6
ENDMDL
MODEL 7
REMARK VINA RESULT:      -9.9      2.717      3.523
REMARK  Name = 5326868
REMARK  6 active torsions:
REMARK  status: ('A' for Active; 'I' for Inactive)
REMARK    1  A    between atoms: C_2  and  C_28
REMARK    2  A    between atoms: C_7  and  N_12
REMARK    3  A    between atoms: C_13  and  C_18
REMARK    4  A    between atoms: C_16  and  N_23
REMARK    5  A    between atoms: C_28  and  C_29
REMARK    6  A    between atoms: C_29  and  C_31
REMARK                            x       y       z     vdW  Elec       q    Type
REMARK                         _______ _______ _______ _____ _____    ______ ____
ROOT
ATOM      1  N   UNL     1      34.046 -19.128 -24.505  0.00  0.00    -0.312 N 
ATOM      2  C   UNL     1      35.072 -18.238 -22.748  0.00  0.00    -0.006 C 
ATOM      3  C   UNL     1      34.593 -17.178 -23.568  0.00  0.00    +0.012 C 
ATOM      4  C   UNL     1      33.954 -17.764 -24.663  0.00  0.00    +0.048 C 
ATOM      5  C   UNL     1      34.721 -19.425 -23.350  0.00  0.00    +0.058 C 
ATOM      6  C   UNL     1      34.643 -15.772 -23.484  0.00  0.00    +0.016 C 
ATOM      7  C   UNL     1      34.052 -15.007 -24.495  0.00  0.00    +0.051 C 
ATOM      8  C   UNL     1      33.358 -17.011 -25.682  0.00  0.00    +0.016 C 
ATOM      9  C   UNL     1      33.420 -15.618 -25.576  0.00  0.00    +0.016 C 
ATOM     10  H   UNL     1      33.680 -19.794 -25.130  0.00  0.00    +0.152 HD
ENDROOT
BRANCH   7  12
ATOM     11  O   UNL     1      33.539 -12.935 -26.601  0.00  0.00    -0.270 OA
ATOM     12  N   UNL     1      34.097 -13.613 -24.419  0.00  0.00    -0.280 N 
ATOM     13  C   UNL     1      33.848 -12.687 -25.440  0.00  0.00    +0.250 C 
ATOM     14  H   UNL     1      34.335 -13.236 -23.542  0.00  0.00    +0.155 HD
BRANCH  13  18
ATOM     15  F   UNL     1      35.637  -8.271 -26.268  0.00  0.00    -0.204 F 
ATOM     16  C   UNL     1      33.532  -9.466 -23.551  0.00  0.00    +0.050 C 
ATOM     17  C   UNL     1      33.386 -10.806 -23.910  0.00  0.00    +0.019 C 
ATOM     18  C   UNL     1      34.005 -11.259 -25.056  0.00  0.00    +0.057 C 
ATOM     19  C   UNL     1      34.293  -8.610 -24.348  0.00  0.00    +0.044 C 
ATOM     20  C   UNL     1      34.761 -10.433 -25.861  0.00  0.00    +0.034 C 
ATOM     21  C   UNL     1      34.908  -9.094 -25.503  0.00  0.00    +0.142 C 
BRANCH  16  23
ATOM     22  O   UNL     1      31.513  -7.852 -20.235  0.00  0.00    -0.350 OA
ATOM     23  N   UNL     1      32.915  -8.980 -22.394  0.00  0.00    -0.303 N 
ATOM     24  C   UNL     1      31.680  -9.604 -21.907  0.00  0.00    +0.123 C 
ATOM     25  C   UNL     1      33.063  -7.553 -22.076  0.00  0.00    +0.123 C 
ATOM     26  C   UNL     1      31.479  -9.265 -20.433  0.00  0.00    +0.164 C 
ATOM     27  C   UNL     1      32.790  -7.325 -20.594  0.00  0.00    +0.164 C 
ENDBRANCH  16  23
ENDBRANCH  13  18
ENDBRANCH   7  12
BRANCH   2  28
ATOM     28  C   UNL     1      35.814 -18.101 -21.479  0.00  0.00    +0.032 C 
BRANCH  28  29
ATOM     29  C   UNL     1      36.738 -19.293 -21.144  0.00  0.00    +0.031 C 
BRANCH  29  31
ATOM     30  N   UNL     1      34.819 -22.306 -18.777  0.00  0.00    -0.242 NA
ATOM     31  C   UNL     1      36.062 -20.353 -20.311  0.00  0.00    -0.019 C 
ATOM     32  C   UNL     1      34.727 -20.635 -20.521  0.00  0.00    +0.016 C 
ATOM     33  C   UNL     1      36.789 -21.027 -19.349  0.00  0.00    +0.016 C 
ATOM     34  C   UNL     1      34.153 -21.617 -19.731  0.00  0.00    +0.099 C 
ATOM     35  C   UNL     1      36.123 -21.993 -18.610  0.00  0.00    +0.099 C 
ENDBRANCH  29  31
ENDBRANCH  28  29
ENDBRANCH   2  28
TORSDOF 6
ENDMDL
MODEL 8
REMARK VINA RESULT:      -9.9      4.984      9.325
REMARK  Name = 5326868
REMARK  6 active torsions:
REMARK  status: ('A' for Active; 'I' for Inactive)
REMARK    1  A    between atoms: C_2  and  C_28
REMARK    2  A    between atoms: C_7  and  N_12
REMARK    3  A    between atoms: C_13  and  C_18
REMARK    4  A    between atoms: C_16  and  N_23
REMARK    5  A    between atoms: C_28  and  C_29
REMARK    6  A    between atoms: C_29  and  C_31
REMARK                            x       y       z     vdW  Elec       q    Type
REMARK                         _______ _______ _______ _____ _____    ______ ____
ROOT
ATOM      1  N   UNL     1      33.758 -24.115 -15.698  0.00  0.00    -0.312 N 
ATOM      2  C   UNL     1      35.769 -23.289 -16.149  0.00  0.00    -0.006 C 
ATOM      3  C   UNL     1      34.874 -22.865 -17.171  0.00  0.00    +0.012 C 
ATOM      4  C   UNL     1      33.620 -23.397 -16.865  0.00  0.00    +0.048 C 
ATOM      5  C   UNL     1      35.054 -24.056 -15.258  0.00  0.00    +0.058 C 
ATOM      6  C   UNL     1      35.011 -22.078 -18.332  0.00  0.00    +0.016 C 
ATOM      7  C   UNL     1      33.892 -21.852 -19.140  0.00  0.00    +0.051 C 
ATOM      8  C   UNL     1      32.491 -23.180 -17.664  0.00  0.00    +0.016 C 
ATOM      9  C   UNL     1      32.652 -22.395 -18.810  0.00  0.00    +0.016 C 
ATOM     10  H   UNL     1      33.032 -24.601 -15.247  0.00  0.00    +0.152 HD
ENDROOT
BRANCH   7  12
ATOM     11  O   UNL     1      36.210 -20.232 -20.136  0.00  0.00    -0.270 OA
ATOM     12  N   UNL     1      34.020 -21.074 -20.293  0.00  0.00    -0.280 N 
ATOM     13  C   UNL     1      35.132 -20.333 -20.712  0.00  0.00    +0.250 C 
ATOM     14  H   UNL     1      33.232 -21.041 -20.881  0.00  0.00    +0.155 HD
BRANCH  13  18
ATOM     15  F   UNL     1      34.797 -20.211 -25.535  0.00  0.00    -0.204 F 
ATOM     16  C   UNL     1      34.607 -17.503 -23.112  0.00  0.00    +0.050 C 
ATOM     17  C   UNL     1      34.777 -18.211 -21.921  0.00  0.00    +0.019 C 
ATOM     18  C   UNL     1      34.952 -19.577 -21.980  0.00  0.00    +0.057 C 
ATOM     19  C   UNL     1      34.613 -18.179 -24.332  0.00  0.00    +0.044 C 
ATOM     20  C   UNL     1      34.962 -20.270 -23.173  0.00  0.00    +0.034 C 
ATOM     21  C   UNL     1      34.791 -19.563 -24.363  0.00  0.00    +0.142 C 
BRANCH  16  23
ATOM     22  O   UNL     1      34.339 -13.309 -22.973  0.00  0.00    -0.350 OA
ATOM     23  N   UNL     1      34.427 -16.116 -23.082  0.00  0.00    -0.303 N 
ATOM     24  C   UNL     1      34.673 -15.321 -24.289  0.00  0.00    +0.123 C 
ATOM     25  C   UNL     1      34.660 -15.415 -21.812  0.00  0.00    +0.123 C 
ATOM     26  C   UNL     1      33.959 -13.978 -24.175  0.00  0.00    +0.164 C 
ATOM     27  C   UNL     1      33.945 -14.068 -21.829  0.00  0.00    +0.164 C 
ENDBRANCH  16  23
ENDBRANCH  13  18
ENDBRANCH   7  12
BRANCH   2  28
ATOM     28  C   UNL     1      37.207 -22.969 -16.052  0.00  0.00    +0.032 C 
BRANCH  28  29
ATOM     29  C   UNL     1      38.073 -24.089 -15.433  0.00  0.00    +0.031 C 
BRANCH  29  31
ATOM     30  N   UNL     1      37.194 -24.813 -11.301  0.00  0.00    -0.242 NA
ATOM     31  C   UNL     1      37.764 -24.344 -13.979  0.00  0.00    -0.019 C 
ATOM     32  C   UNL     1      37.574 -23.274 -13.127  0.00  0.00    +0.016 C 
ATOM     33  C   UNL     1      37.676 -25.644 -13.520  0.00  0.00    +0.016 C 
ATOM     34  C   UNL     1      37.292 -23.560 -11.801  0.00  0.00    +0.099 C 
ATOM     35  C   UNL     1      37.390 -25.825 -12.176  0.00  0.00    +0.099 C 
ENDBRANCH  29  31
ENDBRANCH  28  29
ENDBRANCH   2  28
TORSDOF 6
ENDMDL
MODEL 9
REMARK VINA RESULT:      -9.9      5.176      8.113
REMARK  Name = 5326868
REMARK  6 active torsions:
REMARK  status: ('A' for Active; 'I' for Inactive)
REMARK    1  A    between atoms: C_2  and  C_28
REMARK    2  A    between atoms: C_7  and  N_12
REMARK    3  A    between atoms: C_13  and  C_18
REMARK    4  A    between atoms: C_16  and  N_23
REMARK    5  A    between atoms: C_28  and  C_29
REMARK    6  A    between atoms: C_29  and  C_31
REMARK                            x       y       z     vdW  Elec       q    Type
REMARK                         _______ _______ _______ _____ _____    ______ ____
ROOT
ATOM      1  N   UNL     1      31.532 -11.762 -19.787  0.00  0.00    -0.312 N 
ATOM      2  C   UNL     1      31.899 -12.228 -21.926  0.00  0.00    -0.006 C 
ATOM      3  C   UNL     1      31.949 -10.815 -21.763  0.00  0.00    +0.012 C 
ATOM      4  C   UNL     1      31.715 -10.549 -20.413  0.00  0.00    +0.048 C 
ATOM      5  C   UNL     1      31.642 -12.782 -20.693  0.00  0.00    +0.058 C 
ATOM      6  C   UNL     1      32.168  -9.733 -22.640  0.00  0.00    +0.016 C 
ATOM      7  C   UNL     1      32.148  -8.429 -22.132  0.00  0.00    +0.051 C 
ATOM      8  C   UNL     1      31.691  -9.250 -19.891  0.00  0.00    +0.016 C 
ATOM      9  C   UNL     1      31.913  -8.193 -20.779  0.00  0.00    +0.016 C 
ATOM     10  H   UNL     1      31.350 -11.878 -18.827  0.00  0.00    +0.152 HD
ENDROOT
BRANCH   7  12
ATOM     11  O   UNL     1      34.709  -7.261 -23.167  0.00  0.00    -0.270 OA
ATOM     12  N   UNL     1      32.365  -7.352 -22.994  0.00  0.00    -0.280 N 
ATOM     13  C   UNL     1      33.589  -6.845 -23.447  0.00  0.00    +0.250 C 
ATOM     14  H   UNL     1      31.559  -6.892 -23.322  0.00  0.00    +0.155 HD
BRANCH  13  18
ATOM     15  F   UNL     1      31.656  -2.560 -24.581  0.00  0.00    -0.204 F 
ATOM     16  C   UNL     1      34.220  -4.491 -26.294  0.00  0.00    +0.050 C 
ATOM     17  C   UNL     1      34.307  -5.603 -25.456  0.00  0.00    +0.019 C 
ATOM     18  C   UNL     1      33.496  -5.661 -24.342  0.00  0.00    +0.057 C 
ATOM     19  C   UNL     1      33.324  -3.463 -25.998  0.00  0.00    +0.044 C 
ATOM     20  C   UNL     1      32.603  -4.658 -24.027  0.00  0.00    +0.034 C 
ATOM     21  C   UNL     1      32.515  -3.547 -24.865  0.00  0.00    +0.142 C 
BRANCH  16  23
ATOM     22  O   UNL     1      36.687  -3.964 -29.658  0.00  0.00    -0.350 OA
ATOM     23  N   UNL     1      35.031  -4.406 -27.430  0.00  0.00    -0.303 N 
ATOM     24  C   UNL     1      36.490  -4.478 -27.294  0.00  0.00    +0.123 C 
ATOM     25  C   UNL     1      34.548  -3.615 -28.570  0.00  0.00    +0.123 C 
ATOM     26  C   UNL     1      37.114  -4.860 -28.632  0.00  0.00    +0.164 C 
ATOM     27  C   UNL     1      35.273  -4.045 -29.840  0.00  0.00    +0.164 C 
ENDBRANCH  16  23
ENDBRANCH  13  18
ENDBRANCH   7  12
BRANCH   2  28
ATOM     28  C   UNL     1      32.089 -12.975 -23.186  0.00  0.00    +0.032 C 
BRANCH  28  29
ATOM     29  C   UNL     1      33.562 -13.123 -23.627  0.00  0.00    +0.031 C 
BRANCH  29  31
ATOM     30  N   UNL     1      34.451 -11.043 -27.268  0.00  0.00    -0.242 NA
ATOM     31  C   UNL     1      33.875 -12.391 -24.909  0.00  0.00    -0.019 C 
ATOM     32  C   UNL     1      33.540 -12.966 -26.119  0.00  0.00    +0.016 C 
ATOM     33  C   UNL     1      34.492 -11.156 -24.853  0.00  0.00    +0.016 C 
ATOM     34  C   UNL     1      33.848 -12.254 -27.267  0.00  0.00    +0.099 C 
ATOM     35  C   UNL     1      34.758 -10.524 -26.058  0.00  0.00    +0.099 C 
ENDBRANCH  29  31
ENDBRANCH  28  29
ENDBRANCH   2  28
TORSDOF 6
ENDMDL
