MODEL 1
REMARK VINA RESULT:     -11.3      0.000      0.000
REMARK  Name = 42627755
REMARK  2 active torsions:
REMARK  status: ('A' for Active; 'I' for Inactive)
REMARK    1  A    between atoms: N_5  and  C_20
REMARK    2  A    between atoms: C_7  and  C_28
REMARK                            x       y       z     vdW  Elec       q    Type
REMARK                         _______ _______ _______ _____ _____    ______ ____
ROOT
ATOM      1  N   UNL     1      35.210 -21.754 -19.406  0.00  0.00    -0.239 N 
ATOM      2  N   UNL     1      34.529 -22.373 -18.427  0.00  0.00    -0.166 NA
ATOM      3  N   UNL     1      32.129 -22.555 -18.017  0.00  0.00    -0.271 N 
ATOM      4  N   UNL     1      33.099 -23.777 -16.218  0.00  0.00    -0.322 NA
ATOM      5  N   UNL     1      34.009 -24.988 -14.432  0.00  0.00    -0.247 N 
ATOM      6  N   UNL     1      31.678 -24.812 -14.570  0.00  0.00    -0.170 NA
ATOM      7  C   UNL     1      34.415 -21.123 -20.317  0.00  0.00    +0.045 C 
ATOM      8  C   UNL     1      33.123 -21.347 -19.905  0.00  0.00    +0.048 C 
ATOM      9  C   UNL     1      33.254 -22.120 -18.737  0.00  0.00    +0.152 C 
ATOM     10  C   UNL     1      31.988 -23.327 -16.838  0.00  0.00    +0.199 C 
ATOM     11  C   UNL     1      30.707 -23.575 -16.391  0.00  0.00    +0.070 C 
ATOM     12  C   UNL     1      32.873 -24.503 -15.106  0.00  0.00    +0.150 C 
ATOM     13  C   UNL     1      30.611 -24.329 -15.240  0.00  0.00    +0.116 C 
ATOM     14  H   UNL     1      36.193 -21.755 -19.461  0.00  0.00    +0.174 HD
ATOM     15  H   UNL     1      31.274 -22.267 -18.408  0.00  0.00    +0.156 HD
ATOM     16  H   UNL     1      33.797 -25.512 -13.627  0.00  0.00    +0.165 HD
ENDROOT
BRANCH   5  20
ATOM     17  N   UNL     1      38.676 -26.609 -14.540  0.00  0.00    -0.315 N 
ATOM     18  N   UNL     1      39.485 -24.713 -15.371  0.00  0.00    -0.315 N 
ATOM     19  C   UNL     1      37.593 -25.781 -14.684  0.00  0.00    +0.060 C 
ATOM     20  C   UNL     1      35.395 -24.871 -14.688  0.00  0.00    +0.059 C 
ATOM     21  C   UNL     1      38.124 -24.604 -15.204  0.00  0.00    +0.059 C 
ATOM     22  C   UNL     1      36.236 -25.954 -14.412  0.00  0.00    +0.031 C 
ATOM     23  C   UNL     1      35.897 -23.678 -15.210  0.00  0.00    +0.017 C 
ATOM     24  C   UNL     1      37.264 -23.526 -15.475  0.00  0.00    +0.017 C 
ATOM     25  C   UNL     1      39.783 -25.926 -14.963  0.00  0.00    +0.182 C 
ATOM     26  H   UNL     1      38.660 -27.530 -14.194  0.00  0.00    +0.148 HD
ATOM     27  H   UNL     1      40.103 -24.030 -15.720  0.00  0.00    +0.148 HD
ENDBRANCH   5  20
BRANCH   7  28
ATOM     28  C   UNL     1      34.873 -20.335 -21.536  0.00  0.00    +0.037 C 
ATOM     29  C   UNL     1      36.066 -19.434 -21.406  0.00  0.00    +0.006 C 
ATOM     30  C   UNL     1      34.693 -18.844 -21.540  0.00  0.00    +0.006 C 
ENDBRANCH   7  28
TORSDOF 2
ENDMDL
MODEL 2
REMARK VINA RESULT:     -11.0      1.360      6.628
REMARK  Name = 42627755
REMARK  2 active torsions:
REMARK  status: ('A' for Active; 'I' for Inactive)
REMARK    1  A    between atoms: N_5  and  C_20
REMARK    2  A    between atoms: C_7  and  C_28
REMARK                            x       y       z     vdW  Elec       q    Type
REMARK                         _______ _______ _______ _____ _____    ______ ____
ROOT
ATOM      1  N   UNL     1      37.156 -24.073 -15.682  0.00  0.00    -0.239 N 
ATOM      2  N   UNL     1      35.825 -23.976 -15.835  0.00  0.00    -0.166 NA
ATOM      3  N   UNL     1      33.992 -24.855 -14.483  0.00  0.00    -0.271 N 
ATOM      4  N   UNL     1      32.884 -23.708 -16.251  0.00  0.00    -0.322 NA
ATOM      5  N   UNL     1      31.752 -22.593 -17.971  0.00  0.00    -0.247 N 
ATOM      6  N   UNL     1      30.476 -23.662 -16.325  0.00  0.00    -0.170 NA
ATOM      7  C   UNL     1      37.534 -24.787 -14.583  0.00  0.00    +0.045 C 
ATOM      8  C   UNL     1      36.368 -25.183 -13.975  0.00  0.00    +0.048 C 
ATOM      9  C   UNL     1      35.349 -24.657 -14.789  0.00  0.00    +0.152 C 
ATOM     10  C   UNL     1      32.798 -24.442 -15.122  0.00  0.00    +0.199 C 
ATOM     11  C   UNL     1      31.604 -24.819 -14.542  0.00  0.00    +0.070 C 
ATOM     12  C   UNL     1      31.701 -23.358 -16.792  0.00  0.00    +0.150 C 
ATOM     13  C   UNL     1      30.464 -24.398 -15.193  0.00  0.00    +0.116 C 
ATOM     14  H   UNL     1      37.801 -23.666 -16.306  0.00  0.00    +0.174 HD
ATOM     15  H   UNL     1      33.844 -25.384 -13.667  0.00  0.00    +0.156 HD
ATOM     16  H   UNL     1      30.866 -22.359 -18.330  0.00  0.00    +0.165 HD
ENDROOT
BRANCH   5  20
ATOM     17  N   UNL     1      33.794 -19.776 -21.480  0.00  0.00    -0.315 N 
ATOM     18  N   UNL     1      35.857 -20.510 -21.096  0.00  0.00    -0.315 N 
ATOM     19  C   UNL     1      33.675 -20.683 -20.460  0.00  0.00    +0.060 C 
ATOM     20  C   UNL     1      32.828 -22.092 -18.740  0.00  0.00    +0.059 C 
ATOM     21  C   UNL     1      34.975 -21.128 -20.238  0.00  0.00    +0.059 C 
ATOM     22  C   UNL     1      32.575 -21.140 -19.734  0.00  0.00    +0.031 C 
ATOM     23  C   UNL     1      34.121 -22.557 -18.494  0.00  0.00    +0.017 C 
ATOM     24  C   UNL     1      35.211 -22.084 -19.236  0.00  0.00    +0.017 C 
ATOM     25  C   UNL     1      35.116 -19.708 -21.827  0.00  0.00    +0.182 C 
ATOM     26  H   UNL     1      33.060 -19.265 -21.891  0.00  0.00    +0.148 HD
ATOM     27  H   UNL     1      36.831 -20.641 -21.151  0.00  0.00    +0.148 HD
ENDBRANCH   5  20
BRANCH   7  28
ATOM     28  C   UNL     1      38.959 -25.080 -14.132  0.00  0.00    +0.037 C 
ATOM     29  C   UNL     1      40.047 -25.122 -15.163  0.00  0.00    +0.006 C 
ATOM     30  C   UNL     1      39.580 -26.392 -14.513  0.00  0.00    +0.006 C 
ENDBRANCH   7  28
TORSDOF 2
ENDMDL
MODEL 3
REMARK VINA RESULT:     -11.0      1.901      6.964
REMARK  Name = 42627755
REMARK  2 active torsions:
REMARK  status: ('A' for Active; 'I' for Inactive)
REMARK    1  A    between atoms: N_5  and  C_20
REMARK    2  A    between atoms: C_7  and  C_28
REMARK                            x       y       z     vdW  Elec       q    Type
REMARK                         _______ _______ _______ _____ _____    ______ ____
ROOT
ATOM      1  N   UNL     1      30.937 -23.019 -17.122  0.00  0.00    -0.239 N 
ATOM      2  N   UNL     1      32.264 -23.016 -16.910  0.00  0.00    -0.166 NA
ATOM      3  N   UNL     1      33.594 -23.959 -15.093  0.00  0.00    -0.271 N 
ATOM      4  N   UNL     1      35.220 -22.965 -16.520  0.00  0.00    -0.322 NA
ATOM      5  N   UNL     1      36.854 -22.001 -17.894  0.00  0.00    -0.247 N 
ATOM      6  N   UNL     1      37.556 -23.084 -15.940  0.00  0.00    -0.170 NA
ATOM      7  C   UNL     1      30.225 -23.657 -16.149  0.00  0.00    +0.045 C 
ATOM      8  C   UNL     1      31.151 -24.104 -15.239  0.00  0.00    +0.048 C 
ATOM      9  C   UNL     1      32.389 -23.681 -15.757  0.00  0.00    +0.152 C 
ATOM     10  C   UNL     1      34.944 -23.653 -15.393  0.00  0.00    +0.199 C 
ATOM     11  C   UNL     1      35.906 -24.085 -14.503  0.00  0.00    +0.070 C 
ATOM     12  C   UNL     1      36.528 -22.718 -16.728  0.00  0.00    +0.150 C 
ATOM     13  C   UNL     1      37.208 -23.768 -14.830  0.00  0.00    +0.116 C 
ATOM     14  H   UNL     1      30.517 -22.598 -17.907  0.00  0.00    +0.174 HD
ATOM     15  H   UNL     1      33.478 -24.463 -14.256  0.00  0.00    +0.156 HD
ATOM     16  H   UNL     1      37.819 -21.845 -18.005  0.00  0.00    +0.165 HD
ENDROOT
BRANCH   5  20
ATOM     17  N   UNL     1      36.009 -19.102 -21.805  0.00  0.00    -0.315 N 
ATOM     18  N   UNL     1      33.905 -19.773 -22.052  0.00  0.00    -0.315 N 
ATOM     19  C   UNL     1      35.799 -20.018 -20.808  0.00  0.00    +0.060 C 
ATOM     20  C   UNL     1      36.065 -21.463 -18.937  0.00  0.00    +0.059 C 
ATOM     21  C   UNL     1      34.479 -20.422 -20.983  0.00  0.00    +0.059 C 
ATOM     22  C   UNL     1      36.624 -20.514 -19.798  0.00  0.00    +0.031 C 
ATOM     23  C   UNL     1      34.744 -21.889 -19.086  0.00  0.00    +0.017 C 
ATOM     24  C   UNL     1      33.933 -21.378 -20.108  0.00  0.00    +0.017 C 
ATOM     25  C   UNL     1      34.849 -18.989 -22.521  0.00  0.00    +0.182 C 
ATOM     26  H   UNL     1      36.846 -18.611 -21.976  0.00  0.00    +0.148 HD
ATOM     27  H   UNL     1      32.986 -19.874 -22.391  0.00  0.00    +0.148 HD
ENDBRANCH   5  20
BRANCH   7  28
ATOM     28  C   UNL     1      28.713 -23.833 -16.094  0.00  0.00    +0.037 C 
ATOM     29  C   UNL     1      27.886 -23.327 -17.238  0.00  0.00    +0.006 C 
ATOM     30  C   UNL     1      27.853 -22.616 -15.917  0.00  0.00    +0.006 C 
ENDBRANCH   7  28
TORSDOF 2
ENDMDL
MODEL 4
REMARK VINA RESULT:     -10.9      1.897      5.533
REMARK  Name = 42627755
REMARK  2 active torsions:
REMARK  status: ('A' for Active; 'I' for Inactive)
REMARK    1  A    between atoms: N_5  and  C_20
REMARK    2  A    between atoms: C_7  and  C_28
REMARK                            x       y       z     vdW  Elec       q    Type
REMARK                         _______ _______ _______ _____ _____    ______ ____
ROOT
ATOM      1  N   UNL     1      33.983 -22.111 -18.991  0.00  0.00    -0.239 N 
ATOM      2  N   UNL     1      34.286 -22.615 -17.783  0.00  0.00    -0.166 NA
ATOM      3  N   UNL     1      36.420 -22.778 -16.608  0.00  0.00    -0.271 N 
ATOM      4  N   UNL     1      34.868 -23.754 -15.089  0.00  0.00    -0.322 NA
ATOM      5  N   UNL     1      33.377 -24.721 -13.564  0.00  0.00    -0.247 N 
ATOM      6  N   UNL     1      35.637 -24.596 -12.966  0.00  0.00    -0.170 NA
ATOM      7  C   UNL     1      35.058 -21.610 -19.665  0.00  0.00    +0.045 C 
ATOM      8  C   UNL     1      36.139 -21.800 -18.839  0.00  0.00    +0.048 C 
ATOM      9  C   UNL     1      35.605 -22.423 -17.696  0.00  0.00    +0.152 C 
ATOM     10  C   UNL     1      36.140 -23.400 -15.367  0.00  0.00    +0.199 C 
ATOM     11  C   UNL     1      37.198 -23.608 -14.508  0.00  0.00    +0.070 C 
ATOM     12  C   UNL     1      34.691 -24.339 -13.888  0.00  0.00    +0.150 C 
ATOM     13  C   UNL     1      36.886 -24.217 -13.310  0.00  0.00    +0.116 C 
ATOM     14  H   UNL     1      33.068 -22.103 -19.357  0.00  0.00    +0.174 HD
ATOM     15  H   UNL     1      37.369 -22.551 -16.733  0.00  0.00    +0.156 HD
ATOM     16  H   UNL     1      33.295 -25.143 -12.678  0.00  0.00    +0.165 HD
ENDROOT
BRANCH   5  20
ATOM     17  N   UNL     1      30.252 -22.691 -16.809  0.00  0.00    -0.315 N 
ATOM     18  N   UNL     1      28.626 -24.150 -16.402  0.00  0.00    -0.315 N 
ATOM     19  C   UNL     1      30.752 -23.538 -15.855  0.00  0.00    +0.060 C 
ATOM     20  C   UNL     1      32.151 -24.617 -14.261  0.00  0.00    +0.059 C 
ATOM     21  C   UNL     1      29.719 -24.440 -15.617  0.00  0.00    +0.059 C 
ATOM     22  C   UNL     1      31.982 -23.592 -15.198  0.00  0.00    +0.031 C 
ATOM     23  C   UNL     1      31.134 -25.536 -14.001  0.00  0.00    +0.017 C 
ATOM     24  C   UNL     1      29.907 -25.463 -14.673  0.00  0.00    +0.017 C 
ATOM     25  C   UNL     1      28.980 -23.097 -17.103  0.00  0.00    +0.182 C 
ATOM     26  H   UNL     1      30.724 -21.926 -17.211  0.00  0.00    +0.148 HD
ATOM     27  H   UNL     1      27.766 -24.629 -16.432  0.00  0.00    +0.148 HD
ENDBRANCH   5  20
BRANCH   7  28
ATOM     28  C   UNL     1      35.051 -20.975 -21.048  0.00  0.00    +0.037 C 
ATOM     29  C   UNL     1      35.626 -19.599 -21.213  0.00  0.00    +0.006 C 
ATOM     30  C   UNL     1      34.142 -19.807 -21.300  0.00  0.00    +0.006 C 
ENDBRANCH   7  28
TORSDOF 2
ENDMDL
MODEL 5
REMARK VINA RESULT:     -10.1      1.893      5.498
REMARK  Name = 42627755
REMARK  2 active torsions:
REMARK  status: ('A' for Active; 'I' for Inactive)
REMARK    1  A    between atoms: N_5  and  C_20
REMARK    2  A    between atoms: C_7  and  C_28
REMARK                            x       y       z     vdW  Elec       q    Type
REMARK                         _______ _______ _______ _____ _____    ______ ____
ROOT
ATOM      1  N   UNL     1      33.615 -20.935 -20.277  0.00  0.00    -0.239 N 
ATOM      2  N   UNL     1      34.147 -21.530 -19.196  0.00  0.00    -0.166 NA
ATOM      3  N   UNL     1      36.466 -21.731 -18.461  0.00  0.00    -0.271 N 
ATOM      4  N   UNL     1      35.241 -22.874 -16.769  0.00  0.00    -0.322 NA
ATOM      5  N   UNL     1      34.077 -24.007 -15.082  0.00  0.00    -0.247 N 
ATOM      6  N   UNL     1      36.408 -23.869 -14.910  0.00  0.00    -0.170 NA
ATOM      7  C   UNL     1      34.538 -20.350 -21.094  0.00  0.00    +0.045 C 
ATOM      8  C   UNL     1      35.758 -20.578 -20.505  0.00  0.00    +0.048 C 
ATOM      9  C   UNL     1      35.457 -21.309 -19.341  0.00  0.00    +0.152 C 
ATOM     10  C   UNL     1      36.433 -22.463 -17.249  0.00  0.00    +0.199 C 
ATOM     11  C   UNL     1      37.638 -22.713 -16.625  0.00  0.00    +0.070 C 
ATOM     12  C   UNL     1      35.301 -23.562 -15.612  0.00  0.00    +0.150 C 
ATOM     13  C   UNL     1      37.565 -23.428 -15.447  0.00  0.00    +0.116 C 
ATOM     14  H   UNL     1      32.648 -20.922 -20.463  0.00  0.00    +0.174 HD
ATOM     15  H   UNL     1      37.372 -21.468 -18.741  0.00  0.00    +0.156 HD
ATOM     16  H   UNL     1      34.169 -24.504 -14.237  0.00  0.00    +0.165 HD
ENDROOT
BRANCH   5  20
ATOM     17  N   UNL     1      29.226 -24.940 -14.950  0.00  0.00    -0.315 N 
ATOM     18  N   UNL     1      28.763 -23.629 -16.684  0.00  0.00    -0.315 N 
ATOM     19  C   UNL     1      30.430 -24.418 -15.346  0.00  0.00    +0.060 C 
ATOM     20  C   UNL     1      32.740 -23.879 -15.526  0.00  0.00    +0.059 C 
ATOM     21  C   UNL     1      30.114 -23.603 -16.429  0.00  0.00    +0.059 C 
ATOM     22  C   UNL     1      31.729 -24.583 -14.864  0.00  0.00    +0.031 C 
ATOM     23  C   UNL     1      32.456 -23.054 -16.615  0.00  0.00    +0.017 C 
ATOM     24  C   UNL     1      31.143 -22.903 -17.082  0.00  0.00    +0.017 C 
ATOM     25  C   UNL     1      28.261 -24.440 -15.780  0.00  0.00    +0.182 C 
ATOM     26  H   UNL     1      29.081 -25.565 -14.203  0.00  0.00    +0.148 HD
ATOM     27  H   UNL     1      28.277 -23.144 -17.390  0.00  0.00    +0.148 HD
ENDBRANCH   5  20
BRANCH   7  28
ATOM     28  C   UNL     1      34.262 -19.601 -22.391  0.00  0.00    +0.037 C 
ATOM     29  C   UNL     1      35.384 -19.415 -23.369  0.00  0.00    +0.006 C 
ATOM     30  C   UNL     1      34.872 -18.243 -22.582  0.00  0.00    +0.006 C 
ENDBRANCH   7  28
TORSDOF 2
ENDMDL
MODEL 6
REMARK VINA RESULT:      -9.8      1.923      5.390
REMARK  Name = 42627755
REMARK  2 active torsions:
REMARK  status: ('A' for Active; 'I' for Inactive)
REMARK    1  A    between atoms: N_5  and  C_20
REMARK    2  A    between atoms: C_7  and  C_28
REMARK                            x       y       z     vdW  Elec       q    Type
REMARK                         _______ _______ _______ _____ _____    ______ ____
ROOT
ATOM      1  N   UNL     1      31.574 -23.954 -15.459  0.00  0.00    -0.239 N 
ATOM      2  N   UNL     1      32.661 -23.530 -16.125  0.00  0.00    -0.166 NA
ATOM      3  N   UNL     1      32.884 -22.471 -18.313  0.00  0.00    -0.271 N 
ATOM      4  N   UNL     1      35.128 -22.614 -17.529  0.00  0.00    -0.322 NA
ATOM      5  N   UNL     1      37.349 -22.734 -16.799  0.00  0.00    -0.247 N 
ATOM      6  N   UNL     1      36.930 -21.783 -18.897  0.00  0.00    -0.170 NA
ATOM      7  C   UNL     1      30.404 -23.756 -16.132  0.00  0.00    +0.045 C 
ATOM      8  C   UNL     1      30.751 -23.159 -17.319  0.00  0.00    +0.048 C 
ATOM      9  C   UNL     1      32.152 -23.045 -17.261  0.00  0.00    +0.152 C 
ATOM     10  C   UNL     1      34.268 -22.242 -18.501  0.00  0.00    +0.199 C 
ATOM     11  C   UNL     1      34.659 -21.643 -19.681  0.00  0.00    +0.070 C 
ATOM     12  C   UNL     1      36.425 -22.358 -17.790  0.00  0.00    +0.150 C 
ATOM     13  C   UNL     1      36.015 -21.437 -19.827  0.00  0.00    +0.116 C 
ATOM     14  H   UNL     1      31.617 -24.370 -14.568  0.00  0.00    +0.174 HD
ATOM     15  H   UNL     1      32.326 -22.170 -19.066  0.00  0.00    +0.156 HD
ATOM     16  H   UNL     1      38.284 -22.528 -17.031  0.00  0.00    +0.165 HD
ENDROOT
BRANCH   5  20
ATOM     17  N   UNL     1      35.156 -23.468 -12.432  0.00  0.00    -0.315 N 
ATOM     18  N   UNL     1      36.596 -25.033 -11.789  0.00  0.00    -0.315 N 
ATOM     19  C   UNL     1      36.042 -23.596 -13.469  0.00  0.00    +0.060 C 
ATOM     20  C   UNL     1      37.198 -23.348 -15.534  0.00  0.00    +0.059 C 
ATOM     21  C   UNL     1      36.932 -24.579 -13.044  0.00  0.00    +0.059 C 
ATOM     22  C   UNL     1      36.141 -22.957 -14.705  0.00  0.00    +0.031 C 
ATOM     23  C   UNL     1      38.106 -24.330 -15.136  0.00  0.00    +0.017 C 
ATOM     24  C   UNL     1      37.988 -24.959 -13.890  0.00  0.00    +0.017 C 
ATOM     25  C   UNL     1      35.528 -24.346 -11.452  0.00  0.00    +0.182 C 
ATOM     26  H   UNL     1      34.387 -22.853 -12.398  0.00  0.00    +0.148 HD
ATOM     27  H   UNL     1      37.057 -25.724 -11.259  0.00  0.00    +0.148 HD
ENDBRANCH   5  20
BRANCH   7  28
ATOM     28  C   UNL     1      29.006 -24.124 -15.655  0.00  0.00    +0.037 C 
ATOM     29  C   UNL     1      27.934 -24.359 -16.678  0.00  0.00    +0.006 C 
ATOM     30  C   UNL     1      27.899 -23.124 -15.826  0.00  0.00    +0.006 C 
ENDBRANCH   7  28
TORSDOF 2
ENDMDL
MODEL 7
REMARK VINA RESULT:      -9.6      2.175      6.207
REMARK  Name = 42627755
REMARK  2 active torsions:
REMARK  status: ('A' for Active; 'I' for Inactive)
REMARK    1  A    between atoms: N_5  and  C_20
REMARK    2  A    between atoms: C_7  and  C_28
REMARK                            x       y       z     vdW  Elec       q    Type
REMARK                         _______ _______ _______ _____ _____    ______ ____
ROOT
ATOM      1  N   UNL     1      30.749 -23.527 -16.244  0.00  0.00    -0.239 N 
ATOM      2  N   UNL     1      31.960 -23.613 -15.670  0.00  0.00    -0.166 NA
ATOM      3  N   UNL     1      32.641 -24.498 -13.499  0.00  0.00    -0.271 N 
ATOM      4  N   UNL     1      34.687 -23.766 -14.472  0.00  0.00    -0.322 NA
ATOM      5  N   UNL     1      36.723 -23.059 -15.390  0.00  0.00    -0.247 N 
ATOM      6  N   UNL     1      36.752 -24.021 -13.255  0.00  0.00    -0.170 NA
ATOM      7  C   UNL     1      29.737 -24.019 -15.473  0.00  0.00    +0.045 C 
ATOM      8  C   UNL     1      30.330 -24.459 -14.314  0.00  0.00    +0.048 C 
ATOM      9  C   UNL     1      31.698 -24.183 -14.490  0.00  0.00    +0.152 C 
ATOM     10  C   UNL     1      34.045 -24.329 -13.427  0.00  0.00    +0.199 C 
ATOM     11  C   UNL     1      34.679 -24.758 -12.280  0.00  0.00    +0.070 C 
ATOM     12  C   UNL     1      36.021 -23.644 -14.321  0.00  0.00    +0.150 C 
ATOM     13  C   UNL     1      36.046 -24.577 -12.248  0.00  0.00    +0.116 C 
ATOM     14  H   UNL     1      30.604 -23.144 -17.140  0.00  0.00    +0.174 HD
ATOM     15  H   UNL     1      32.251 -24.916 -12.699  0.00  0.00    +0.156 HD
ATOM     16  H   UNL     1      37.693 -22.991 -15.236  0.00  0.00    +0.165 HD
ENDROOT
BRANCH   5  20
ATOM     17  N   UNL     1      33.510 -22.382 -19.083  0.00  0.00    -0.315 N 
ATOM     18  N   UNL     1      34.912 -21.153 -20.293  0.00  0.00    -0.315 N 
ATOM     19  C   UNL     1      34.662 -22.309 -18.345  0.00  0.00    +0.060 C 
ATOM     20  C   UNL     1      36.307 -22.552 -16.643  0.00  0.00    +0.059 C 
ATOM     21  C   UNL     1      35.522 -21.536 -19.120  0.00  0.00    +0.059 C 
ATOM     22  C   UNL     1      35.016 -22.835 -17.102  0.00  0.00    +0.031 C 
ATOM     23  C   UNL     1      37.192 -21.781 -17.398  0.00  0.00    +0.017 C 
ATOM     24  C   UNL     1      36.815 -21.262 -18.643  0.00  0.00    +0.017 C 
ATOM     25  C   UNL     1      33.709 -21.678 -20.238  0.00  0.00    +0.182 C 
ATOM     26  H   UNL     1      32.687 -22.858 -18.829  0.00  0.00    +0.148 HD
ATOM     27  H   UNL     1      35.295 -20.605 -21.016  0.00  0.00    +0.148 HD
ENDBRANCH   5  20
BRANCH   7  28
ATOM     28  C   UNL     1      28.258 -24.067 -15.832  0.00  0.00    +0.037 C 
ATOM     29  C   UNL     1      27.831 -23.599 -17.191  0.00  0.00    +0.006 C 
ATOM     30  C   UNL     1      27.510 -22.774 -15.980  0.00  0.00    +0.006 C 
ENDBRANCH   7  28
TORSDOF 2
ENDMDL
MODEL 8
REMARK VINA RESULT:      -9.3      9.252     14.622
REMARK  Name = 42627755
REMARK  2 active torsions:
REMARK  status: ('A' for Active; 'I' for Inactive)
REMARK    1  A    between atoms: N_5  and  C_20
REMARK    2  A    between atoms: C_7  and  C_28
REMARK                            x       y       z     vdW  Elec       q    Type
REMARK                         _______ _______ _______ _____ _____    ______ ____
ROOT
ATOM      1  N   UNL     1      34.094 -14.479 -21.727  0.00  0.00    -0.239 N 
ATOM      2  N   UNL     1      33.896 -13.554 -22.681  0.00  0.00    -0.166 NA
ATOM      3  N   UNL     1      34.243 -13.649 -25.096  0.00  0.00    -0.271 N 
ATOM      4  N   UNL     1      33.428 -11.442 -24.734  0.00  0.00    -0.322 NA
ATOM      5  N   UNL     1      32.629  -9.262 -24.424  0.00  0.00    -0.247 N 
ATOM      6  N   UNL     1      33.150  -9.946 -26.602  0.00  0.00    -0.170 NA
ATOM      7  C   UNL     1      34.570 -15.667 -22.200  0.00  0.00    +0.045 C 
ATOM      8  C   UNL     1      34.691 -15.506 -23.559  0.00  0.00    +0.048 C 
ATOM      9  C   UNL     1      34.264 -14.187 -23.799  0.00  0.00    +0.152 C 
ATOM     10  C   UNL     1      33.867 -12.380 -25.598  0.00  0.00    +0.199 C 
ATOM     11  C   UNL     1      33.973 -12.178 -26.959  0.00  0.00    +0.070 C 
ATOM     12  C   UNL     1      33.091 -10.264 -25.296  0.00  0.00    +0.150 C 
ATOM     13  C   UNL     1      33.598 -10.930 -27.410  0.00  0.00    +0.116 C 
ATOM     14  H   UNL     1      33.911 -14.315 -20.773  0.00  0.00    +0.174 HD
ATOM     15  H   UNL     1      34.551 -14.275 -25.789  0.00  0.00    +0.156 HD
ATOM     16  H   UNL     1      32.394  -8.421 -24.878  0.00  0.00    +0.165 HD
ENDROOT
BRANCH   5  20
ATOM     17  N   UNL     1      31.067 -11.060 -20.094  0.00  0.00    -0.315 N 
ATOM     18  N   UNL     1      31.775  -9.306 -18.927  0.00  0.00    -0.315 N 
ATOM     19  C   UNL     1      31.632 -10.214 -21.012  0.00  0.00    +0.060 C 
ATOM     20  C   UNL     1      32.435  -9.228 -23.024  0.00  0.00    +0.059 C 
ATOM     21  C   UNL     1      32.067  -9.127 -20.259  0.00  0.00    +0.059 C 
ATOM     22  C   UNL     1      31.797 -10.303 -22.395  0.00  0.00    +0.031 C 
ATOM     23  C   UNL     1      32.881  -8.124 -22.296  0.00  0.00    +0.017 C 
ATOM     24  C   UNL     1      32.706  -8.056 -20.908  0.00  0.00    +0.017 C 
ATOM     25  C   UNL     1      31.176 -10.473 -18.863  0.00  0.00    +0.182 C 
ATOM     26  H   UNL     1      30.655 -11.933 -20.286  0.00  0.00    +0.148 HD
ATOM     27  H   UNL     1      31.972  -8.692 -18.182  0.00  0.00    +0.148 HD
ENDBRANCH   5  20
BRANCH   7  28
ATOM     28  C   UNL     1      34.896 -16.908 -21.382  0.00  0.00    +0.037 C 
ATOM     29  C   UNL     1      35.951 -17.848 -21.887  0.00  0.00    +0.006 C 
ATOM     30  C   UNL     1      34.506 -18.252 -21.925  0.00  0.00    +0.006 C 
ENDBRANCH   7  28
TORSDOF 2
ENDMDL
MODEL 9
REMARK VINA RESULT:      -9.0     12.281     16.367
REMARK  Name = 42627755
REMARK  2 active torsions:
REMARK  status: ('A' for Active; 'I' for Inactive)
REMARK    1  A    between atoms: N_5  and  C_20
REMARK    2  A    between atoms: C_7  and  C_28
REMARK                            x       y       z     vdW  Elec       q    Type
REMARK                         _______ _______ _______ _____ _____    ______ ____
ROOT
ATOM      1  N   UNL     1      33.716 -12.218 -24.667  0.00  0.00    -0.239 N 
ATOM      2  N   UNL     1      33.259 -11.431 -23.679  0.00  0.00    -0.166 NA
ATOM      3  N   UNL     1      31.990 -11.970 -21.665  0.00  0.00    -0.271 N 
ATOM      4  N   UNL     1      32.281  -9.611 -21.529  0.00  0.00    -0.322 NA
ATOM      5  N   UNL     1      32.543  -7.290 -21.354  0.00  0.00    -0.247 N 
ATOM      6  N   UNL     1      31.371  -8.397 -19.656  0.00  0.00    -0.170 NA
ATOM      7  C   UNL     1      33.413 -13.538 -24.506  0.00  0.00    +0.045 C 
ATOM      8  C   UNL     1      32.708 -13.620 -23.329  0.00  0.00    +0.048 C 
ATOM      9  C   UNL     1      32.643 -12.293 -22.865  0.00  0.00    +0.152 C 
ATOM     10  C   UNL     1      31.784 -10.743 -20.988  0.00  0.00    +0.199 C 
ATOM     11  C   UNL     1      31.081 -10.781 -19.802  0.00  0.00    +0.070 C 
ATOM     12  C   UNL     1      32.041  -8.490 -20.820  0.00  0.00    +0.150 C 
ATOM     13  C   UNL     1      30.902  -9.566 -19.173  0.00  0.00    +0.116 C 
ATOM     14  H   UNL     1      34.225 -11.874 -25.437  0.00  0.00    +0.174 HD
ATOM     15  H   UNL     1      31.598 -12.747 -21.205  0.00  0.00    +0.156 HD
ATOM     16  H   UNL     1      32.345  -6.498 -20.804  0.00  0.00    +0.165 HD
ENDROOT
BRANCH   5  20
ATOM     17  N   UNL     1      33.652  -4.654 -25.385  0.00  0.00    -0.315 N 
ATOM     18  N   UNL     1      35.321  -5.989 -25.996  0.00  0.00    -0.315 N 
ATOM     19  C   UNL     1      33.701  -5.637 -24.432  0.00  0.00    +0.060 C 
ATOM     20  C   UNL     1      33.279  -7.000 -22.527  0.00  0.00    +0.059 C 
ATOM     21  C   UNL     1      34.751  -6.458 -24.835  0.00  0.00    +0.059 C 
ATOM     22  C   UNL     1      32.941  -5.874 -23.286  0.00  0.00    +0.031 C 
ATOM     23  C   UNL     1      34.326  -7.841 -22.905  0.00  0.00    +0.017 C 
ATOM     24  C   UNL     1      35.076  -7.585 -24.061  0.00  0.00    +0.017 C 
ATOM     25  C   UNL     1      34.638  -4.907 -26.298  0.00  0.00    +0.182 C 
ATOM     26  H   UNL     1      33.019  -3.900 -25.409  0.00  0.00    +0.148 HD
ATOM     27  H   UNL     1      36.076  -6.378 -26.493  0.00  0.00    +0.148 HD
ENDBRANCH   5  20
BRANCH   7  28
ATOM     28  C   UNL     1      33.784 -14.679 -25.443  0.00  0.00    +0.037 C 
ATOM     29  C   UNL     1      33.342 -16.070 -25.096  0.00  0.00    +0.006 C 
ATOM     30  C   UNL     1      34.790 -15.693 -24.981  0.00  0.00    +0.006 C 
ENDBRANCH   7  28
TORSDOF 2
ENDMDL
