MODEL 1
REMARK VINA RESULT:     -11.9      0.000      0.000
REMARK  Name = 44129603
REMARK  3 active torsions:
REMARK  status: ('A' for Active; 'I' for Inactive)
REMARK    1  A    between atoms: N_5  and  C_17
REMARK    2  A    between atoms: C_12  and  C_24
REMARK    3  A    between atoms: C_24  and  O_25
REMARK                            x       y       z     vdW  Elec       q    Type
REMARK                         _______ _______ _______ _____ _____    ______ ____
ROOT
ATOM      1  N   UNL     1      36.460 -22.991 -15.367  0.00  0.00    -0.246 N 
ATOM      2  N   UNL     1      37.432 -23.074 -14.435  0.00  0.00    -0.163 NA
ATOM      3  N   UNL     1      33.873 -22.908 -16.817  0.00  0.00    -0.336 NA
ATOM      4  N   UNL     1      31.566 -23.623 -16.853  0.00  0.00    -0.170 NA
ATOM      5  N   UNL     1      32.489 -22.422 -18.646  0.00  0.00    -0.247 N 
ATOM      6  C   UNL     1      34.300 -24.241 -12.753  0.00  0.00    +0.035 C 
ATOM      7  C   UNL     1      35.428 -23.769 -13.600  0.00  0.00    +0.024 A 
ATOM      8  C   UNL     1      33.152 -24.832 -13.615  0.00  0.00    +0.035 C 
ATOM      9  C   UNL     1      35.245 -23.403 -14.915  0.00  0.00    +0.106 A 
ATOM     10  C   UNL     1      32.937 -24.137 -14.942  0.00  0.00    +0.030 C 
ATOM     11  C   UNL     1      33.978 -23.482 -15.604  0.00  0.00    +0.158 C 
ATOM     12  C   UNL     1      36.793 -23.546 -13.357  0.00  0.00    +0.174 A 
ATOM     13  C   UNL     1      31.743 -24.183 -15.636  0.00  0.00    +0.110 C 
ATOM     14  C   UNL     1      36.800 -22.475 -16.673  0.00  0.00    +0.154 C 
ATOM     15  C   UNL     1      32.652 -23.014 -17.375  0.00  0.00    +0.149 C 
ATOM     16  H   UNL     1      31.582 -22.521 -19.016  0.00  0.00    +0.165 HD
ENDROOT
BRANCH   5  17
ATOM     17  C   UNL     1      33.368 -21.716 -19.488  0.00  0.00    +0.058 C 
ATOM     18  C   UNL     1      32.878 -20.718 -20.329  0.00  0.00    +0.015 C 
ATOM     19  C   UNL     1      34.731 -22.016 -19.480  0.00  0.00    +0.015 C 
ATOM     20  C   UNL     1      33.750 -20.018 -21.164  0.00  0.00    +0.001 C 
ATOM     21  C   UNL     1      35.603 -21.315 -20.314  0.00  0.00    +0.001 C 
ATOM     22  C   UNL     1      35.113 -20.317 -21.156  0.00  0.00    +0.000 C 
ENDBRANCH   5  17
BRANCH  12  24
ATOM     23  O   UNL     1      37.513 -24.818 -11.463  0.00  0.00    -0.243 OA
ATOM     24  C   UNL     1      37.521 -23.772 -12.142  0.00  0.00    +0.357 C 
BRANCH  24  25
ATOM     25  O   UNL     1      38.273 -22.695 -11.754  0.00  0.00    -0.476 OA
ATOM     26  H   UNL     1      38.798 -22.240 -12.383  0.00  0.00    +0.295 HD
ENDBRANCH  24  25
ENDBRANCH  12  24
TORSDOF 3
ENDMDL
MODEL 2
REMARK VINA RESULT:     -10.3     11.699     14.761
REMARK  Name = 44129603
REMARK  3 active torsions:
REMARK  status: ('A' for Active; 'I' for Inactive)
REMARK    1  A    between atoms: N_5  and  C_17
REMARK    2  A    between atoms: C_12  and  C_24
REMARK    3  A    between atoms: C_24  and  O_25
REMARK                            x       y       z     vdW  Elec       q    Type
REMARK                         _______ _______ _______ _____ _____    ______ ____
ROOT
ATOM      1  N   UNL     1      33.476 -11.965 -24.505  0.00  0.00    -0.246 N 
ATOM      2  N   UNL     1      34.069 -13.052 -25.039  0.00  0.00    -0.163 NA
ATOM      3  N   UNL     1      32.238  -9.971 -22.689  0.00  0.00    -0.336 NA
ATOM      4  N   UNL     1      31.021  -9.607 -20.635  0.00  0.00    -0.170 NA
ATOM      5  N   UNL     1      31.485  -7.831 -22.098  0.00  0.00    -0.247 N 
ATOM      6  C   UNL     1      33.023 -14.052 -21.589  0.00  0.00    +0.035 C 
ATOM      7  C   UNL     1      33.335 -13.471 -22.922  0.00  0.00    +0.024 A 
ATOM      8  C   UNL     1      31.837 -13.311 -20.912  0.00  0.00    +0.035 C 
ATOM      9  C   UNL     1      33.015 -12.171 -23.242  0.00  0.00    +0.106 A 
ATOM     10  C   UNL     1      31.785 -11.823 -21.184  0.00  0.00    +0.030 C 
ATOM     11  C   UNL     1      32.316 -11.272 -22.352  0.00  0.00    +0.158 C 
ATOM     12  C   UNL     1      33.984 -13.967 -24.065  0.00  0.00    +0.174 A 
ATOM     13  C   UNL     1      31.131 -10.926 -20.362  0.00  0.00    +0.110 C 
ATOM     14  C   UNL     1      33.421 -10.753 -25.290  0.00  0.00    +0.154 C 
ATOM     15  C   UNL     1      31.586  -9.206 -21.793  0.00  0.00    +0.149 C 
ATOM     16  H   UNL     1      31.003  -7.309 -21.416  0.00  0.00    +0.165 HD
ENDROOT
BRANCH   5  17
ATOM     17  C   UNL     1      31.937  -7.060 -23.184  0.00  0.00    +0.058 C 
ATOM     18  C   UNL     1      33.181  -6.433 -23.124  0.00  0.00    +0.015 C 
ATOM     19  C   UNL     1      31.141  -6.924 -24.322  0.00  0.00    +0.015 C 
ATOM     20  C   UNL     1      33.630  -5.669 -24.202  0.00  0.00    +0.001 C 
ATOM     21  C   UNL     1      31.590  -6.161 -25.400  0.00  0.00    +0.001 C 
ATOM     22  C   UNL     1      32.834  -5.533 -25.340  0.00  0.00    +0.000 C 
ENDBRANCH   5  17
BRANCH  12  24
ATOM     23  O   UNL     1      35.290 -15.892 -23.510  0.00  0.00    -0.243 OA
ATOM     24  C   UNL     1      34.519 -15.281 -24.275  0.00  0.00    +0.357 C 
BRANCH  24  25
ATOM     25  O   UNL     1      34.100 -15.854 -25.446  0.00  0.00    -0.476 OA
ATOM     26  H   UNL     1      34.025 -15.334 -26.222  0.00  0.00    +0.295 HD
ENDBRANCH  24  25
ENDBRANCH  12  24
TORSDOF 3
ENDMDL
MODEL 3
REMARK VINA RESULT:      -9.7      3.495      6.960
REMARK  Name = 44129603
REMARK  3 active torsions:
REMARK  status: ('A' for Active; 'I' for Inactive)
REMARK    1  A    between atoms: N_5  and  C_17
REMARK    2  A    between atoms: C_12  and  C_24
REMARK    3  A    between atoms: C_24  and  O_25
REMARK                            x       y       z     vdW  Elec       q    Type
REMARK                         _______ _______ _______ _____ _____    ______ ____
ROOT
ATOM      1  N   UNL     1      32.401 -24.027 -15.486  0.00  0.00    -0.246 N 
ATOM      2  N   UNL     1      31.058 -24.110 -15.397  0.00  0.00    -0.163 NA
ATOM      3  N   UNL     1      35.192 -23.299 -16.183  0.00  0.00    -0.336 NA
ATOM      4  N   UNL     1      36.674 -22.399 -17.864  0.00  0.00    -0.170 NA
ATOM      5  N   UNL     1      37.511 -23.250 -15.843  0.00  0.00    -0.247 N 
ATOM      6  C   UNL     1      31.753 -22.020 -18.421  0.00  0.00    +0.035 C 
ATOM      7  C   UNL     1      31.688 -22.880 -17.209  0.00  0.00    +0.024 A 
ATOM      8  C   UNL     1      33.106 -22.188 -19.164  0.00  0.00    +0.035 C 
ATOM      9  C   UNL     1      32.824 -23.306 -16.559  0.00  0.00    +0.106 A 
ATOM     10  C   UNL     1      34.299 -22.410 -18.259  0.00  0.00    +0.030 C 
ATOM     11  C   UNL     1      34.166 -23.007 -17.004  0.00  0.00    +0.158 C 
ATOM     12  C   UNL     1      30.629 -23.404 -16.451  0.00  0.00    +0.174 A 
ATOM     13  C   UNL     1      35.599 -22.137 -18.640  0.00  0.00    +0.110 C 
ATOM     14  C   UNL     1      33.201 -24.664 -14.465  0.00  0.00    +0.154 C 
ATOM     15  C   UNL     1      36.403 -22.969 -16.672  0.00  0.00    +0.149 C 
ATOM     16  H   UNL     1      38.376 -22.991 -16.238  0.00  0.00    +0.165 HD
ENDROOT
BRANCH   5  17
ATOM     17  C   UNL     1      37.624 -23.826 -14.565  0.00  0.00    +0.058 C 
ATOM     18  C   UNL     1      37.185 -23.124 -13.443  0.00  0.00    +0.015 C 
ATOM     19  C   UNL     1      38.175 -25.099 -14.420  0.00  0.00    +0.015 C 
ATOM     20  C   UNL     1      37.295 -23.696 -12.174  0.00  0.00    +0.001 C 
ATOM     21  C   UNL     1      38.285 -25.671 -13.152  0.00  0.00    +0.001 C 
ATOM     22  C   UNL     1      37.846 -24.969 -12.030  0.00  0.00    +0.000 C 
ENDBRANCH   5  17
BRANCH  12  24
ATOM     23  O   UNL     1      28.649 -22.272 -17.172  0.00  0.00    -0.243 OA
ATOM     24  C   UNL     1      29.220 -23.269 -16.690  0.00  0.00    +0.357 C 
BRANCH  24  25
ATOM     25  O   UNL     1      28.503 -24.378 -16.331  0.00  0.00    -0.476 OA
ATOM     26  H   UNL     1      27.866 -24.323 -15.645  0.00  0.00    +0.295 HD
ENDBRANCH  24  25
ENDBRANCH  12  24
TORSDOF 3
ENDMDL
MODEL 4
REMARK VINA RESULT:      -9.6      3.607      6.696
REMARK  Name = 44129603
REMARK  3 active torsions:
REMARK  status: ('A' for Active; 'I' for Inactive)
REMARK    1  A    between atoms: N_5  and  C_17
REMARK    2  A    between atoms: C_12  and  C_24
REMARK    3  A    between atoms: C_24  and  O_25
REMARK                            x       y       z     vdW  Elec       q    Type
REMARK                         _______ _______ _______ _____ _____    ______ ____
ROOT
ATOM      1  N   UNL     1      36.283 -21.828 -18.199  0.00  0.00    -0.246 N 
ATOM      2  N   UNL     1      36.628 -21.040 -19.238  0.00  0.00    -0.163 NA
ATOM      3  N   UNL     1      34.904 -23.676 -16.332  0.00  0.00    -0.336 NA
ATOM      4  N   UNL     1      32.784 -24.535 -15.555  0.00  0.00    -0.170 NA
ATOM      5  N   UNL     1      34.796 -25.154 -14.515  0.00  0.00    -0.247 N 
ATOM      6  C   UNL     1      32.998 -21.815 -19.705  0.00  0.00    +0.035 C 
ATOM      7  C   UNL     1      34.423 -21.609 -19.333  0.00  0.00    +0.024 A 
ATOM      8  C   UNL     1      32.134 -22.176 -18.466  0.00  0.00    +0.035 C 
ATOM      9  C   UNL     1      34.971 -22.188 -18.210  0.00  0.00    +0.106 A 
ATOM     10  C   UNL     1      32.837 -23.033 -17.435  0.00  0.00    +0.030 C 
ATOM     11  C   UNL     1      34.224 -22.997 -17.275  0.00  0.00    +0.158 C 
ATOM     12  C   UNL     1      35.488 -20.914 -19.929  0.00  0.00    +0.174 A 
ATOM     13  C   UNL     1      32.165 -23.823 -16.523  0.00  0.00    +0.110 C 
ATOM     14  C   UNL     1      37.304 -22.202 -17.248  0.00  0.00    +0.154 C 
ATOM     15  C   UNL     1      34.128 -24.417 -15.518  0.00  0.00    +0.149 C 
ATOM     16  H   UNL     1      34.192 -25.683 -13.944  0.00  0.00    +0.165 HD
ENDROOT
BRANCH   5  17
ATOM     17  C   UNL     1      36.154 -25.282 -14.171  0.00  0.00    +0.058 C 
ATOM     18  C   UNL     1      36.663 -24.594 -13.071  0.00  0.00    +0.015 C 
ATOM     19  C   UNL     1      36.991 -26.098 -14.933  0.00  0.00    +0.015 C 
ATOM     20  C   UNL     1      38.010 -24.721 -12.729  0.00  0.00    +0.001 C 
ATOM     21  C   UNL     1      38.338 -26.226 -14.591  0.00  0.00    +0.001 C 
ATOM     22  C   UNL     1      38.847 -25.537 -13.490  0.00  0.00    +0.000 C 
ENDBRANCH   5  17
BRANCH  12  24
ATOM     23  O   UNL     1      34.723 -20.303 -22.111  0.00  0.00    -0.243 OA
ATOM     24  C   UNL     1      35.465 -20.124 -21.127  0.00  0.00    +0.357 C 
BRANCH  24  25
ATOM     25  O   UNL     1      36.371 -19.098 -21.114  0.00  0.00    -0.476 OA
ATOM     26  H   UNL     1      36.712 -18.784 -20.299  0.00  0.00    +0.295 HD
ENDBRANCH  24  25
ENDBRANCH  12  24
TORSDOF 3
ENDMDL
MODEL 5
REMARK VINA RESULT:      -9.4      1.921      4.464
REMARK  Name = 44129603
REMARK  3 active torsions:
REMARK  status: ('A' for Active; 'I' for Inactive)
REMARK    1  A    between atoms: N_5  and  C_17
REMARK    2  A    between atoms: C_12  and  C_24
REMARK    3  A    between atoms: C_24  and  O_25
REMARK                            x       y       z     vdW  Elec       q    Type
REMARK                         _______ _______ _______ _____ _____    ______ ____
ROOT
ATOM      1  N   UNL     1      34.637 -23.903 -13.483  0.00  0.00    -0.246 N 
ATOM      2  N   UNL     1      35.487 -24.192 -12.477  0.00  0.00    -0.163 NA
ATOM      3  N   UNL     1      33.390 -23.346 -16.118  0.00  0.00    -0.336 NA
ATOM      4  N   UNL     1      33.722 -22.525 -18.365  0.00  0.00    -0.170 NA
ATOM      5  N   UNL     1      31.584 -23.114 -17.595  0.00  0.00    -0.247 N 
ATOM      6  C   UNL     1      37.635 -23.469 -15.454  0.00  0.00    +0.035 C 
ATOM      7  C   UNL     1      36.617 -23.697 -14.394  0.00  0.00    +0.024 A 
ATOM      8  C   UNL     1      37.083 -22.557 -16.584  0.00  0.00    +0.035 C 
ATOM      9  C   UNL     1      35.268 -23.594 -14.648  0.00  0.00    +0.106 A 
ATOM     10  C   UNL     1      35.615 -22.758 -16.896  0.00  0.00    +0.030 C 
ATOM     11  C   UNL     1      34.716 -23.215 -15.929  0.00  0.00    +0.158 C 
ATOM     12  C   UNL     1      36.695 -24.068 -13.042  0.00  0.00    +0.174 A 
ATOM     13  C   UNL     1      35.044 -22.413 -18.105  0.00  0.00    +0.110 C 
ATOM     14  C   UNL     1      33.216 -23.974 -13.228  0.00  0.00    +0.154 C 
ATOM     15  C   UNL     1      32.968 -22.988 -17.346  0.00  0.00    +0.149 C 
ATOM     16  H   UNL     1      31.320 -22.844 -18.505  0.00  0.00    +0.165 HD
ENDROOT
BRANCH   5  17
ATOM     17  C   UNL     1      30.508 -23.550 -16.800  0.00  0.00    +0.058 C 
ATOM     18  C   UNL     1      29.305 -22.845 -16.809  0.00  0.00    +0.015 C 
ATOM     19  C   UNL     1      30.646 -24.687 -16.005  0.00  0.00    +0.015 C 
ATOM     20  C   UNL     1      28.238 -23.279 -16.021  0.00  0.00    +0.001 C 
ATOM     21  C   UNL     1      29.579 -25.120 -15.217  0.00  0.00    +0.001 C 
ATOM     22  C   UNL     1      28.376 -24.416 -15.225  0.00  0.00    +0.000 C 
ENDBRANCH   5  17
BRANCH  12  24
ATOM     23  O   UNL     1      38.656 -23.432 -11.829  0.00  0.00    -0.243 OA
ATOM     24  C   UNL     1      37.874 -24.302 -12.258  0.00  0.00    +0.357 C 
BRANCH  24  25
ATOM     25  O   UNL     1      38.094 -25.628 -11.997  0.00  0.00    -0.476 OA
ATOM     26  H   UNL     1      38.761 -25.882 -11.390  0.00  0.00    +0.295 HD
ENDBRANCH  24  25
ENDBRANCH  12  24
TORSDOF 3
ENDMDL
MODEL 6
REMARK VINA RESULT:      -9.1      2.566      4.394
REMARK  Name = 44129603
REMARK  3 active torsions:
REMARK  status: ('A' for Active; 'I' for Inactive)
REMARK    1  A    between atoms: N_5  and  C_17
REMARK    2  A    between atoms: C_12  and  C_24
REMARK    3  A    between atoms: C_24  and  O_25
REMARK                            x       y       z     vdW  Elec       q    Type
REMARK                         _______ _______ _______ _____ _____    ______ ____
ROOT
ATOM      1  N   UNL     1      32.192 -23.205 -16.719  0.00  0.00    -0.246 N 
ATOM      2  N   UNL     1      31.093 -23.794 -16.206  0.00  0.00    -0.163 NA
ATOM      3  N   UNL     1      34.965 -22.442 -17.447  0.00  0.00    -0.336 NA
ATOM      4  N   UNL     1      37.288 -22.435 -16.783  0.00  0.00    -0.170 NA
ATOM      5  N   UNL     1      36.588 -21.361 -18.749  0.00  0.00    -0.247 N 
ATOM      6  C   UNL     1      33.985 -25.158 -14.262  0.00  0.00    +0.035 C 
ATOM      7  C   UNL     1      32.978 -24.487 -15.128  0.00  0.00    +0.024 A 
ATOM      8  C   UNL     1      35.287 -24.319 -14.153  0.00  0.00    +0.035 C 
ATOM      9  C   UNL     1      33.343 -23.584 -16.101  0.00  0.00    +0.106 A 
ATOM     10  C   UNL     1      35.667 -23.575 -15.416  0.00  0.00    +0.030 C 
ATOM     11  C   UNL     1      34.705 -23.168 -16.344  0.00  0.00    +0.158 C 
ATOM     12  C   UNL     1      31.581 -24.579 -15.237  0.00  0.00    +0.174 A 
ATOM     13  C   UNL     1      36.955 -23.160 -15.692  0.00  0.00    +0.110 C 
ATOM     14  C   UNL     1      32.032 -22.297 -17.832  0.00  0.00    +0.154 C 
ATOM     15  C   UNL     1      36.263 -22.117 -17.602  0.00  0.00    +0.149 C 
ATOM     16  H   UNL     1      37.546 -21.147 -18.824  0.00  0.00    +0.165 HD
ENDROOT
BRANCH   5  17
ATOM     17  C   UNL     1      35.812 -20.854 -19.807  0.00  0.00    +0.058 C 
ATOM     18  C   UNL     1      34.468 -21.207 -19.918  0.00  0.00    +0.015 C 
ATOM     19  C   UNL     1      36.387 -19.996 -20.745  0.00  0.00    +0.015 C 
ATOM     20  C   UNL     1      33.697 -20.703 -20.967  0.00  0.00    +0.001 C 
ATOM     21  C   UNL     1      35.617 -19.492 -21.794  0.00  0.00    +0.001 C 
ATOM     22  C   UNL     1      34.273 -19.846 -21.904  0.00  0.00    +0.000 C 
ENDBRANCH   5  17
BRANCH  12  24
ATOM     23  O   UNL     1      29.875 -26.219 -14.886  0.00  0.00    -0.243 OA
ATOM     24  C   UNL     1      30.686 -25.379 -14.450  0.00  0.00    +0.357 C 
BRANCH  24  25
ATOM     25  O   UNL     1      30.789 -25.141 -13.106  0.00  0.00    -0.476 OA
ATOM     26  H   UNL     1      31.032 -25.835 -12.524  0.00  0.00    +0.295 HD
ENDBRANCH  24  25
ENDBRANCH  12  24
TORSDOF 3
ENDMDL
MODEL 7
REMARK VINA RESULT:      -9.0     12.259     15.774
REMARK  Name = 44129603
REMARK  3 active torsions:
REMARK  status: ('A' for Active; 'I' for Inactive)
REMARK    1  A    between atoms: N_5  and  C_17
REMARK    2  A    between atoms: C_12  and  C_24
REMARK    3  A    between atoms: C_24  and  O_25
REMARK                            x       y       z     vdW  Elec       q    Type
REMARK                         _______ _______ _______ _____ _____    ______ ____
ROOT
ATOM      1  N   UNL     1      33.731  -9.197 -24.752  0.00  0.00    -0.246 N 
ATOM      2  N   UNL     1      33.963  -8.087 -25.482  0.00  0.00    -0.163 NA
ATOM      3  N   UNL     1      32.626 -11.238 -22.904  0.00  0.00    -0.336 NA
ATOM      4  N   UNL     1      31.332 -11.650 -20.906  0.00  0.00    -0.170 NA
ATOM      5  N   UNL     1      32.393 -13.408 -22.045  0.00  0.00    -0.247 N 
ATOM      6  C   UNL     1      31.374  -7.126 -22.957  0.00  0.00    +0.035 C 
ATOM      7  C   UNL     1      32.412  -7.695 -23.858  0.00  0.00    +0.024 A 
ATOM      8  C   UNL     1      31.288  -7.915 -21.622  0.00  0.00    +0.035 C 
ATOM      9  C   UNL     1      32.815  -9.009 -23.764  0.00  0.00    +0.106 A 
ATOM     10  C   UNL     1      31.524  -9.405 -21.753  0.00  0.00    +0.030 C 
ATOM     11  C   UNL     1      32.317  -9.935 -22.773  0.00  0.00    +0.158 C 
ATOM     12  C   UNL     1      33.151  -7.174 -24.933  0.00  0.00    +0.174 A 
ATOM     13  C   UNL     1      31.066 -10.327 -20.832  0.00  0.00    +0.110 C 
ATOM     14  C   UNL     1      34.432 -10.411 -25.101  0.00  0.00    +0.154 C 
ATOM     15  C   UNL     1      32.103 -12.029 -21.947  0.00  0.00    +0.149 C 
ATOM     16  H   UNL     1      31.991 -13.949 -21.327  0.00  0.00    +0.165 HD
ENDROOT
BRANCH   5  17
ATOM     17  C   UNL     1      33.144 -14.160 -22.967  0.00  0.00    +0.058 C 
ATOM     18  C   UNL     1      34.187 -14.971 -22.520  0.00  0.00    +0.015 C 
ATOM     19  C   UNL     1      32.843 -14.096 -24.327  0.00  0.00    +0.015 C 
ATOM     20  C   UNL     1      34.930 -15.718 -23.435  0.00  0.00    +0.001 C 
ATOM     21  C   UNL     1      33.587 -14.843 -25.242  0.00  0.00    +0.001 C 
ATOM     22  C   UNL     1      34.630 -15.654 -24.795  0.00  0.00    +0.000 C 
ENDBRANCH   5  17
BRANCH  12  24
ATOM     23  O   UNL     1      32.233  -5.349 -26.176  0.00  0.00    -0.243 OA
ATOM     24  C   UNL     1      33.124  -5.839 -25.456  0.00  0.00    +0.357 C 
BRANCH  24  25
ATOM     25  O   UNL     1      34.212  -5.093 -25.088  0.00  0.00    -0.476 OA
ATOM     26  H   UNL     1      34.360  -4.255 -25.481  0.00  0.00    +0.295 HD
ENDBRANCH  24  25
ENDBRANCH  12  24
TORSDOF 3
ENDMDL
MODEL 8
REMARK VINA RESULT:      -9.0      3.265      6.216
REMARK  Name = 44129603
REMARK  3 active torsions:
REMARK  status: ('A' for Active; 'I' for Inactive)
REMARK    1  A    between atoms: N_5  and  C_17
REMARK    2  A    between atoms: C_12  and  C_24
REMARK    3  A    between atoms: C_24  and  O_25
REMARK                            x       y       z     vdW  Elec       q    Type
REMARK                         _______ _______ _______ _____ _____    ______ ____
ROOT
ATOM      1  N   UNL     1      34.028 -22.483 -18.304  0.00  0.00    -0.246 N 
ATOM      2  N   UNL     1      34.511 -21.874 -19.406  0.00  0.00    -0.163 NA
ATOM      3  N   UNL     1      33.597 -23.546 -15.567  0.00  0.00    -0.336 NA
ATOM      4  N   UNL     1      34.630 -24.286 -13.513  0.00  0.00    -0.170 NA
ATOM      5  N   UNL     1      32.311 -24.455 -13.831  0.00  0.00    -0.247 N 
ATOM      6  C   UNL     1      37.328 -21.914 -16.944  0.00  0.00    +0.035 C 
ATOM      7  C   UNL     1      36.102 -22.016 -17.780  0.00  0.00    +0.024 A 
ATOM      8  C   UNL     1      37.354 -23.005 -15.839  0.00  0.00    +0.035 C 
ATOM      9  C   UNL     1      34.947 -22.597 -17.307  0.00  0.00    +0.106 A 
ATOM     10  C   UNL     1      35.998 -23.345 -15.257  0.00  0.00    +0.030 C 
ATOM     11  C   UNL     1      34.823 -23.195 -15.997  0.00  0.00    +0.158 C 
ATOM     12  C   UNL     1      35.778 -21.588 -19.077  0.00  0.00    +0.174 A 
ATOM     13  C   UNL     1      35.832 -23.916 -14.010  0.00  0.00    +0.110 C 
ATOM     14  C   UNL     1      32.646 -22.905 -18.299  0.00  0.00    +0.154 C 
ATOM     15  C   UNL     1      33.576 -24.077 -14.330  0.00  0.00    +0.149 C 
ATOM     16  H   UNL     1      32.341 -24.837 -12.924  0.00  0.00    +0.165 HD
ENDROOT
BRANCH   5  17
ATOM     17  C   UNL     1      31.015 -24.394 -14.375  0.00  0.00    +0.058 C 
ATOM     18  C   UNL     1      30.498 -23.174 -14.810  0.00  0.00    +0.015 C 
ATOM     19  C   UNL     1      30.248 -25.555 -14.480  0.00  0.00    +0.015 C 
ATOM     20  C   UNL     1      29.213 -23.114 -15.351  0.00  0.00    +0.001 C 
ATOM     21  C   UNL     1      28.963 -25.494 -15.021  0.00  0.00    +0.001 C 
ATOM     22  C   UNL     1      28.446 -24.274 -15.455  0.00  0.00    +0.000 C 
ENDBRANCH   5  17
BRANCH  12  24
ATOM     23  O   UNL     1      36.809 -19.694 -20.112  0.00  0.00    -0.243 OA
ATOM     24  C   UNL     1      36.626 -20.924 -20.025  0.00  0.00    +0.357 C 
BRANCH  24  25
ATOM     25  O   UNL     1      37.259 -21.786 -20.880  0.00  0.00    -0.476 OA
ATOM     26  H   UNL     1      38.077 -21.544 -21.268  0.00  0.00    +0.295 HD
ENDBRANCH  24  25
ENDBRANCH  12  24
TORSDOF 3
ENDMDL
