MODEL 1
REMARK VINA RESULT:     -11.6      0.000      0.000
REMARK  Name = 46892373
REMARK  3 active torsions:
REMARK  status: ('A' for Active; 'I' for Inactive)
REMARK    1  A    between atoms: C_7  and  C_20
REMARK    2  A    between atoms: C_20  and  C_22
REMARK    3  A    between atoms: C_20  and  O_28
REMARK                            x       y       z     vdW  Elec       q    Type
REMARK                         _______ _______ _______ _____ _____    ______ ____
ROOT
ATOM      1  N   UNL     1      34.021 -23.816 -17.349  0.00  0.00    -0.326 NA
ATOM      2  N   UNL     1      34.602 -24.532 -15.184  0.00  0.00    -0.271 N 
ATOM      3  N   UNL     1      31.834 -22.908 -17.798  0.00  0.00    -0.345 NA
ATOM      4  N   UNL     1      38.025 -24.107 -15.585  0.00  0.00    -0.239 N 
ATOM      5  N   UNL     1      36.786 -23.855 -16.040  0.00  0.00    -0.166 NA
ATOM      6  C   UNL     1      32.388 -23.627 -15.577  0.00  0.00    +0.072 C 
ATOM      7  C   UNL     1      33.081 -23.285 -18.147  0.00  0.00    +0.146 C 
ATOM      8  C   UNL     1      33.643 -23.974 -16.067  0.00  0.00    +0.199 C 
ATOM      9  C   UNL     1      31.490 -23.081 -16.510  0.00  0.00    +0.129 C 
ATOM     10  C   UNL     1      32.016 -23.803 -14.234  0.00  0.00    +0.006 C 
ATOM     11  C   UNL     1      30.222 -22.720 -16.058  0.00  0.00    +0.086 C 
ATOM     12  C   UNL     1      36.006 -24.488 -15.160  0.00  0.00    +0.152 C 
ATOM     13  C   UNL     1      30.744 -23.434 -13.809  0.00  0.00    -0.004 C 
ATOM     14  C   UNL     1      29.846 -22.892 -14.722  0.00  0.00    -0.019 C 
ATOM     15  C   UNL     1      36.740 -25.139 -14.152  0.00  0.00    +0.048 C 
ATOM     16  C   UNL     1      38.053 -24.872 -14.457  0.00  0.00    +0.046 C 
ATOM     17  C   UNL     1      39.313 -25.261 -13.804  0.00  0.00    +0.049 C 
ATOM     18  H   UNL     1      34.209 -25.051 -14.446  0.00  0.00    +0.156 HD
ATOM     19  H   UNL     1      38.838 -23.770 -16.027  0.00  0.00    +0.174 HD
ENDROOT
BRANCH   7  20
ATOM     20  C   UNL     1      33.456 -23.091 -19.578  0.00  0.00    +0.243 C 
BRANCH  20  22
ATOM     21  F   UNL     1      37.315 -19.042 -20.396  0.00  0.00    -0.204 F 
ATOM     22  C   UNL     1      34.496 -21.999 -19.798  0.00  0.00    +0.021 C 
ATOM     23  C   UNL     1      34.239 -20.962 -20.695  0.00  0.00    +0.001 C 
ATOM     24  C   UNL     1      35.705 -22.037 -19.104  0.00  0.00    +0.001 C 
ATOM     25  C   UNL     1      35.191 -19.962 -20.897  0.00  0.00    +0.029 C 
ATOM     26  C   UNL     1      36.658 -21.038 -19.306  0.00  0.00    +0.029 C 
ATOM     27  C   UNL     1      36.401 -20.000 -20.203  0.00  0.00    +0.140 C 
ENDBRANCH  20  22
BRANCH  20  28
ATOM     28  O   UNL     1      33.910 -24.310 -20.193  0.00  0.00    -0.366 OA
ATOM     29  H   UNL     1      34.316 -24.880 -19.521  0.00  0.00    +0.212 HD
ENDBRANCH  20  28
ENDBRANCH   7  20
TORSDOF 3
ENDMDL
MODEL 2
REMARK VINA RESULT:     -11.3      1.732      5.378
REMARK  Name = 46892373
REMARK  3 active torsions:
REMARK  status: ('A' for Active; 'I' for Inactive)
REMARK    1  A    between atoms: C_7  and  C_20
REMARK    2  A    between atoms: C_20  and  C_22
REMARK    3  A    between atoms: C_20  and  O_28
REMARK                            x       y       z     vdW  Elec       q    Type
REMARK                         _______ _______ _______ _____ _____    ______ ____
ROOT
ATOM      1  N   UNL     1      31.971 -22.883 -17.566  0.00  0.00    -0.326 NA
ATOM      2  N   UNL     1      30.593 -22.685 -15.669  0.00  0.00    -0.271 N 
ATOM      3  N   UNL     1      34.220 -23.728 -17.369  0.00  0.00    -0.345 NA
ATOM      4  N   UNL     1      27.590 -22.892 -17.398  0.00  0.00    -0.239 N 
ATOM      5  N   UNL     1      28.921 -23.069 -17.406  0.00  0.00    -0.166 NA
ATOM      6  C   UNL     1      32.847 -23.540 -15.411  0.00  0.00    +0.072 C 
ATOM      7  C   UNL     1      33.168 -23.239 -18.058  0.00  0.00    +0.146 C 
ATOM      8  C   UNL     1      31.841 -23.046 -16.236  0.00  0.00    +0.199 C 
ATOM      9  C   UNL     1      34.055 -23.877 -16.043  0.00  0.00    +0.129 C 
ATOM     10  C   UNL     1      32.687 -23.701 -14.024  0.00  0.00    +0.006 C 
ATOM     11  C   UNL     1      35.087 -24.376 -15.250  0.00  0.00    +0.086 C 
ATOM     12  C   UNL     1      29.284 -22.688 -16.178  0.00  0.00    +0.152 C 
ATOM     13  C   UNL     1      33.734 -24.201 -13.256  0.00  0.00    -0.004 C 
ATOM     14  C   UNL     1      34.934 -24.539 -13.870  0.00  0.00    -0.019 C 
ATOM     15  C   UNL     1      28.193 -22.272 -15.393  0.00  0.00    +0.048 C 
ATOM     16  C   UNL     1      27.103 -22.416 -16.217  0.00  0.00    +0.046 C 
ATOM     17  C   UNL     1      25.670 -22.154 -16.007  0.00  0.00    +0.049 C 
ATOM     18  H   UNL     1      30.656 -22.369 -14.739  0.00  0.00    +0.156 HD
ATOM     19  H   UNL     1      27.017 -23.088 -18.176  0.00  0.00    +0.174 HD
ENDROOT
BRANCH   7  20
ATOM     20  C   UNL     1      33.358 -23.075 -19.529  0.00  0.00    +0.243 C 
BRANCH  20  22
ATOM     21  F   UNL     1      36.829 -18.836 -20.921  0.00  0.00    -0.204 F 
ATOM     22  C   UNL     1      34.294 -21.932 -19.904  0.00  0.00    +0.021 C 
ATOM     23  C   UNL     1      33.807 -20.839 -20.621  0.00  0.00    +0.001 C 
ATOM     24  C   UNL     1      35.637 -21.979 -19.532  0.00  0.00    +0.001 C 
ATOM     25  C   UNL     1      34.663 -19.793 -20.964  0.00  0.00    +0.029 C 
ATOM     26  C   UNL     1      36.494 -20.933 -19.876  0.00  0.00    +0.029 C 
ATOM     27  C   UNL     1      36.006 -19.840 -20.592  0.00  0.00    +0.140 C 
ENDBRANCH  20  22
BRANCH  20  28
ATOM     28  O   UNL     1      33.814 -24.287 -20.157  0.00  0.00    -0.366 OA
ATOM     29  H   UNL     1      33.351 -24.409 -21.001  0.00  0.00    +0.212 HD
ENDBRANCH  20  28
ENDBRANCH   7  20
TORSDOF 3
ENDMDL
MODEL 3
REMARK VINA RESULT:     -11.1      3.065      6.733
REMARK  Name = 46892373
REMARK  3 active torsions:
REMARK  status: ('A' for Active; 'I' for Inactive)
REMARK    1  A    between atoms: C_7  and  C_20
REMARK    2  A    between atoms: C_20  and  C_22
REMARK    3  A    between atoms: C_20  and  O_28
REMARK                            x       y       z     vdW  Elec       q    Type
REMARK                         _______ _______ _______ _____ _____    ______ ____
ROOT
ATOM      1  N   UNL     1      35.254 -23.253 -16.415  0.00  0.00    -0.326 NA
ATOM      2  N   UNL     1      33.046 -23.427 -17.210  0.00  0.00    -0.271 N 
ATOM      3  N   UNL     1      36.913 -22.019 -17.653  0.00  0.00    -0.345 NA
ATOM      4  N   UNL     1      31.600 -23.969 -14.101  0.00  0.00    -0.239 N 
ATOM      5  N   UNL     1      32.674 -23.571 -14.802  0.00  0.00    -0.166 NA
ATOM      6  C   UNL     1      34.673 -22.172 -18.498  0.00  0.00    +0.072 C 
ATOM      7  C   UNL     1      36.490 -22.768 -16.615  0.00  0.00    +0.146 C 
ATOM      8  C   UNL     1      34.366 -22.937 -17.376  0.00  0.00    +0.199 C 
ATOM      9  C   UNL     1      36.000 -21.722 -18.595  0.00  0.00    +0.129 C 
ATOM     10  C   UNL     1      33.729 -21.856 -19.489  0.00  0.00    +0.006 C 
ATOM     11  C   UNL     1      36.347 -20.953 -19.704  0.00  0.00    +0.086 C 
ATOM     12  C   UNL     1      32.279 -23.715 -16.070  0.00  0.00    +0.152 C 
ATOM     13  C   UNL     1      34.101 -21.087 -20.586  0.00  0.00    -0.004 C 
ATOM     14  C   UNL     1      35.412 -20.634 -20.693  0.00  0.00    -0.019 C 
ATOM     15  C   UNL     1      30.963 -24.202 -16.178  0.00  0.00    +0.048 C 
ATOM     16  C   UNL     1      30.548 -24.358 -14.877  0.00  0.00    +0.046 C 
ATOM     17  C   UNL     1      29.279 -24.830 -14.300  0.00  0.00    +0.049 C 
ATOM     18  H   UNL     1      32.577 -23.599 -18.058  0.00  0.00    +0.156 HD
ATOM     19  H   UNL     1      31.574 -23.980 -13.116  0.00  0.00    +0.174 HD
ENDROOT
BRANCH   7  20
ATOM     20  C   UNL     1      37.508 -23.093 -15.574  0.00  0.00    +0.243 C 
BRANCH  20  22
ATOM     21  F   UNL     1      35.353 -25.550 -10.961  0.00  0.00    -0.204 F 
ATOM     22  C   UNL     1      36.927 -23.755 -14.330  0.00  0.00    +0.021 C 
ATOM     23  C   UNL     1      36.336 -22.975 -13.336  0.00  0.00    +0.001 C 
ATOM     24  C   UNL     1      36.986 -25.141 -14.185  0.00  0.00    +0.001 C 
ATOM     25  C   UNL     1      35.804 -23.581 -12.198  0.00  0.00    +0.029 C 
ATOM     26  C   UNL     1      36.455 -25.748 -13.047  0.00  0.00    +0.029 C 
ATOM     27  C   UNL     1      35.863 -24.967 -12.053  0.00  0.00    +0.140 C 
ENDBRANCH  20  22
BRANCH  20  28
ATOM     28  O   UNL     1      38.575 -23.909 -16.091  0.00  0.00    -0.366 OA
ATOM     29  H   UNL     1      38.532 -24.791 -15.690  0.00  0.00    +0.212 HD
ENDBRANCH  20  28
ENDBRANCH   7  20
TORSDOF 3
ENDMDL
MODEL 4
REMARK VINA RESULT:     -10.9      2.969      7.155
REMARK  Name = 46892373
REMARK  3 active torsions:
REMARK  status: ('A' for Active; 'I' for Inactive)
REMARK    1  A    between atoms: C_7  and  C_20
REMARK    2  A    between atoms: C_20  and  C_22
REMARK    3  A    between atoms: C_20  and  O_28
REMARK                            x       y       z     vdW  Elec       q    Type
REMARK                         _______ _______ _______ _____ _____    ______ ____
ROOT
ATOM      1  N   UNL     1      32.662 -23.756 -15.855  0.00  0.00    -0.326 NA
ATOM      2  N   UNL     1      31.020 -22.980 -17.350  0.00  0.00    -0.271 N 
ATOM      3  N   UNL     1      35.005 -23.457 -16.338  0.00  0.00    -0.345 NA
ATOM      4  N   UNL     1      28.514 -22.646 -14.969  0.00  0.00    -0.239 N 
ATOM      5  N   UNL     1      29.823 -22.805 -15.229  0.00  0.00    -0.166 NA
ATOM      6  C   UNL     1      33.361 -22.652 -17.888  0.00  0.00    +0.072 C 
ATOM      7  C   UNL     1      33.971 -23.880 -15.582  0.00  0.00    +0.146 C 
ATOM      8  C   UNL     1      32.389 -23.135 -17.017  0.00  0.00    +0.199 C 
ATOM      9  C   UNL     1      34.695 -22.842 -17.493  0.00  0.00    +0.129 C 
ATOM     10  C   UNL     1      33.050 -22.007 -19.098  0.00  0.00    +0.006 C 
ATOM     11  C   UNL     1      35.697 -22.371 -18.339  0.00  0.00    +0.086 C 
ATOM     12  C   UNL     1      29.865 -22.832 -16.564  0.00  0.00    +0.152 C 
ATOM     13  C   UNL     1      34.070 -21.547 -19.924  0.00  0.00    -0.004 C 
ATOM     14  C   UNL     1      35.395 -21.729 -19.543  0.00  0.00    -0.019 C 
ATOM     15  C   UNL     1      28.594 -22.692 -17.151  0.00  0.00    +0.048 C 
ATOM     16  C   UNL     1      27.735 -22.572 -16.086  0.00  0.00    +0.046 C 
ATOM     17  C   UNL     1      26.275 -22.400 -16.014  0.00  0.00    +0.049 C 
ATOM     18  H   UNL     1      30.844 -22.975 -18.318  0.00  0.00    +0.156 HD
ATOM     19  H   UNL     1      28.151 -22.588 -14.055  0.00  0.00    +0.174 HD
ENDROOT
BRANCH   7  20
ATOM     20  C   UNL     1      34.322 -24.562 -14.302  0.00  0.00    +0.243 C 
BRANCH  20  22
ATOM     21  F   UNL     1      39.777 -25.993 -13.902  0.00  0.00    -0.204 F 
ATOM     22  C   UNL     1      35.793 -24.948 -14.195  0.00  0.00    +0.021 C 
ATOM     23  C   UNL     1      36.293 -26.008 -14.951  0.00  0.00    +0.001 C 
ATOM     24  C   UNL     1      36.639 -24.242 -13.339  0.00  0.00    +0.001 C 
ATOM     25  C   UNL     1      37.639 -26.361 -14.853  0.00  0.00    +0.029 C 
ATOM     26  C   UNL     1      37.985 -24.595 -13.240  0.00  0.00    +0.029 C 
ATOM     27  C   UNL     1      38.485 -25.655 -13.997  0.00  0.00    +0.140 C 
ENDBRANCH  20  22
BRANCH  20  28
ATOM     28  O   UNL     1      33.950 -23.784 -13.150  0.00  0.00    -0.366 OA
ATOM     29  H   UNL     1      33.429 -24.332 -12.543  0.00  0.00    +0.212 HD
ENDBRANCH  20  28
ENDBRANCH   7  20
TORSDOF 3
ENDMDL
MODEL 5
REMARK VINA RESULT:     -10.6      2.988      5.676
REMARK  Name = 46892373
REMARK  3 active torsions:
REMARK  status: ('A' for Active; 'I' for Inactive)
REMARK    1  A    between atoms: C_7  and  C_20
REMARK    2  A    between atoms: C_20  and  C_22
REMARK    3  A    between atoms: C_20  and  O_28
REMARK                            x       y       z     vdW  Elec       q    Type
REMARK                         _______ _______ _______ _____ _____    ______ ____
ROOT
ATOM      1  N   UNL     1      34.359 -23.936 -15.490  0.00  0.00    -0.326 NA
ATOM      2  N   UNL     1      36.612 -23.599 -16.079  0.00  0.00    -0.271 N 
ATOM      3  N   UNL     1      32.584 -23.161 -16.924  0.00  0.00    -0.345 NA
ATOM      4  N   UNL     1      37.855 -26.265 -14.234  0.00  0.00    -0.239 N 
ATOM      5  N   UNL     1      36.787 -25.654 -14.772  0.00  0.00    -0.166 NA
ATOM      6  C   UNL     1      34.868 -22.798 -17.561  0.00  0.00    +0.072 C 
ATOM      7  C   UNL     1      33.069 -23.764 -15.820  0.00  0.00    +0.146 C 
ATOM      8  C   UNL     1      35.236 -23.441 -16.383  0.00  0.00    +0.199 C 
ATOM      9  C   UNL     1      33.488 -22.678 -17.795  0.00  0.00    +0.129 C 
ATOM     10  C   UNL     1      35.803 -22.289 -18.477  0.00  0.00    +0.006 C 
ATOM     11  C   UNL     1      33.080 -22.040 -18.964  0.00  0.00    +0.086 C 
ATOM     12  C   UNL     1      37.318 -24.579 -15.362  0.00  0.00    +0.152 C 
ATOM     13  C   UNL     1      35.369 -21.656 -19.637  0.00  0.00    -0.004 C 
ATOM     14  C   UNL     1      34.005 -21.532 -19.880  0.00  0.00    -0.019 C 
ATOM     15  C   UNL     1      38.713 -24.504 -15.200  0.00  0.00    +0.048 C 
ATOM     16  C   UNL     1      39.033 -25.617 -14.461  0.00  0.00    +0.046 C 
ATOM     17  C   UNL     1      40.318 -26.123 -13.953  0.00  0.00    +0.049 C 
ATOM     18  H   UNL     1      37.183 -22.883 -16.439  0.00  0.00    +0.156 HD
ATOM     19  H   UNL     1      37.793 -27.104 -13.721  0.00  0.00    +0.174 HD
ENDROOT
BRANCH   7  20
ATOM     20  C   UNL     1      32.060 -24.297 -14.859  0.00  0.00    +0.243 C 
BRANCH  20  22
ATOM     21  F   UNL     1      26.716 -23.133 -16.291  0.00  0.00    -0.204 F 
ATOM     22  C   UNL     1      30.619 -23.984 -15.245  0.00  0.00    +0.021 C 
ATOM     23  C   UNL     1      29.839 -24.953 -15.876  0.00  0.00    +0.001 C 
ATOM     24  C   UNL     1      30.080 -22.728 -14.968  0.00  0.00    +0.001 C 
ATOM     25  C   UNL     1      28.520 -24.666 -16.229  0.00  0.00    +0.029 C 
ATOM     26  C   UNL     1      28.761 -22.440 -15.321  0.00  0.00    +0.029 C 
ATOM     27  C   UNL     1      27.982 -23.410 -15.952  0.00  0.00    +0.140 C 
ENDBRANCH  20  22
BRANCH  20  28
ATOM     28  O   UNL     1      32.199 -25.715 -14.654  0.00  0.00    -0.366 OA
ATOM     29  H   UNL     1      32.665 -26.107 -15.408  0.00  0.00    +0.212 HD
ENDBRANCH  20  28
ENDBRANCH   7  20
TORSDOF 3
ENDMDL
MODEL 6
REMARK VINA RESULT:     -10.3      2.651      5.407
REMARK  Name = 46892373
REMARK  3 active torsions:
REMARK  status: ('A' for Active; 'I' for Inactive)
REMARK    1  A    between atoms: C_7  and  C_20
REMARK    2  A    between atoms: C_20  and  C_22
REMARK    3  A    between atoms: C_20  and  O_28
REMARK                            x       y       z     vdW  Elec       q    Type
REMARK                         _______ _______ _______ _____ _____    ______ ____
ROOT
ATOM      1  N   UNL     1      33.168 -23.610 -15.306  0.00  0.00    -0.326 NA
ATOM      2  N   UNL     1      32.176 -22.752 -17.260  0.00  0.00    -0.271 N 
ATOM      3  N   UNL     1      31.910 -25.009 -13.800  0.00  0.00    -0.345 NA
ATOM      4  N   UNL     1      35.146 -22.371 -19.018  0.00  0.00    -0.239 N 
ATOM      5  N   UNL     1      34.507 -22.911 -17.967  0.00  0.00    -0.166 NA
ATOM      6  C   UNL     1      30.862 -24.154 -15.782  0.00  0.00    +0.072 C 
ATOM      7  C   UNL     1      33.020 -24.355 -14.200  0.00  0.00    +0.146 C 
ATOM      8  C   UNL     1      32.069 -23.529 -16.079  0.00  0.00    +0.199 C 
ATOM      9  C   UNL     1      30.830 -24.906 -14.595  0.00  0.00    +0.129 C 
ATOM     10  C   UNL     1      29.727 -24.054 -16.604  0.00  0.00    +0.006 C 
ATOM     11  C   UNL     1      29.639 -25.548 -14.264  0.00  0.00    +0.086 C 
ATOM     12  C   UNL     1      33.256 -22.467 -18.111  0.00  0.00    +0.152 C 
ATOM     13  C   UNL     1      28.550 -24.705 -16.249  0.00  0.00    -0.004 C 
ATOM     14  C   UNL     1      28.506 -25.452 -15.077  0.00  0.00    -0.019 C 
ATOM     15  C   UNL     1      33.096 -21.650 -19.246  0.00  0.00    +0.048 C 
ATOM     16  C   UNL     1      34.346 -21.606 -19.815  0.00  0.00    +0.046 C 
ATOM     17  C   UNL     1      34.856 -20.926 -21.017  0.00  0.00    +0.049 C 
ATOM     18  H   UNL     1      31.331 -22.331 -17.536  0.00  0.00    +0.156 HD
ATOM     19  H   UNL     1      36.104 -22.513 -19.196  0.00  0.00    +0.174 HD
ENDROOT
BRANCH   7  20
ATOM     20  C   UNL     1      34.214 -24.474 -13.312  0.00  0.00    +0.243 C 
BRANCH  20  22
ATOM     21  F   UNL     1      39.140 -23.991 -16.043  0.00  0.00    -0.204 F 
ATOM     22  C   UNL     1      35.542 -24.343 -14.048  0.00  0.00    +0.021 C 
ATOM     23  C   UNL     1      35.950 -23.102 -14.535  0.00  0.00    +0.001 C 
ATOM     24  C   UNL     1      36.349 -25.466 -14.236  0.00  0.00    +0.001 C 
ATOM     25  C   UNL     1      37.166 -22.982 -15.208  0.00  0.00    +0.029 C 
ATOM     26  C   UNL     1      37.565 -25.347 -14.910  0.00  0.00    +0.029 C 
ATOM     27  C   UNL     1      37.973 -24.104 -15.396  0.00  0.00    +0.140 C 
ENDBRANCH  20  22
BRANCH  20  28
ATOM     28  O   UNL     1      34.179 -23.533 -12.224  0.00  0.00    -0.366 OA
ATOM     29  H   UNL     1      35.018 -23.567 -11.739  0.00  0.00    +0.212 HD
ENDBRANCH  20  28
ENDBRANCH   7  20
TORSDOF 3
ENDMDL
MODEL 7
REMARK VINA RESULT:     -10.3      2.907      5.820
REMARK  Name = 46892373
REMARK  3 active torsions:
REMARK  status: ('A' for Active; 'I' for Inactive)
REMARK    1  A    between atoms: C_7  and  C_20
REMARK    2  A    between atoms: C_20  and  C_22
REMARK    3  A    between atoms: C_20  and  O_28
REMARK                            x       y       z     vdW  Elec       q    Type
REMARK                         _______ _______ _______ _____ _____    ______ ____
ROOT
ATOM      1  N   UNL     1      33.338 -23.159 -16.869  0.00  0.00    -0.326 NA
ATOM      2  N   UNL     1      35.632 -23.119 -16.345  0.00  0.00    -0.271 N 
ATOM      3  N   UNL     1      32.525 -22.163 -18.908  0.00  0.00    -0.345 NA
ATOM      4  N   UNL     1      35.568 -25.920 -14.295  0.00  0.00    -0.239 N 
ATOM      5  N   UNL     1      34.946 -25.176 -15.225  0.00  0.00    -0.166 NA
ATOM      6  C   UNL     1      34.872 -22.101 -18.410  0.00  0.00    +0.072 C 
ATOM      7  C   UNL     1      32.375 -22.821 -17.741  0.00  0.00    +0.146 C 
ATOM      8  C   UNL     1      34.579 -22.784 -17.233  0.00  0.00    +0.199 C 
ATOM      9  C   UNL     1      33.778 -21.803 -19.240  0.00  0.00    +0.129 C 
ATOM     10  C   UNL     1      36.175 -21.719 -18.768  0.00  0.00    +0.006 C 
ATOM     11  C   UNL     1      34.031 -21.119 -20.428  0.00  0.00    +0.086 C 
ATOM     12  C   UNL     1      35.809 -24.181 -15.444  0.00  0.00    +0.152 C 
ATOM     13  C   UNL     1      36.400 -21.037 -19.959  0.00  0.00    -0.004 C 
ATOM     14  C   UNL     1      35.326 -20.738 -20.790  0.00  0.00    -0.019 C 
ATOM     15  C   UNL     1      36.973 -24.288 -14.659  0.00  0.00    +0.048 C 
ATOM     16  C   UNL     1      36.785 -25.431 -13.921  0.00  0.00    +0.046 C 
ATOM     17  C   UNL     1      37.623 -26.100 -12.914  0.00  0.00    +0.049 C 
ATOM     18  H   UNL     1      36.384 -22.484 -16.363  0.00  0.00    +0.156 HD
ATOM     19  H   UNL     1      35.180 -26.743 -13.917  0.00  0.00    +0.174 HD
ENDROOT
BRANCH   7  20
ATOM     20  C   UNL     1      30.982 -23.216 -17.379  0.00  0.00    +0.243 C 
BRANCH  20  22
ATOM     21  F   UNL     1      30.496 -25.333 -12.159  0.00  0.00    -0.204 F 
ATOM     22  C   UNL     1      30.851 -23.788 -15.972  0.00  0.00    +0.021 C 
ATOM     23  C   UNL     1      30.268 -25.039 -15.778  0.00  0.00    +0.001 C 
ATOM     24  C   UNL     1      31.314 -23.058 -14.877  0.00  0.00    +0.001 C 
ATOM     25  C   UNL     1      30.148 -25.562 -14.490  0.00  0.00    +0.029 C 
ATOM     26  C   UNL     1      31.194 -23.579 -13.588  0.00  0.00    +0.029 C 
ATOM     27  C   UNL     1      30.611 -24.832 -13.396  0.00  0.00    +0.140 C 
ENDBRANCH  20  22
BRANCH  20  28
ATOM     28  O   UNL     1      30.049 -22.133 -17.540  0.00  0.00    -0.366 OA
ATOM     29  H   UNL     1      30.364 -21.358 -17.048  0.00  0.00    +0.212 HD
ENDBRANCH  20  28
ENDBRANCH   7  20
TORSDOF 3
ENDMDL
MODEL 8
REMARK VINA RESULT:     -10.2      1.985      5.329
REMARK  Name = 46892373
REMARK  3 active torsions:
REMARK  status: ('A' for Active; 'I' for Inactive)
REMARK    1  A    between atoms: C_7  and  C_20
REMARK    2  A    between atoms: C_20  and  C_22
REMARK    3  A    between atoms: C_20  and  O_28
REMARK                            x       y       z     vdW  Elec       q    Type
REMARK                         _______ _______ _______ _____ _____    ______ ____
ROOT
ATOM      1  N   UNL     1      35.338 -22.786 -15.960  0.00  0.00    -0.326 NA
ATOM      2  N   UNL     1      33.712 -23.535 -14.433  0.00  0.00    -0.271 N 
ATOM      3  N   UNL     1      37.635 -23.483 -15.751  0.00  0.00    -0.345 NA
ATOM      4  N   UNL     1      31.013 -23.152 -16.583  0.00  0.00    -0.239 N 
ATOM      5  N   UNL     1      32.346 -23.220 -16.431  0.00  0.00    -0.166 NA
ATOM      6  C   UNL     1      36.008 -24.269 -14.172  0.00  0.00    +0.072 C 
ATOM      7  C   UNL     1      36.625 -22.810 -16.338  0.00  0.00    +0.146 C 
ATOM      8  C   UNL     1      35.060 -23.528 -14.872  0.00  0.00    +0.199 C 
ATOM      9  C   UNL     1      37.323 -24.213 -14.665  0.00  0.00    +0.129 C 
ATOM     10  C   UNL     1      35.694 -25.035 -13.038  0.00  0.00    +0.006 C 
ATOM     11  C   UNL     1      38.301 -24.943 -13.993  0.00  0.00    +0.086 C 
ATOM     12  C   UNL     1      32.493 -23.399 -15.116  0.00  0.00    +0.152 C 
ATOM     13  C   UNL     1      36.690 -25.754 -12.385  0.00  0.00    -0.004 C 
ATOM     14  C   UNL     1      37.995 -25.707 -12.863  0.00  0.00    -0.019 C 
ATOM     15  C   UNL     1      31.263 -23.444 -14.433  0.00  0.00    +0.048 C 
ATOM     16  C   UNL     1      30.319 -23.280 -15.417  0.00  0.00    +0.046 C 
ATOM     17  C   UNL     1      28.848 -23.231 -15.370  0.00  0.00    +0.049 C 
ATOM     18  H   UNL     1      33.611 -23.659 -13.462  0.00  0.00    +0.156 HD
ATOM     19  H   UNL     1      30.578 -23.021 -17.457  0.00  0.00    +0.174 HD
ENDROOT
BRANCH   7  20
ATOM     20  C   UNL     1      36.981 -22.001 -17.541  0.00  0.00    +0.243 C 
BRANCH  20  22
ATOM     21  F   UNL     1      32.645 -21.135 -21.064  0.00  0.00    -0.204 F 
ATOM     22  C   UNL     1      35.812 -21.768 -18.492  0.00  0.00    +0.021 C 
ATOM     23  C   UNL     1      35.960 -20.910 -19.582  0.00  0.00    +0.001 C 
ATOM     24  C   UNL     1      34.594 -22.410 -18.270  0.00  0.00    +0.001 C 
ATOM     25  C   UNL     1      34.891 -20.697 -20.452  0.00  0.00    +0.029 C 
ATOM     26  C   UNL     1      33.523 -22.197 -19.139  0.00  0.00    +0.029 C 
ATOM     27  C   UNL     1      33.672 -21.340 -20.230  0.00  0.00    +0.140 C 
ENDBRANCH  20  22
BRANCH  20  28
ATOM     28  O   UNL     1      37.569 -20.735 -17.192  0.00  0.00    -0.366 OA
ATOM     29  H   UNL     1      37.133 -20.027 -17.691  0.00  0.00    +0.212 HD
ENDBRANCH  20  28
ENDBRANCH   7  20
TORSDOF 3
ENDMDL
MODEL 9
REMARK VINA RESULT:      -9.7      3.384      7.257
REMARK  Name = 46892373
REMARK  3 active torsions:
REMARK  status: ('A' for Active; 'I' for Inactive)
REMARK    1  A    between atoms: C_7  and  C_20
REMARK    2  A    between atoms: C_20  and  C_22
REMARK    3  A    between atoms: C_20  and  O_28
REMARK                            x       y       z     vdW  Elec       q    Type
REMARK                         _______ _______ _______ _____ _____    ______ ____
ROOT
ATOM      1  N   UNL     1      33.455 -22.492 -18.476  0.00  0.00    -0.326 NA
ATOM      2  N   UNL     1      35.285 -21.613 -19.666  0.00  0.00    -0.271 N 
ATOM      3  N   UNL     1      33.743 -23.374 -16.252  0.00  0.00    -0.345 NA
ATOM      4  N   UNL     1      33.404 -19.525 -21.704  0.00  0.00    -0.239 N 
ATOM      5  N   UNL     1      33.458 -20.293 -20.603  0.00  0.00    -0.166 NA
ATOM      6  C   UNL     1      35.635 -22.487 -17.431  0.00  0.00    +0.072 C 
ATOM      7  C   UNL     1      33.015 -23.061 -17.343  0.00  0.00    +0.146 C 
ATOM      8  C   UNL     1      34.772 -22.216 -18.489  0.00  0.00    +0.199 C 
ATOM      9  C   UNL     1      35.056 -23.085 -16.299  0.00  0.00    +0.129 C 
ATOM     10  C   UNL     1      37.008 -22.190 -17.469  0.00  0.00    +0.006 C 
ATOM     11  C   UNL     1      35.887 -23.371 -15.219  0.00  0.00    +0.086 C 
ATOM     12  C   UNL     1      34.712 -20.755 -20.618  0.00  0.00    +0.152 C 
ATOM     13  C   UNL     1      37.815 -22.487 -16.376  0.00  0.00    -0.004 C 
ATOM     14  C   UNL     1      37.254 -23.078 -15.250  0.00  0.00    -0.019 C 
ATOM     15  C   UNL     1      35.451 -20.287 -21.720  0.00  0.00    +0.048 C 
ATOM     16  C   UNL     1      34.571 -19.488 -22.409  0.00  0.00    +0.046 C 
ATOM     17  C   UNL     1      34.715 -18.706 -23.647  0.00  0.00    +0.049 C 
ATOM     18  H   UNL     1      36.224 -21.841 -19.852  0.00  0.00    +0.156 HD
ATOM     19  H   UNL     1      32.594 -19.035 -21.978  0.00  0.00    +0.174 HD
ENDROOT
BRANCH   7  20
ATOM     20  C   UNL     1      31.559 -23.385 -17.282  0.00  0.00    +0.243 C 
BRANCH  20  22
ATOM     21  F   UNL     1      29.794 -24.999 -12.160  0.00  0.00    -0.204 F 
ATOM     22  C   UNL     1      31.084 -23.820 -15.901  0.00  0.00    +0.021 C 
ATOM     23  C   UNL     1      30.381 -25.016 -15.751  0.00  0.00    +0.001 C 
ATOM     24  C   UNL     1      31.350 -23.023 -14.788  0.00  0.00    +0.001 C 
ATOM     25  C   UNL     1      29.946 -25.415 -14.487  0.00  0.00    +0.029 C 
ATOM     26  C   UNL     1      30.914 -23.420 -13.524  0.00  0.00    +0.029 C 
ATOM     27  C   UNL     1      30.212 -24.617 -13.374  0.00  0.00    +0.140 C 
ENDBRANCH  20  22
BRANCH  20  28
ATOM     28  O   UNL     1      30.740 -22.296 -17.745  0.00  0.00    -0.366 OA
ATOM     29  H   UNL     1      30.867 -21.526 -17.169  0.00  0.00    +0.212 HD
ENDBRANCH  20  28
ENDBRANCH   7  20
TORSDOF 3
ENDMDL
