MODEL 1
REMARK VINA RESULT:     -12.2      0.000      0.000
REMARK  Name = 447655
REMARK  6 active torsions:
REMARK  status: ('A' for Active; 'I' for Inactive)
REMARK    1  A    between atoms: N_4  and  C_14
REMARK    2  A    between atoms: C_6  and  O_26
REMARK    3  A    between atoms: C_15  and  S_20
REMARK    4  A    between atoms: S_20  and  N_23
REMARK    5  A    between atoms: O_26  and  C_27
REMARK    6  A    between atoms: C_27  and  C_28
REMARK                            x       y       z     vdW  Elec       q    Type
REMARK                         _______ _______ _______ _____ _____    ______ ____
ROOT
ATOM      1  N   UNL     1      32.157 -23.538 -16.053  0.00  0.00    -0.293 NA
ATOM      2  N   UNL     1      28.865 -22.590 -17.391  0.00  0.00    -0.266 NA
ATOM      3  N   UNL     1      30.293 -24.033 -14.559  0.00  0.00    -0.316 NA
ATOM      4  N   UNL     1      32.498 -24.532 -13.960  0.00  0.00    -0.238 N 
ATOM      5  N   UNL     1      28.122 -23.403 -15.454  0.00  0.00    -0.296 N 
ATOM      6  C   UNL     1      31.326 -23.026 -16.988  0.00  0.00    +0.288 C 
ATOM      7  C   UNL     1      29.974 -23.012 -16.717  0.00  0.00    +0.215 C 
ATOM      8  C   UNL     1      29.487 -23.513 -15.517  0.00  0.00    +0.196 C 
ATOM      9  C   UNL     1      31.595 -24.004 -14.912  0.00  0.00    +0.207 C 
ATOM     10  C   UNL     1      27.779 -22.844 -16.595  0.00  0.00    +0.164 C 
ATOM     11  H   UNL     1      28.848 -22.179 -18.285  0.00  0.00    +0.126 HD
ATOM     12  H   UNL     1      32.063 -24.864 -13.142  0.00  0.00    +0.166 HD
ATOM     13  H   UNL     1      27.528 -23.679 -14.718  0.00  0.00    +0.150 HD
ENDROOT
BRANCH   4  14
ATOM     14  C   UNL     1      33.897 -24.677 -13.955  0.00  0.00    +0.060 C 
ATOM     15  C   UNL     1      36.033 -24.375 -12.859  0.00  0.00    +0.123 C 
ATOM     16  C   UNL     1      34.645 -24.231 -12.863  0.00  0.00    +0.035 C 
ATOM     17  C   UNL     1      34.544 -25.270 -15.043  0.00  0.00    +0.015 C 
ATOM     18  C   UNL     1      36.676 -24.968 -13.947  0.00  0.00    +0.020 C 
ATOM     19  C   UNL     1      35.931 -25.414 -15.038  0.00  0.00    +0.003 C 
BRANCH  15  20
ATOM     20  S   UNL     1      36.965 -23.817 -11.493  0.00  0.00    +0.057 S 
ATOM     21  O   UNL     1      38.179 -24.616 -11.409  0.00  0.00    -0.153 OA
ATOM     22  O   UNL     1      37.058 -22.365 -11.560  0.00  0.00    -0.153 OA
BRANCH  20  23
ATOM     23  N   UNL     1      35.934 -24.241 -10.198  0.00  0.00    -0.203 NA
ATOM     24  H   UNL     1      35.734 -23.413  -9.639  0.00  0.00    +0.144 HD
ATOM     25  H   UNL     1      36.391 -24.943  -9.616  0.00  0.00    +0.144 HD
ENDBRANCH  20  23
ENDBRANCH  15  20
ENDBRANCH   4  14
BRANCH   6  26
ATOM     26  O   UNL     1      31.863 -22.544 -18.157  0.00  0.00    -0.453 OA
BRANCH  26  27
ATOM     27  C   UNL     1      33.214 -22.867 -18.426  0.00  0.00    +0.208 C 
BRANCH  27  28
ATOM     28  C   UNL     1      33.651 -22.117 -19.683  0.00  0.00    +0.044 C 
ATOM     29  C   UNL     1      32.694 -20.955 -19.981  0.00  0.00    +0.004 C 
ATOM     30  C   UNL     1      35.093 -21.612 -19.539  0.00  0.00    +0.004 C 
ATOM     31  C   UNL     1      33.140 -20.156 -21.203  0.00  0.00    +0.000 C 
ATOM     32  C   UNL     1      35.535 -20.812 -20.762  0.00  0.00    +0.000 C 
ATOM     33  C   UNL     1      34.576 -19.664 -21.060  0.00  0.00    +0.000 C 
ENDBRANCH  27  28
ENDBRANCH  26  27
ENDBRANCH   6  26
TORSDOF 6
ENDMDL
MODEL 2
REMARK VINA RESULT:     -12.1      2.109      2.614
REMARK  Name = 447655
REMARK  6 active torsions:
REMARK  status: ('A' for Active; 'I' for Inactive)
REMARK    1  A    between atoms: N_4  and  C_14
REMARK    2  A    between atoms: C_6  and  O_26
REMARK    3  A    between atoms: C_15  and  S_20
REMARK    4  A    between atoms: S_20  and  N_23
REMARK    5  A    between atoms: O_26  and  C_27
REMARK    6  A    between atoms: C_27  and  C_28
REMARK                            x       y       z     vdW  Elec       q    Type
REMARK                         _______ _______ _______ _____ _____    ______ ____
ROOT
ATOM      1  N   UNL     1      33.149 -24.006 -14.960  0.00  0.00    -0.293 NA
ATOM      2  N   UNL     1      29.737 -24.189 -16.322  0.00  0.00    -0.266 NA
ATOM      3  N   UNL     1      31.568 -25.198 -13.535  0.00  0.00    -0.316 NA
ATOM      4  N   UNL     1      33.807 -24.932 -12.912  0.00  0.00    -0.238 N 
ATOM      5  N   UNL     1      29.317 -25.314 -14.445  0.00  0.00    -0.296 N 
ATOM      6  C   UNL     1      32.195 -23.763 -15.887  0.00  0.00    +0.288 C 
ATOM      7  C   UNL     1      30.922 -24.236 -15.645  0.00  0.00    +0.215 C 
ATOM      8  C   UNL     1      30.635 -24.939 -14.483  0.00  0.00    +0.196 C 
ATOM      9  C   UNL     1      32.781 -24.700 -13.856  0.00  0.00    +0.207 C 
ATOM     10  C   UNL     1      28.805 -24.848 -15.564  0.00  0.00    +0.164 C 
ATOM     11  H   UNL     1      29.581 -23.761 -17.195  0.00  0.00    +0.126 HD
ATOM     12  H   UNL     1      33.511 -25.438 -12.121  0.00  0.00    +0.166 HD
ATOM     13  H   UNL     1      28.854 -25.819 -13.737  0.00  0.00    +0.150 HD
ENDROOT
BRANCH   4  14
ATOM     14  C   UNL     1      35.169 -24.581 -12.883  0.00  0.00    +0.060 C 
ATOM     15  C   UNL     1      37.440 -24.925 -13.643  0.00  0.00    +0.123 C 
ATOM     16  C   UNL     1      36.089 -25.274 -13.672  0.00  0.00    +0.035 C 
ATOM     17  C   UNL     1      35.606 -23.536 -12.064  0.00  0.00    +0.015 C 
ATOM     18  C   UNL     1      37.873 -23.881 -12.825  0.00  0.00    +0.020 C 
ATOM     19  C   UNL     1      36.956 -23.187 -12.036  0.00  0.00    +0.003 C 
BRANCH  15  20
ATOM     20  S   UNL     1      38.588 -25.793 -14.631  0.00  0.00    +0.057 S 
ATOM     21  O   UNL     1      39.724 -26.161 -13.799  0.00  0.00    -0.153 OA
ATOM     22  O   UNL     1      37.873 -26.820 -15.376  0.00  0.00    -0.153 OA
BRANCH  20  23
ATOM     23  N   UNL     1      39.074 -24.567 -15.719  0.00  0.00    -0.203 NA
ATOM     24  H   UNL     1      39.707 -24.963 -16.414  0.00  0.00    +0.144 HD
ATOM     25  H   UNL     1      39.553 -23.828 -15.205  0.00  0.00    +0.144 HD
ENDBRANCH  20  23
ENDBRANCH  15  20
ENDBRANCH   4  14
BRANCH   6  26
ATOM     26  O   UNL     1      32.535 -23.062 -17.018  0.00  0.00    -0.453 OA
BRANCH  26  27
ATOM     27  C   UNL     1      33.765 -23.394 -17.635  0.00  0.00    +0.208 C 
BRANCH  27  28
ATOM     28  C   UNL     1      33.833 -22.687 -18.988  0.00  0.00    +0.044 C 
ATOM     29  C   UNL     1      32.694 -21.668 -19.126  0.00  0.00    +0.004 C 
ATOM     30  C   UNL     1      35.197 -22.010 -19.178  0.00  0.00    +0.004 C 
ATOM     31  C   UNL     1      32.772 -20.910 -20.449  0.00  0.00    +0.000 C 
ATOM     32  C   UNL     1      35.271 -21.252 -20.501  0.00  0.00    +0.000 C 
ATOM     33  C   UNL     1      34.132 -20.246 -20.638  0.00  0.00    +0.000 C 
ENDBRANCH  27  28
ENDBRANCH  26  27
ENDBRANCH   6  26
TORSDOF 6
ENDMDL
MODEL 3
REMARK VINA RESULT:     -12.0      2.332      2.754
REMARK  Name = 447655
REMARK  6 active torsions:
REMARK  status: ('A' for Active; 'I' for Inactive)
REMARK    1  A    between atoms: N_4  and  C_14
REMARK    2  A    between atoms: C_6  and  O_26
REMARK    3  A    between atoms: C_15  and  S_20
REMARK    4  A    between atoms: S_20  and  N_23
REMARK    5  A    between atoms: O_26  and  C_27
REMARK    6  A    between atoms: C_27  and  C_28
REMARK                            x       y       z     vdW  Elec       q    Type
REMARK                         _______ _______ _______ _____ _____    ______ ____
ROOT
ATOM      1  N   UNL     1      33.130 -23.081 -16.671  0.00  0.00    -0.293 NA
ATOM      2  N   UNL     1      29.497 -22.696 -17.092  0.00  0.00    -0.266 NA
ATOM      3  N   UNL     1      31.848 -23.412 -14.622  0.00  0.00    -0.316 NA
ATOM      4  N   UNL     1      34.180 -23.597 -14.642  0.00  0.00    -0.238 N 
ATOM      5  N   UNL     1      29.448 -23.157 -14.912  0.00  0.00    -0.296 N 
ATOM      6  C   UNL     1      32.008 -22.839 -17.384  0.00  0.00    +0.288 C 
ATOM      7  C   UNL     1      30.798 -22.881 -16.723  0.00  0.00    +0.215 C 
ATOM      8  C   UNL     1      30.742 -23.165 -15.365  0.00  0.00    +0.196 C 
ATOM      9  C   UNL     1      32.982 -23.350 -15.351  0.00  0.00    +0.207 C 
ATOM     10  C   UNL     1      28.724 -22.871 -15.974  0.00  0.00    +0.164 C 
ATOM     11  H   UNL     1      29.173 -22.478 -17.995  0.00  0.00    +0.126 HD
ATOM     12  H   UNL     1      34.042 -23.791 -13.686  0.00  0.00    +0.166 HD
ATOM     13  H   UNL     1      29.129 -23.325 -13.996  0.00  0.00    +0.150 HD
ENDROOT
BRANCH   4  14
ATOM     14  C   UNL     1      35.530 -23.623 -15.035  0.00  0.00    +0.060 C 
ATOM     15  C   UNL     1      37.669 -24.750 -15.117  0.00  0.00    +0.123 C 
ATOM     16  C   UNL     1      36.330 -24.725 -14.726  0.00  0.00    +0.035 C 
ATOM     17  C   UNL     1      36.075 -22.546 -15.740  0.00  0.00    +0.015 C 
ATOM     18  C   UNL     1      38.210 -23.673 -15.820  0.00  0.00    +0.020 C 
ATOM     19  C   UNL     1      37.413 -22.572 -16.132  0.00  0.00    +0.003 C 
BRANCH  15  20
ATOM     20  S   UNL     1      38.667 -26.128 -14.729  0.00  0.00    +0.057 S 
ATOM     21  O   UNL     1      39.193 -25.950 -13.383  0.00  0.00    -0.153 OA
ATOM     22  O   UNL     1      37.932 -27.340 -15.064  0.00  0.00    -0.153 OA
BRANCH  20  23
ATOM     23  N   UNL     1      39.943 -25.933 -15.849  0.00  0.00    -0.203 NA
ATOM     24  H   UNL     1      39.676 -26.347 -16.742  0.00  0.00    +0.144 HD
ATOM     25  H   UNL     1      40.779 -26.398 -15.496  0.00  0.00    +0.144 HD
ENDBRANCH  20  23
ENDBRANCH  15  20
ENDBRANCH   4  14
BRANCH   6  26
ATOM     26  O   UNL     1      32.123 -22.562 -18.725  0.00  0.00    -0.453 OA
BRANCH  26  27
ATOM     27  C   UNL     1      33.367 -22.849 -19.336  0.00  0.00    +0.208 C 
BRANCH  27  28
ATOM     28  C   UNL     1      34.077 -21.529 -19.630  0.00  0.00    +0.044 C 
ATOM     29  C   UNL     1      35.557 -21.770 -19.959  0.00  0.00    +0.004 C 
ATOM     30  C   UNL     1      33.379 -20.780 -20.773  0.00  0.00    +0.004 C 
ATOM     31  C   UNL     1      36.276 -20.470 -20.308  0.00  0.00    +0.000 C 
ATOM     32  C   UNL     1      34.103 -19.481 -21.120  0.00  0.00    +0.000 C 
ATOM     33  C   UNL     1      35.575 -19.724 -21.438  0.00  0.00    +0.000 C 
ENDBRANCH  27  28
ENDBRANCH  26  27
ENDBRANCH   6  26
TORSDOF 6
ENDMDL
MODEL 4
REMARK VINA RESULT:     -11.6      2.512      5.223
REMARK  Name = 447655
REMARK  6 active torsions:
REMARK  status: ('A' for Active; 'I' for Inactive)
REMARK    1  A    between atoms: N_4  and  C_14
REMARK    2  A    between atoms: C_6  and  O_26
REMARK    3  A    between atoms: C_15  and  S_20
REMARK    4  A    between atoms: S_20  and  N_23
REMARK    5  A    between atoms: O_26  and  C_27
REMARK    6  A    between atoms: C_27  and  C_28
REMARK                            x       y       z     vdW  Elec       q    Type
REMARK                         _______ _______ _______ _____ _____    ______ ____
ROOT
ATOM      1  N   UNL     1      35.185 -23.433 -16.596  0.00  0.00    -0.293 NA
ATOM      2  N   UNL     1      33.402 -21.875 -19.410  0.00  0.00    -0.266 NA
ATOM      3  N   UNL     1      36.598 -22.063 -18.037  0.00  0.00    -0.316 NA
ATOM      4  N   UNL     1      37.473 -23.171 -16.172  0.00  0.00    -0.238 N 
ATOM      5  N   UNL     1      35.410 -21.037 -19.893  0.00  0.00    -0.296 N 
ATOM      6  C   UNL     1      34.092 -23.169 -17.346  0.00  0.00    +0.288 C 
ATOM      7  C   UNL     1      34.243 -22.352 -18.447  0.00  0.00    +0.215 C 
ATOM      8  C   UNL     1      35.484 -21.818 -18.768  0.00  0.00    +0.196 C 
ATOM      9  C   UNL     1      36.355 -22.871 -16.983  0.00  0.00    +0.207 C 
ATOM     10  C   UNL     1      34.146 -21.093 -20.255  0.00  0.00    +0.164 C 
ATOM     11  H   UNL     1      32.438 -22.059 -19.485  0.00  0.00    +0.126 HD
ATOM     12  H   UNL     1      38.309 -22.749 -16.476  0.00  0.00    +0.166 HD
ATOM     13  H   UNL     1      36.140 -20.545 -20.334  0.00  0.00    +0.150 HD
ENDROOT
BRANCH   4  14
ATOM     14  C   UNL     1      37.624 -23.956 -15.014  0.00  0.00    +0.060 C 
ATOM     15  C   UNL     1      36.961 -24.509 -12.755  0.00  0.00    +0.123 C 
ATOM     16  C   UNL     1      36.811 -23.730 -13.902  0.00  0.00    +0.035 C 
ATOM     17  C   UNL     1      38.589 -24.967 -14.974  0.00  0.00    +0.015 C 
ATOM     18  C   UNL     1      37.925 -25.517 -12.717  0.00  0.00    +0.020 C 
ATOM     19  C   UNL     1      38.739 -25.745 -13.827  0.00  0.00    +0.003 C 
BRANCH  15  20
ATOM     20  S   UNL     1      35.942 -24.225 -11.366  0.00  0.00    +0.057 S 
ATOM     21  O   UNL     1      35.599 -25.512 -10.778  0.00  0.00    -0.153 OA
ATOM     22  O   UNL     1      36.560 -23.195 -10.543  0.00  0.00    -0.153 OA
BRANCH  20  23
ATOM     23  N   UNL     1      34.550 -23.570 -12.111  0.00  0.00    -0.203 NA
ATOM     24  H   UNL     1      34.820 -23.086 -12.967  0.00  0.00    +0.144 HD
ATOM     25  H   UNL     1      34.103 -22.911 -11.474  0.00  0.00    +0.144 HD
ENDBRANCH  20  23
ENDBRANCH  15  20
ENDBRANCH   4  14
BRANCH   6  26
ATOM     26  O   UNL     1      32.889 -23.725 -16.982  0.00  0.00    -0.453 OA
BRANCH  26  27
ATOM     27  C   UNL     1      32.555 -23.689 -15.607  0.00  0.00    +0.208 C 
BRANCH  27  28
ATOM     28  C   UNL     1      31.035 -23.603 -15.482  0.00  0.00    +0.044 C 
ATOM     29  C   UNL     1      30.426 -22.913 -16.710  0.00  0.00    +0.004 C 
ATOM     30  C   UNL     1      30.428 -24.999 -15.284  0.00  0.00    +0.004 C 
ATOM     31  C   UNL     1      28.903 -22.863 -16.633  0.00  0.00    +0.000 C 
ATOM     32  C   UNL     1      28.904 -24.945 -15.209  0.00  0.00    +0.000 C 
ATOM     33  C   UNL     1      28.304 -24.251 -16.427  0.00  0.00    +0.000 C 
ENDBRANCH  27  28
ENDBRANCH  26  27
ENDBRANCH   6  26
TORSDOF 6
ENDMDL
MODEL 5
REMARK VINA RESULT:     -10.9      3.949      7.906
REMARK  Name = 447655
REMARK  6 active torsions:
REMARK  status: ('A' for Active; 'I' for Inactive)
REMARK    1  A    between atoms: N_4  and  C_14
REMARK    2  A    between atoms: C_6  and  O_26
REMARK    3  A    between atoms: C_15  and  S_20
REMARK    4  A    between atoms: S_20  and  N_23
REMARK    5  A    between atoms: O_26  and  C_27
REMARK    6  A    between atoms: C_27  and  C_28
REMARK                            x       y       z     vdW  Elec       q    Type
REMARK                         _______ _______ _______ _____ _____    ______ ____
ROOT
ATOM      1  N   UNL     1      34.659 -23.234 -16.633  0.00  0.00    -0.293 NA
ATOM      2  N   UNL     1      35.341 -25.189 -13.593  0.00  0.00    -0.266 NA
ATOM      3  N   UNL     1      37.028 -23.437 -16.087  0.00  0.00    -0.316 NA
ATOM      4  N   UNL     1      36.310 -22.247 -17.969  0.00  0.00    -0.238 N 
ATOM      5  N   UNL     1      37.468 -24.731 -14.077  0.00  0.00    -0.296 N 
ATOM      6  C   UNL     1      34.305 -23.968 -15.554  0.00  0.00    +0.288 C 
ATOM      7  C   UNL     1      35.308 -24.441 -14.734  0.00  0.00    +0.215 C 
ATOM      8  C   UNL     1      36.641 -24.169 -15.015  0.00  0.00    +0.196 C 
ATOM      9  C   UNL     1      35.982 -23.018 -16.830  0.00  0.00    +0.207 C 
ATOM     10  C   UNL     1      36.656 -25.337 -13.236  0.00  0.00    +0.164 C 
ATOM     11  H   UNL     1      34.563 -25.555 -13.114  0.00  0.00    +0.126 HD
ATOM     12  H   UNL     1      37.277 -22.106 -18.088  0.00  0.00    +0.166 HD
ATOM     13  H   UNL     1      38.451 -24.691 -14.039  0.00  0.00    +0.150 HD
ENDROOT
BRANCH   4  14
ATOM     14  C   UNL     1      35.524 -21.642 -18.966  0.00  0.00    +0.060 C 
ATOM     15  C   UNL     1      35.301 -20.083 -20.803  0.00  0.00    +0.123 C 
ATOM     16  C   UNL     1      36.081 -20.682 -19.813  0.00  0.00    +0.035 C 
ATOM     17  C   UNL     1      34.182 -22.003 -19.115  0.00  0.00    +0.015 C 
ATOM     18  C   UNL     1      33.961 -20.445 -20.948  0.00  0.00    +0.020 C 
ATOM     19  C   UNL     1      33.402 -21.405 -20.104  0.00  0.00    +0.003 C 
BRANCH  15  20
ATOM     20  S   UNL     1      36.000 -18.883 -21.861  0.00  0.00    +0.057 S 
ATOM     21  O   UNL     1      37.433 -18.829 -21.610  0.00  0.00    -0.153 OA
ATOM     22  O   UNL     1      35.510 -19.118 -23.212  0.00  0.00    -0.153 OA
BRANCH  20  23
ATOM     23  N   UNL     1      35.279 -17.456 -21.256  0.00  0.00    -0.203 NA
ATOM     24  H   UNL     1      35.989 -16.729 -21.170  0.00  0.00    +0.144 HD
ATOM     25  H   UNL     1      34.871 -17.644 -20.341  0.00  0.00    +0.144 HD
ENDBRANCH  20  23
ENDBRANCH  15  20
ENDBRANCH   4  14
BRANCH   6  26
ATOM     26  O   UNL     1      32.971 -24.206 -15.325  0.00  0.00    -0.453 OA
BRANCH  26  27
ATOM     27  C   UNL     1      32.249 -23.204 -14.635  0.00  0.00    +0.208 C 
BRANCH  27  28
ATOM     28  C   UNL     1      30.760 -23.405 -14.909  0.00  0.00    +0.044 C 
ATOM     29  C   UNL     1      30.397 -22.919 -16.319  0.00  0.00    +0.004 C 
ATOM     30  C   UNL     1      30.369 -24.878 -14.724  0.00  0.00    +0.004 C 
ATOM     31  C   UNL     1      28.923 -23.159 -16.636  0.00  0.00    +0.000 C 
ATOM     32  C   UNL     1      28.895 -25.114 -15.044  0.00  0.00    +0.000 C 
ATOM     33  C   UNL     1      28.537 -24.621 -16.442  0.00  0.00    +0.000 C 
ENDBRANCH  27  28
ENDBRANCH  26  27
ENDBRANCH   6  26
TORSDOF 6
ENDMDL
MODEL 6
REMARK VINA RESULT:     -10.7      3.493      6.240
REMARK  Name = 447655
REMARK  6 active torsions:
REMARK  status: ('A' for Active; 'I' for Inactive)
REMARK    1  A    between atoms: N_4  and  C_14
REMARK    2  A    between atoms: C_6  and  O_26
REMARK    3  A    between atoms: C_15  and  S_20
REMARK    4  A    between atoms: S_20  and  N_23
REMARK    5  A    between atoms: O_26  and  C_27
REMARK    6  A    between atoms: C_27  and  C_28
REMARK                            x       y       z     vdW  Elec       q    Type
REMARK                         _______ _______ _______ _____ _____    ______ ____
ROOT
ATOM      1  N   UNL     1      33.289 -23.633 -16.536  0.00  0.00    -0.293 NA
ATOM      2  N   UNL     1      36.697 -22.510 -17.345  0.00  0.00    -0.266 NA
ATOM      3  N   UNL     1      34.669 -23.148 -14.584  0.00  0.00    -0.316 NA
ATOM      4  N   UNL     1      32.459 -23.880 -14.360  0.00  0.00    -0.238 N 
ATOM      5  N   UNL     1      36.919 -22.406 -15.130  0.00  0.00    -0.296 N 
ATOM      6  C   UNL     1      34.294 -23.309 -17.380  0.00  0.00    +0.288 C 
ATOM      7  C   UNL     1      35.493 -22.903 -16.833  0.00  0.00    +0.215 C 
ATOM      8  C   UNL     1      35.656 -22.830 -15.456  0.00  0.00    +0.196 C 
ATOM      9  C   UNL     1      33.536 -23.533 -15.208  0.00  0.00    +0.207 C 
ATOM     10  C   UNL     1      37.519 -22.223 -16.287  0.00  0.00    +0.164 C 
ATOM     11  H   UNL     1      36.931 -22.444 -18.298  0.00  0.00    +0.126 HD
ATOM     12  H   UNL     1      32.666 -23.797 -13.402  0.00  0.00    +0.166 HD
ATOM     13  H   UNL     1      37.295 -22.270 -14.229  0.00  0.00    +0.150 HD
ENDROOT
BRANCH   4  14
ATOM     14  C   UNL     1      31.148 -24.320 -14.620  0.00  0.00    +0.060 C 
ATOM     15  C   UNL     1      28.983 -23.971 -15.642  0.00  0.00    +0.123 C 
ATOM     16  C   UNL     1      30.282 -23.534 -15.384  0.00  0.00    +0.035 C 
ATOM     17  C   UNL     1      30.707 -25.547 -14.116  0.00  0.00    +0.015 C 
ATOM     18  C   UNL     1      28.546 -25.196 -15.137  0.00  0.00    +0.020 C 
ATOM     19  C   UNL     1      29.409 -25.983 -14.374  0.00  0.00    +0.003 C 
BRANCH  15  20
ATOM     20  S   UNL     1      27.903 -22.986 -16.597  0.00  0.00    +0.057 S 
ATOM     21  O   UNL     1      26.778 -22.595 -15.761  0.00  0.00    -0.153 OA
ATOM     22  O   UNL     1      28.689 -21.965 -17.277  0.00  0.00    -0.153 OA
BRANCH  20  23
ATOM     23  N   UNL     1      27.363 -24.122 -17.754  0.00  0.00    -0.203 NA
ATOM     24  H   UNL     1      28.036 -24.886 -17.819  0.00  0.00    +0.144 HD
ATOM     25  H   UNL     1      27.277 -23.666 -18.662  0.00  0.00    +0.144 HD
ENDBRANCH  20  23
ENDBRANCH  15  20
ENDBRANCH   4  14
BRANCH   6  26
ATOM     26  O   UNL     1      34.077 -23.399 -18.733  0.00  0.00    -0.453 OA
BRANCH  26  27
ATOM     27  C   UNL     1      33.158 -22.484 -19.300  0.00  0.00    +0.208 C 
BRANCH  27  28
ATOM     28  C   UNL     1      33.927 -21.243 -19.749  0.00  0.00    +0.044 C 
ATOM     29  C   UNL     1      35.332 -21.621 -20.236  0.00  0.00    +0.004 C 
ATOM     30  C   UNL     1      33.154 -20.494 -20.843  0.00  0.00    +0.004 C 
ATOM     31  C   UNL     1      36.101 -20.403 -20.740  0.00  0.00    +0.000 C 
ATOM     32  C   UNL     1      33.927 -19.277 -21.347  0.00  0.00    +0.000 C 
ATOM     33  C   UNL     1      35.326 -19.656 -21.821  0.00  0.00    +0.000 C 
ENDBRANCH  27  28
ENDBRANCH  26  27
ENDBRANCH   6  26
TORSDOF 6
ENDMDL
MODEL 7
REMARK VINA RESULT:     -10.7      3.736      7.465
REMARK  Name = 447655
REMARK  6 active torsions:
REMARK  status: ('A' for Active; 'I' for Inactive)
REMARK    1  A    between atoms: N_4  and  C_14
REMARK    2  A    between atoms: C_6  and  O_26
REMARK    3  A    between atoms: C_15  and  S_20
REMARK    4  A    between atoms: S_20  and  N_23
REMARK    5  A    between atoms: O_26  and  C_27
REMARK    6  A    between atoms: C_27  and  C_28
REMARK                            x       y       z     vdW  Elec       q    Type
REMARK                         _______ _______ _______ _____ _____    ______ ____
ROOT
ATOM      1  N   UNL     1      33.516 -22.987 -17.008  0.00  0.00    -0.293 NA
ATOM      2  N   UNL     1      31.387 -24.645 -14.509  0.00  0.00    -0.266 NA
ATOM      3  N   UNL     1      31.155 -23.084 -17.615  0.00  0.00    -0.316 NA
ATOM      4  N   UNL     1      32.734 -22.085 -19.023  0.00  0.00    -0.238 N 
ATOM      5  N   UNL     1      29.757 -24.181 -15.956  0.00  0.00    -0.296 N 
ATOM      6  C   UNL     1      33.286 -23.628 -15.841  0.00  0.00    +0.288 C 
ATOM      7  C   UNL     1      31.990 -24.002 -15.552  0.00  0.00    +0.215 C 
ATOM      8  C   UNL     1      30.957 -23.725 -16.438  0.00  0.00    +0.196 C 
ATOM      9  C   UNL     1      32.450 -22.758 -17.812  0.00  0.00    +0.207 C 
ATOM     10  C   UNL     1      30.050 -24.729 -14.796  0.00  0.00    +0.164 C 
ATOM     11  H   UNL     1      31.831 -24.985 -13.699  0.00  0.00    +0.126 HD
ATOM     12  H   UNL     1      31.941 -21.931 -19.586  0.00  0.00    +0.166 HD
ATOM     13  H   UNL     1      28.872 -24.115 -16.384  0.00  0.00    +0.150 HD
ENDROOT
BRANCH   4  14
ATOM     14  C   UNL     1      33.928 -21.591 -19.579  0.00  0.00    +0.060 C 
ATOM     15  C   UNL     1      35.085 -19.997 -20.984  0.00  0.00    +0.123 C 
ATOM     16  C   UNL     1      33.900 -20.487 -20.433  0.00  0.00    +0.035 C 
ATOM     17  C   UNL     1      35.147 -22.203 -19.275  0.00  0.00    +0.015 C 
ATOM     18  C   UNL     1      36.301 -20.610 -20.679  0.00  0.00    +0.020 C 
ATOM     19  C   UNL     1      36.331 -21.713 -19.825  0.00  0.00    +0.003 C 
BRANCH  15  20
ATOM     20  S   UNL     1      35.048 -18.617 -22.051  0.00  0.00    +0.057 S 
ATOM     21  O   UNL     1      34.093 -18.886 -23.117  0.00  0.00    -0.153 OA
ATOM     22  O   UNL     1      34.911 -17.412 -21.244  0.00  0.00    -0.153 OA
BRANCH  20  23
ATOM     23  N   UNL     1      36.628 -18.664 -22.701  0.00  0.00    -0.203 NA
ATOM     24  H   UNL     1      37.219 -19.252 -22.113  0.00  0.00    +0.144 HD
ATOM     25  H   UNL     1      37.010 -17.719 -22.731  0.00  0.00    +0.144 HD
ENDBRANCH  20  23
ENDBRANCH  15  20
ENDBRANCH   4  14
BRANCH   6  26
ATOM     26  O   UNL     1      34.345 -23.877 -15.002  0.00  0.00    -0.453 OA
BRANCH  26  27
ATOM     27  C   UNL     1      35.458 -23.008 -15.096  0.00  0.00    +0.208 C 
BRANCH  27  28
ATOM     28  C   UNL     1      36.686 -23.733 -14.549  0.00  0.00    +0.044 C 
ATOM     29  C   UNL     1      36.759 -23.598 -13.022  0.00  0.00    +0.004 C 
ATOM     30  C   UNL     1      36.674 -25.210 -14.966  0.00  0.00    +0.004 C 
ATOM     31  C   UNL     1      37.950 -24.359 -12.445  0.00  0.00    +0.000 C 
ATOM     32  C   UNL     1      37.865 -25.968 -14.386  0.00  0.00    +0.000 C 
ATOM     33  C   UNL     1      37.940 -25.825 -12.869  0.00  0.00    +0.000 C 
ENDBRANCH  27  28
ENDBRANCH  26  27
ENDBRANCH   6  26
TORSDOF 6
ENDMDL
MODEL 8
REMARK VINA RESULT:     -10.3      2.459      5.306
REMARK  Name = 447655
REMARK  6 active torsions:
REMARK  status: ('A' for Active; 'I' for Inactive)
REMARK    1  A    between atoms: N_4  and  C_14
REMARK    2  A    between atoms: C_6  and  O_26
REMARK    3  A    between atoms: C_15  and  S_20
REMARK    4  A    between atoms: S_20  and  N_23
REMARK    5  A    between atoms: O_26  and  C_27
REMARK    6  A    between atoms: C_27  and  C_28
REMARK                            x       y       z     vdW  Elec       q    Type
REMARK                         _______ _______ _______ _____ _____    ______ ____
ROOT
ATOM      1  N   UNL     1      34.497 -22.857 -17.647  0.00  0.00    -0.293 NA
ATOM      2  N   UNL     1      33.258 -21.045 -20.598  0.00  0.00    -0.266 NA
ATOM      3  N   UNL     1      36.181 -21.482 -18.753  0.00  0.00    -0.316 NA
ATOM      4  N   UNL     1      36.697 -22.742 -16.851  0.00  0.00    -0.238 N 
ATOM      5  N   UNL     1      35.352 -20.288 -20.702  0.00  0.00    -0.296 N 
ATOM      6  C   UNL     1      33.551 -22.492 -18.541  0.00  0.00    +0.288 C 
ATOM      7  C   UNL     1      33.913 -21.620 -19.547  0.00  0.00    +0.215 C 
ATOM      8  C   UNL     1      35.211 -21.135 -19.633  0.00  0.00    +0.196 C 
ATOM      9  C   UNL     1      35.737 -22.335 -17.807  0.00  0.00    +0.207 C 
ATOM     10  C   UNL     1      34.161 -20.255 -21.261  0.00  0.00    +0.164 C 
ATOM     11  H   UNL     1      32.312 -21.172 -20.836  0.00  0.00    +0.126 HD
ATOM     12  H   UNL     1      37.588 -22.347 -16.991  0.00  0.00    +0.166 HD
ATOM     13  H   UNL     1      36.164 -19.810 -20.989  0.00  0.00    +0.150 HD
ENDROOT
BRANCH   4  14
ATOM     14  C   UNL     1      36.626 -23.599 -15.738  0.00  0.00    +0.060 C 
ATOM     15  C   UNL     1      36.981 -24.009 -13.381  0.00  0.00    +0.123 C 
ATOM     16  C   UNL     1      37.052 -23.158 -14.484  0.00  0.00    +0.035 C 
ATOM     17  C   UNL     1      36.126 -24.897 -15.884  0.00  0.00    +0.015 C 
ATOM     18  C   UNL     1      36.482 -25.304 -13.529  0.00  0.00    +0.020 C 
ATOM     19  C   UNL     1      36.055 -25.747 -14.782  0.00  0.00    +0.003 C 
BRANCH  15  20
ATOM     20  S   UNL     1      37.514 -23.455 -11.814  0.00  0.00    +0.057 S 
ATOM     21  O   UNL     1      38.969 -23.504 -11.780  0.00  0.00    -0.153 OA
ATOM     22  O   UNL     1      36.825 -22.210 -11.505  0.00  0.00    -0.153 OA
BRANCH  20  23
ATOM     23  N   UNL     1      36.897 -24.688 -10.804  0.00  0.00    -0.203 NA
ATOM     24  H   UNL     1      36.491 -24.270  -9.967  0.00  0.00    +0.144 HD
ATOM     25  H   UNL     1      37.653 -25.318 -10.537  0.00  0.00    +0.144 HD
ENDBRANCH  20  23
ENDBRANCH  15  20
ENDBRANCH   4  14
BRANCH   6  26
ATOM     26  O   UNL     1      32.283 -23.003 -18.408  0.00  0.00    -0.453 OA
BRANCH  26  27
ATOM     27  C   UNL     1      31.568 -22.653 -17.238  0.00  0.00    +0.208 C 
BRANCH  27  28
ATOM     28  C   UNL     1      31.549 -23.862 -16.304  0.00  0.00    +0.044 C 
ATOM     29  C   UNL     1      32.474 -23.633 -15.101  0.00  0.00    +0.004 C 
ATOM     30  C   UNL     1      30.118 -24.167 -15.841  0.00  0.00    +0.004 C 
ATOM     31  C   UNL     1      32.432 -24.806 -14.125  0.00  0.00    +0.000 C 
ATOM     32  C   UNL     1      30.080 -25.339 -14.864  0.00  0.00    +0.000 C 
ATOM     33  C   UNL     1      31.007 -25.111 -13.674  0.00  0.00    +0.000 C 
ENDBRANCH  27  28
ENDBRANCH  26  27
ENDBRANCH   6  26
TORSDOF 6
ENDMDL
MODEL 9
REMARK VINA RESULT:     -10.2      3.212      5.714
REMARK  Name = 447655
REMARK  6 active torsions:
REMARK  status: ('A' for Active; 'I' for Inactive)
REMARK    1  A    between atoms: N_4  and  C_14
REMARK    2  A    between atoms: C_6  and  O_26
REMARK    3  A    between atoms: C_15  and  S_20
REMARK    4  A    between atoms: S_20  and  N_23
REMARK    5  A    between atoms: O_26  and  C_27
REMARK    6  A    between atoms: C_27  and  C_28
REMARK                            x       y       z     vdW  Elec       q    Type
REMARK                         _______ _______ _______ _____ _____    ______ ____
ROOT
ATOM      1  N   UNL     1      34.899 -22.329 -17.988  0.00  0.00    -0.293 NA
ATOM      2  N   UNL     1      33.664 -20.725 -21.058  0.00  0.00    -0.266 NA
ATOM      3  N   UNL     1      36.550 -20.933 -19.117  0.00  0.00    -0.316 NA
ATOM      4  N   UNL     1      37.067 -22.072 -17.140  0.00  0.00    -0.238 N 
ATOM      5  N   UNL     1      35.723 -19.877 -21.145  0.00  0.00    -0.296 N 
ATOM      6  C   UNL     1      33.963 -22.054 -18.923  0.00  0.00    +0.288 C 
ATOM      7  C   UNL     1      34.314 -21.217 -19.963  0.00  0.00    +0.215 C 
ATOM      8  C   UNL     1      35.591 -20.676 -20.038  0.00  0.00    +0.196 C 
ATOM      9  C   UNL     1      36.118 -21.759 -18.140  0.00  0.00    +0.207 C 
ATOM     10  C   UNL     1      34.549 -19.928 -21.736  0.00  0.00    +0.164 C 
ATOM     11  H   UNL     1      32.732 -20.908 -21.314  0.00  0.00    +0.126 HD
ATOM     12  H   UNL     1      37.943 -21.643 -17.276  0.00  0.00    +0.166 HD
ATOM     13  H   UNL     1      36.521 -19.377 -21.434  0.00  0.00    +0.150 HD
ENDROOT
BRANCH   4  14
ATOM     14  C   UNL     1      37.003 -22.876 -15.988  0.00  0.00    +0.060 C 
ATOM     15  C   UNL     1      37.917 -24.642 -14.610  0.00  0.00    +0.123 C 
ATOM     16  C   UNL     1      37.980 -23.846 -15.753  0.00  0.00    +0.035 C 
ATOM     17  C   UNL     1      35.962 -22.705 -15.071  0.00  0.00    +0.015 C 
ATOM     18  C   UNL     1      36.876 -24.470 -13.697  0.00  0.00    +0.020 C 
ATOM     19  C   UNL     1      35.899 -23.501 -13.928  0.00  0.00    +0.003 C 
BRANCH  15  20
ATOM     20  S   UNL     1      39.139 -25.854 -14.319  0.00  0.00    +0.057 S 
ATOM     21  O   UNL     1      39.167 -26.145 -12.893  0.00  0.00    -0.153 OA
ATOM     22  O   UNL     1      38.953 -26.936 -15.276  0.00  0.00    -0.153 OA
BRANCH  20  23
ATOM     23  N   UNL     1      40.556 -24.993 -14.735  0.00  0.00    -0.203 NA
ATOM     24  H   UNL     1      41.172 -25.597 -15.279  0.00  0.00    +0.144 HD
ATOM     25  H   UNL     1      41.035 -24.697 -13.884  0.00  0.00    +0.144 HD
ENDBRANCH  20  23
ENDBRANCH  15  20
ENDBRANCH   4  14
BRANCH   6  26
ATOM     26  O   UNL     1      32.716 -22.616 -18.799  0.00  0.00    -0.453 OA
BRANCH  26  27
ATOM     27  C   UNL     1      32.581 -23.682 -17.878  0.00  0.00    +0.208 C 
BRANCH  27  28
ATOM     28  C   UNL     1      31.916 -23.147 -16.612  0.00  0.00    +0.044 C 
ATOM     29  C   UNL     1      30.395 -23.337 -16.675  0.00  0.00    +0.004 C 
ATOM     30  C   UNL     1      32.499 -23.825 -15.365  0.00  0.00    +0.004 C 
ATOM     31  C   UNL     1      29.712 -22.857 -15.397  0.00  0.00    +0.000 C 
ATOM     32  C   UNL     1      31.813 -23.345 -14.089  0.00  0.00    +0.000 C 
ATOM     33  C   UNL     1      30.300 -23.527 -14.159  0.00  0.00    +0.000 C 
ENDBRANCH  27  28
ENDBRANCH  26  27
ENDBRANCH   6  26
TORSDOF 6
ENDMDL
