MODEL 1
REMARK VINA RESULT:     -11.8      0.000      0.000
REMARK  Name = 42628063
REMARK  6 active torsions:
REMARK  status: ('A' for Active; 'I' for Inactive)
REMARK    1  A    between atoms: C_1  and  N_3
REMARK    2  A    between atoms: C_1  and  C_21
REMARK    3  A    between atoms: C_4  and  N_10
REMARK    4  A    between atoms: C_11  and  C_15
REMARK    5  A    between atoms: N_20  and  C_24
REMARK    6  A    between atoms: C_27  and  N_31
REMARK                            x       y       z     vdW  Elec       q    Type
REMARK                         _______ _______ _______ _____ _____    ______ ____
ROOT
ATOM      1  C   UNL     1      33.433 -13.066 -26.048  0.00  0.00    +0.010 C 
ENDROOT
BRANCH   1   3
ATOM      2  F   UNL     1      36.690  -9.994 -26.058  0.00  0.00    -0.238 F 
ATOM      3  N   UNL     1      34.294 -11.950 -25.688  0.00  0.00    +0.396 N 
ATOM      4  C   UNL     1      34.586  -9.741 -25.049  0.00  0.00    +0.082 C 
ATOM      5  C   UNL     1      35.361  -9.963 -26.345  0.00  0.00    +0.156 C 
ATOM      6  C   UNL     1      33.562 -10.869 -25.025  0.00  0.00    -0.054 C 
ATOM      7  C   UNL     1      34.924 -11.329 -26.858  0.00  0.00    -0.039 C 
ATOM      8  H   UNL     1      34.989 -12.364 -25.068  0.00  0.00    -0.079 HD
BRANCH   4  10
ATOM      9  O   UNL     1      35.603  -7.422 -23.697  0.00  0.00    -0.270 OA
ATOM     10  N   UNL     1      33.966  -8.447 -24.981  0.00  0.00    -0.302 N 
ATOM     11  C   UNL     1      34.534  -7.376 -24.300  0.00  0.00    +0.252 C 
ATOM     12  H   UNL     1      33.103  -8.313 -25.436  0.00  0.00    +0.150 HD
BRANCH  11  15
ATOM     13 CL   UNL     1      32.419  -2.475 -25.748  0.00  0.00    -0.075 Cl
ATOM     14  S   UNL     1      33.925  -5.031 -25.620  0.00  0.00    -0.071 S 
ATOM     15  C   UNL     1      33.755  -6.111 -24.303  0.00  0.00    +0.084 C 
ATOM     16  C   UNL     1      32.865  -5.644 -23.361  0.00  0.00    +0.012 C 
ATOM     17  C   UNL     1      32.316  -4.380 -23.725  0.00  0.00    +0.019 C 
ATOM     18  C   UNL     1      32.806  -3.931 -24.933  0.00  0.00    +0.087 C 
ENDBRANCH  11  15
ENDBRANCH   4  10
ENDBRANCH   1   3
BRANCH   1  21
ATOM     19  O   UNL     1      32.496 -13.853 -23.968  0.00  0.00    -0.277 OA
ATOM     20  N   UNL     1      34.245 -15.046 -24.984  0.00  0.00    -0.284 N 
ATOM     21  C   UNL     1      33.316 -14.015 -24.867  0.00  0.00    +0.205 C 
ATOM     22  H   UNL     1      34.824 -15.022 -25.779  0.00  0.00    +0.155 HD
BRANCH  20  24
ATOM     23  F   UNL     1      34.894 -14.622 -22.306  0.00  0.00    -0.203 F 
ATOM     24  C   UNL     1      34.452 -16.126 -24.093  0.00  0.00    +0.078 C 
ATOM     25  C   UNL     1      34.776 -15.880 -22.757  0.00  0.00    +0.155 C 
ATOM     26  C   UNL     1      34.332 -17.438 -24.550  0.00  0.00    +0.018 C 
ATOM     27  C   UNL     1      34.859 -18.257 -22.339  0.00  0.00    +0.061 C 
ATOM     28  C   UNL     1      34.979 -16.945 -21.881  0.00  0.00    +0.046 C 
ATOM     29  C   UNL     1      34.535 -18.504 -23.673  0.00  0.00    +0.017 C 
BRANCH  27  31
ATOM     30  O   UNL     1      37.407 -19.031 -21.212  0.00  0.00    -0.269 OA
ATOM     31  N   UNL     1      35.070 -19.365 -21.428  0.00  0.00    -0.233 N 
ATOM     32  C   UNL     1      36.381 -19.668 -20.975  0.00  0.00    +0.257 C 
ATOM     33  C   UNL     1      33.991 -20.125 -20.973  0.00  0.00    +0.072 C 
ATOM     34  C   UNL     1      36.517 -20.855 -20.075  0.00  0.00    +0.059 C 
ATOM     35  C   UNL     1      34.134 -21.162 -20.141  0.00  0.00    +0.017 C 
ATOM     36  C   UNL     1      35.438 -21.539 -19.686  0.00  0.00    +0.006 C 
ENDBRANCH  27  31
ENDBRANCH  20  24
ENDBRANCH   1  21
TORSDOF 6
ENDMDL
MODEL 2
REMARK VINA RESULT:     -11.1      2.779      5.286
REMARK  Name = 42628063
REMARK  6 active torsions:
REMARK  status: ('A' for Active; 'I' for Inactive)
REMARK    1  A    between atoms: C_1  and  N_3
REMARK    2  A    between atoms: C_1  and  C_21
REMARK    3  A    between atoms: C_4  and  N_10
REMARK    4  A    between atoms: C_11  and  C_15
REMARK    5  A    between atoms: N_20  and  C_24
REMARK    6  A    between atoms: C_27  and  N_31
REMARK                            x       y       z     vdW  Elec       q    Type
REMARK                         _______ _______ _______ _____ _____    ______ ____
ROOT
ATOM      1  C   UNL     1      34.890 -17.804 -24.206  0.00  0.00    +0.010 C 
ENDROOT
BRANCH   1   3
ATOM      2  F   UNL     1      33.345 -14.492 -21.619  0.00  0.00    -0.238 F 
ATOM      3  N   UNL     1      34.222 -16.598 -23.740  0.00  0.00    +0.396 N 
ATOM      4  C   UNL     1      33.777 -14.331 -23.920  0.00  0.00    +0.082 C 
ATOM      5  C   UNL     1      34.350 -14.589 -22.530  0.00  0.00    +0.156 C 
ATOM      6  C   UNL     1      34.228 -15.531 -24.742  0.00  0.00    -0.054 C 
ATOM      7  C   UNL     1      34.869 -16.021 -22.557  0.00  0.00    -0.039 C 
ATOM      8  H   UNL     1      33.273 -16.907 -23.531  0.00  0.00    -0.079 HD
BRANCH   4  10
ATOM      9  O   UNL     1      32.793 -11.708 -23.293  0.00  0.00    -0.270 OA
ATOM     10  N   UNL     1      34.223 -13.089 -24.488  0.00  0.00    -0.302 N 
ATOM     11  C   UNL     1      33.685 -11.859 -24.123  0.00  0.00    +0.252 C 
ATOM     12  H   UNL     1      34.938 -13.108 -25.164  0.00  0.00    +0.150 HD
BRANCH  11  15
ATOM     13 CL   UNL     1      35.043  -6.662 -25.441  0.00  0.00    -0.075 Cl
ATOM     14  S   UNL     1      33.985  -9.116 -24.147  0.00  0.00    -0.071 S 
ATOM     15  C   UNL     1      34.238 -10.670 -24.821  0.00  0.00    +0.084 C 
ATOM     16  C   UNL     1      34.965 -10.615 -25.989  0.00  0.00    +0.012 C 
ATOM     17  C   UNL     1      35.319  -9.279 -26.338  0.00  0.00    +0.019 C 
ATOM     18  C   UNL     1      34.849  -8.364 -25.421  0.00  0.00    +0.087 C 
ENDBRANCH  11  15
ENDBRANCH   4  10
ENDBRANCH   1   3
BRANCH   1  21
ATOM     19  O   UNL     1      36.572 -18.600 -22.671  0.00  0.00    -0.277 OA
ATOM     20  N   UNL     1      34.338 -19.271 -22.403  0.00  0.00    -0.284 N 
ATOM     21  C   UNL     1      35.394 -18.596 -23.011  0.00  0.00    +0.205 C 
ATOM     22  H   UNL     1      33.451 -19.149 -22.809  0.00  0.00    +0.155 HD
BRANCH  20  24
ATOM     23  F   UNL     1      32.022 -20.225 -21.179  0.00  0.00    -0.203 F 
ATOM     24  C   UNL     1      34.394 -20.113 -21.266  0.00  0.00    +0.078 C 
ATOM     25  C   UNL     1      33.216 -20.573 -20.676  0.00  0.00    +0.155 C 
ATOM     26  C   UNL     1      35.630 -20.482 -20.733  0.00  0.00    +0.018 C 
ATOM     27  C   UNL     1      34.509 -21.771 -19.025  0.00  0.00    +0.061 C 
ATOM     28  C   UNL     1      33.273 -21.402 -19.557  0.00  0.00    +0.046 C 
ATOM     29  C   UNL     1      35.687 -21.311 -19.614  0.00  0.00    +0.017 C 
BRANCH  27  31
ATOM     30  O   UNL     1      36.728 -21.932 -17.177  0.00  0.00    -0.269 OA
ATOM     31  N   UNL     1      34.569 -22.633 -17.861  0.00  0.00    -0.233 N 
ATOM     32  C   UNL     1      35.735 -22.649 -17.052  0.00  0.00    +0.257 C 
ATOM     33  C   UNL     1      33.479 -23.434 -17.514  0.00  0.00    +0.072 C 
ATOM     34  C   UNL     1      35.732 -23.600 -15.898  0.00  0.00    +0.059 C 
ATOM     35  C   UNL     1      33.487 -24.252 -16.457  0.00  0.00    +0.017 C 
ATOM     36  C   UNL     1      34.653 -24.340 -15.630  0.00  0.00    +0.006 C 
ENDBRANCH  27  31
ENDBRANCH  20  24
ENDBRANCH   1  21
TORSDOF 6
ENDMDL
MODEL 3
REMARK VINA RESULT:     -11.0      5.772     12.091
REMARK  Name = 42628063
REMARK  6 active torsions:
REMARK  status: ('A' for Active; 'I' for Inactive)
REMARK    1  A    between atoms: C_1  and  N_3
REMARK    2  A    between atoms: C_1  and  C_21
REMARK    3  A    between atoms: C_4  and  N_10
REMARK    4  A    between atoms: C_11  and  C_15
REMARK    5  A    between atoms: N_20  and  C_24
REMARK    6  A    between atoms: C_27  and  N_31
REMARK                            x       y       z     vdW  Elec       q    Type
REMARK                         _______ _______ _______ _____ _____    ______ ____
ROOT
ATOM      1  C   UNL     1      33.813 -17.900 -24.507  0.00  0.00    +0.010 C 
ENDROOT
BRANCH   1   3
ATOM      2  F   UNL     1      36.975 -18.432 -21.382  0.00  0.00    -0.238 F 
ATOM      3  N   UNL     1      34.738 -18.487 -23.548  0.00  0.00    +0.396 N 
ATOM      4  C   UNL     1      35.180 -19.895 -21.762  0.00  0.00    +0.082 C 
ATOM      5  C   UNL     1      35.616 -18.487 -21.370  0.00  0.00    +0.156 C 
ATOM      6  C   UNL     1      34.191 -19.680 -22.901  0.00  0.00    -0.054 C 
ATOM      7  C   UNL     1      35.066 -17.568 -22.452  0.00  0.00    -0.039 C 
ATOM      8  H   UNL     1      35.562 -18.709 -24.105  0.00  0.00    -0.079 HD
BRANCH   4  10
ATOM      9  O   UNL     1      36.541 -21.681 -19.973  0.00  0.00    -0.270 OA
ATOM     10  N   UNL     1      34.597 -20.626 -20.671  0.00  0.00    -0.302 N 
ATOM     11  C   UNL     1      35.337 -21.473 -19.853  0.00  0.00    +0.252 C 
ATOM     12  H   UNL     1      33.635 -20.523 -20.495  0.00  0.00    +0.150 HD
BRANCH  11  15
ATOM     13 CL   UNL     1      33.976 -23.955 -15.101  0.00  0.00    -0.075 Cl
ATOM     14  S   UNL     1      35.376 -22.561 -17.317  0.00  0.00    -0.071 S 
ATOM     15  C   UNL     1      34.582 -22.175 -18.783  0.00  0.00    +0.084 C 
ATOM     16  C   UNL     1      33.267 -22.586 -18.784  0.00  0.00    +0.012 C 
ATOM     17  C   UNL     1      32.907 -23.229 -17.563  0.00  0.00    +0.019 C 
ATOM     18  C   UNL     1      33.961 -23.282 -16.677  0.00  0.00    +0.087 C 
ENDBRANCH  11  15
ENDBRANCH   4  10
ENDBRANCH   1   3
BRANCH   1  21
ATOM     19  O   UNL     1      35.329 -16.343 -25.554  0.00  0.00    -0.277 OA
ATOM     20  N   UNL     1      33.431 -15.543 -24.428  0.00  0.00    -0.284 N 
ATOM     21  C   UNL     1      34.305 -16.518 -24.902  0.00  0.00    +0.205 C 
ATOM     22  H   UNL     1      32.650 -15.866 -23.924  0.00  0.00    +0.155 HD
BRANCH  20  24
ATOM     23  F   UNL     1      33.831 -13.854 -22.246  0.00  0.00    -0.203 F 
ATOM     24  C   UNL     1      33.536 -14.140 -24.586  0.00  0.00    +0.078 C 
ATOM     25  C   UNL     1      33.735 -13.322 -23.473  0.00  0.00    +0.155 C 
ATOM     26  C   UNL     1      33.438 -13.575 -25.858  0.00  0.00    +0.018 C 
ATOM     27  C   UNL     1      33.742 -11.376 -24.904  0.00  0.00    +0.061 C 
ATOM     28  C   UNL     1      33.838 -11.941 -23.632  0.00  0.00    +0.046 C 
ATOM     29  C   UNL     1      33.541 -12.193 -26.016  0.00  0.00    +0.017 C 
BRANCH  27  31
ATOM     30  O   UNL     1      36.066  -9.977 -25.905  0.00  0.00    -0.269 OA
ATOM     31  N   UNL     1      33.848  -9.939 -25.069  0.00  0.00    -0.233 N 
ATOM     32  C   UNL     1      35.062  -9.369 -25.534  0.00  0.00    +0.257 C 
ATOM     33  C   UNL     1      32.758  -9.111 -24.795  0.00  0.00    +0.072 C 
ATOM     34  C   UNL     1      35.103  -7.877 -25.632  0.00  0.00    +0.059 C 
ATOM     35  C   UNL     1      32.809  -7.781 -24.922  0.00  0.00    +0.017 C 
ATOM     36  C   UNL     1      34.021  -7.148 -25.347  0.00  0.00    +0.006 C 
ENDBRANCH  27  31
ENDBRANCH  20  24
ENDBRANCH   1  21
TORSDOF 6
ENDMDL
MODEL 4
REMARK VINA RESULT:     -11.0      7.558     14.131
REMARK  Name = 42628063
REMARK  6 active torsions:
REMARK  status: ('A' for Active; 'I' for Inactive)
REMARK    1  A    between atoms: C_1  and  N_3
REMARK    2  A    between atoms: C_1  and  C_21
REMARK    3  A    between atoms: C_4  and  N_10
REMARK    4  A    between atoms: C_11  and  C_15
REMARK    5  A    between atoms: N_20  and  C_24
REMARK    6  A    between atoms: C_27  and  N_31
REMARK                            x       y       z     vdW  Elec       q    Type
REMARK                         _______ _______ _______ _____ _____    ______ ____
ROOT
ATOM      1  C   UNL     1      35.327 -21.380 -20.542  0.00  0.00    +0.010 C 
ENDROOT
BRANCH   1   3
ATOM      2  F   UNL     1      33.105 -22.735 -16.900  0.00  0.00    -0.238 F 
ATOM      3  N   UNL     1      34.943 -21.640 -19.163  0.00  0.00    +0.396 N 
ATOM      4  C   UNL     1      35.428 -22.432 -17.040  0.00  0.00    +0.082 C 
ATOM      5  C   UNL     1      34.207 -23.187 -17.556  0.00  0.00    +0.156 C 
ATOM      6  C   UNL     1      36.096 -21.891 -18.298  0.00  0.00    -0.054 C 
ATOM      7  C   UNL     1      34.095 -22.830 -19.033  0.00  0.00    -0.039 C 
ATOM      8  H   UNL     1      34.444 -20.796 -18.883  0.00  0.00    -0.079 HD
BRANCH   4  10
ATOM      9  O   UNL     1      35.047 -23.294 -14.328  0.00  0.00    -0.270 OA
ATOM     10  N   UNL     1      36.315 -23.259 -16.270  0.00  0.00    -0.302 N 
ATOM     11  C   UNL     1      36.048 -23.628 -14.956  0.00  0.00    +0.252 C 
ATOM     12  H   UNL     1      37.145 -23.579 -16.690  0.00  0.00    +0.150 HD
BRANCH  11  15
ATOM     13 CL   UNL     1      40.645 -26.522 -13.917  0.00  0.00    -0.075 Cl
ATOM     14  S   UNL     1      38.510 -24.860 -15.140  0.00  0.00    -0.071 S 
ATOM     15  C   UNL     1      37.077 -24.468 -14.290  0.00  0.00    +0.084 C 
ATOM     16  C   UNL     1      37.061 -25.008 -13.024  0.00  0.00    +0.012 C 
ATOM     17  C   UNL     1      38.242 -25.757 -12.747  0.00  0.00    +0.019 C 
ATOM     18  C   UNL     1      39.115 -25.758 -13.813  0.00  0.00    +0.087 C 
ENDBRANCH  11  15
ENDBRANCH   4  10
ENDBRANCH   1   3
BRANCH   1  21
ATOM     19  O   UNL     1      33.354 -20.036 -20.889  0.00  0.00    -0.277 OA
ATOM     20  N   UNL     1      35.422 -19.308 -21.728  0.00  0.00    -0.284 N 
ATOM     21  C   UNL     1      34.560 -20.176 -21.063  0.00  0.00    +0.205 C 
ATOM     22  H   UNL     1      36.367 -19.578 -21.768  0.00  0.00    +0.155 HD
BRANCH  20  24
ATOM     23  F   UNL     1      34.928 -19.150 -24.467  0.00  0.00    -0.203 F 
ATOM     24  C   UNL     1      35.097 -18.080 -22.352  0.00  0.00    +0.078 C 
ATOM     25  C   UNL     1      34.855 -18.034 -23.726  0.00  0.00    +0.155 C 
ATOM     26  C   UNL     1      35.018 -16.913 -21.592  0.00  0.00    +0.018 C 
ATOM     27  C   UNL     1      34.455 -15.657 -23.578  0.00  0.00    +0.061 C 
ATOM     28  C   UNL     1      34.534 -16.824 -24.338  0.00  0.00    +0.046 C 
ATOM     29  C   UNL     1      34.697 -15.702 -22.205  0.00  0.00    +0.017 C 
BRANCH  27  31
ATOM     30  O   UNL     1      33.491 -15.358 -26.288  0.00  0.00    -0.269 OA
ATOM     31  N   UNL     1      34.122 -14.398 -24.215  0.00  0.00    -0.233 N 
ATOM     32  C   UNL     1      33.695 -14.381 -25.569  0.00  0.00    +0.257 C 
ATOM     33  C   UNL     1      34.195 -13.200 -23.500  0.00  0.00    +0.072 C 
ATOM     34  C   UNL     1      33.416 -13.037 -26.162  0.00  0.00    +0.059 C 
ATOM     35  C   UNL     1      33.909 -12.013 -24.044  0.00  0.00    +0.017 C 
ATOM     36  C   UNL     1      33.514 -11.932 -25.418  0.00  0.00    +0.006 C 
ENDBRANCH  27  31
ENDBRANCH  20  24
ENDBRANCH   1  21
TORSDOF 6
ENDMDL
MODEL 5
REMARK VINA RESULT:     -10.4      4.882     11.699
REMARK  Name = 42628063
REMARK  6 active torsions:
REMARK  status: ('A' for Active; 'I' for Inactive)
REMARK    1  A    between atoms: C_1  and  N_3
REMARK    2  A    between atoms: C_1  and  C_21
REMARK    3  A    between atoms: C_4  and  N_10
REMARK    4  A    between atoms: C_11  and  C_15
REMARK    5  A    between atoms: N_20  and  C_24
REMARK    6  A    between atoms: C_27  and  N_31
REMARK                            x       y       z     vdW  Elec       q    Type
REMARK                         _______ _______ _______ _____ _____    ______ ____
ROOT
ATOM      1  C   UNL     1      34.058 -15.252 -25.367  0.00  0.00    +0.010 C 
ENDROOT
BRANCH   1   3
ATOM      2  F   UNL     1      34.898 -14.420 -21.049  0.00  0.00    -0.238 F 
ATOM      3  N   UNL     1      34.617 -15.297 -24.024  0.00  0.00    +0.396 N 
ATOM      4  C   UNL     1      35.239 -16.475 -22.128  0.00  0.00    +0.082 C 
ATOM      5  C   UNL     1      34.235 -15.406 -21.709  0.00  0.00    +0.156 C 
ATOM      6  C   UNL     1      35.000 -16.651 -23.623  0.00  0.00    -0.054 C 
ATOM      7  C   UNL     1      33.662 -14.848 -23.005  0.00  0.00    -0.039 C 
ATOM      8  H   UNL     1      35.426 -14.680 -24.073  0.00  0.00    -0.079 HD
BRANCH   4  10
ATOM      9  O   UNL     1      37.035 -18.715 -22.144  0.00  0.00    -0.270 OA
ATOM     10  N   UNL     1      35.080 -17.708 -21.407  0.00  0.00    -0.302 N 
ATOM     11  C   UNL     1      36.006 -18.743 -21.475  0.00  0.00    +0.252 C 
ATOM     12  H   UNL     1      34.283 -17.824 -20.842  0.00  0.00    +0.150 HD
BRANCH  11  15
ATOM     13 CL   UNL     1      33.286 -22.920 -19.079  0.00  0.00    -0.075 Cl
ATOM     14  S   UNL     1      34.059 -20.496 -20.609  0.00  0.00    -0.071 S 
ATOM     15  C   UNL     1      35.683 -19.963 -20.690  0.00  0.00    +0.084 C 
ATOM     16  C   UNL     1      36.533 -20.780 -19.978  0.00  0.00    +0.012 C 
ATOM     17  C   UNL     1      35.841 -21.859 -19.355  0.00  0.00    +0.019 C 
ATOM     18  C   UNL     1      34.488 -21.825 -19.617  0.00  0.00    +0.087 C 
ENDBRANCH  11  15
ENDBRANCH   4  10
ENDBRANCH   1   3
BRANCH   1  21
ATOM     19  O   UNL     1      32.303 -13.793 -26.149  0.00  0.00    -0.277 OA
ATOM     20  N   UNL     1      34.182 -12.883 -25.075  0.00  0.00    -0.284 N 
ATOM     21  C   UNL     1      33.390 -13.906 -25.592  0.00  0.00    +0.205 C 
ATOM     22  H   UNL     1      35.027 -13.158 -24.654  0.00  0.00    +0.155 HD
BRANCH  20  24
ATOM     23  F   UNL     1      34.601 -11.332 -27.353  0.00  0.00    -0.203 F 
ATOM     24  C   UNL     1      33.911 -11.494 -25.084  0.00  0.00    +0.078 C 
ATOM     25  C   UNL     1      34.132 -10.745 -26.241  0.00  0.00    +0.155 C 
ATOM     26  C   UNL     1      33.423 -10.873 -23.935  0.00  0.00    +0.018 C 
ATOM     27  C   UNL     1      33.376  -8.756 -25.099  0.00  0.00    +0.061 C 
ATOM     28  C   UNL     1      33.865  -9.377 -26.248  0.00  0.00    +0.046 C 
ATOM     29  C   UNL     1      33.155  -9.504 -23.943  0.00  0.00    +0.017 C 
BRANCH  27  31
ATOM     30  O   UNL     1      35.338  -6.667 -24.710  0.00  0.00    -0.269 OA
ATOM     31  N   UNL     1      33.098  -7.333 -25.106  0.00  0.00    -0.233 N 
ATOM     32  C   UNL     1      34.145  -6.406 -24.863  0.00  0.00    +0.257 C 
ATOM     33  C   UNL     1      31.810  -6.864 -25.373  0.00  0.00    +0.072 C 
ATOM     34  C   UNL     1      33.763  -4.961 -24.842  0.00  0.00    +0.059 C 
ATOM     35  C   UNL     1      31.500  -5.563 -25.381  0.00  0.00    +0.017 C 
ATOM     36  C   UNL     1      32.508  -4.585 -25.100  0.00  0.00    +0.006 C 
ENDBRANCH  27  31
ENDBRANCH  20  24
ENDBRANCH   1  21
TORSDOF 6
ENDMDL
MODEL 6
REMARK VINA RESULT:     -10.4      4.796      8.022
REMARK  Name = 42628063
REMARK  6 active torsions:
REMARK  status: ('A' for Active; 'I' for Inactive)
REMARK    1  A    between atoms: C_1  and  N_3
REMARK    2  A    between atoms: C_1  and  C_21
REMARK    3  A    between atoms: C_4  and  N_10
REMARK    4  A    between atoms: C_11  and  C_15
REMARK    5  A    between atoms: N_20  and  C_24
REMARK    6  A    between atoms: C_27  and  N_31
REMARK                            x       y       z     vdW  Elec       q    Type
REMARK                         _______ _______ _______ _____ _____    ______ ____
ROOT
ATOM      1  C   UNL     1      34.692 -20.202 -21.827  0.00  0.00    +0.010 C 
ENDROOT
BRANCH   1   3
ATOM      2  F   UNL     1      35.725 -16.794 -24.540  0.00  0.00    -0.238 F 
ATOM      3  N   UNL     1      35.095 -18.899 -22.332  0.00  0.00    +0.396 N 
ATOM      4  C   UNL     1      34.915 -16.588 -22.347  0.00  0.00    +0.082 C 
ATOM      5  C   UNL     1      34.649 -17.090 -23.763  0.00  0.00    +0.156 C 
ATOM      6  C   UNL     1      34.662 -17.804 -21.464  0.00  0.00    -0.054 C 
ATOM      7  C   UNL     1      34.513 -18.603 -23.646  0.00  0.00    -0.039 C 
ATOM      8  H   UNL     1      36.112 -18.957 -22.381  0.00  0.00    -0.079 HD
BRANCH   4  10
ATOM      9  O   UNL     1      34.258 -14.330 -23.994  0.00  0.00    -0.270 OA
ATOM     10  N   UNL     1      34.086 -15.473 -21.983  0.00  0.00    -0.302 N 
ATOM     11  C   UNL     1      33.821 -14.419 -22.850  0.00  0.00    +0.252 C 
ATOM     12  H   UNL     1      33.688 -15.455 -21.083  0.00  0.00    +0.150 HD
BRANCH  11  15
ATOM     13 CL   UNL     1      31.162  -9.610 -22.219  0.00  0.00    -0.075 Cl
ATOM     14  S   UNL     1      32.844 -11.859 -23.181  0.00  0.00    -0.071 S 
ATOM     15  C   UNL     1      32.964 -13.330 -22.313  0.00  0.00    +0.084 C 
ATOM     16  C   UNL     1      32.206 -13.315 -21.163  0.00  0.00    +0.012 C 
ATOM     17  C   UNL     1      31.518 -12.079 -20.991  0.00  0.00    +0.019 C 
ATOM     18  C   UNL     1      31.776 -11.197 -22.018  0.00  0.00    +0.087 C 
ENDBRANCH  11  15
ENDBRANCH   4  10
ENDBRANCH   1   3
BRANCH   1  21
ATOM     19  O   UNL     1      36.555 -19.989 -20.310  0.00  0.00    -0.277 OA
ATOM     20  N   UNL     1      34.809 -21.476 -19.809  0.00  0.00    -0.284 N 
ATOM     21  C   UNL     1      35.483 -20.525 -20.571  0.00  0.00    +0.205 C 
ATOM     22  H   UNL     1      33.952 -21.796 -20.170  0.00  0.00    +0.155 HD
BRANCH  20  24
ATOM     23  F   UNL     1      33.030 -22.892 -18.196  0.00  0.00    -0.203 F 
ATOM     24  C   UNL     1      35.215 -22.036 -18.574  0.00  0.00    +0.078 C 
ATOM     25  C   UNL     1      34.299 -22.740 -17.789  0.00  0.00    +0.155 C 
ATOM     26  C   UNL     1      36.531 -21.884 -18.140  0.00  0.00    +0.018 C 
ATOM     27  C   UNL     1      36.018 -23.139 -16.140  0.00  0.00    +0.061 C 
ATOM     28  C   UNL     1      34.701 -23.291 -16.574  0.00  0.00    +0.046 C 
ATOM     29  C   UNL     1      36.933 -22.436 -16.923  0.00  0.00    +0.017 C 
BRANCH  27  31
ATOM     30  O   UNL     1      36.447 -25.956 -15.641  0.00  0.00    -0.269 OA
ATOM     31  N   UNL     1      36.436 -23.713 -14.876  0.00  0.00    -0.233 N 
ATOM     32  C   UNL     1      36.573 -25.119 -14.747  0.00  0.00    +0.257 C 
ATOM     33  C   UNL     1      36.726 -22.889 -13.786  0.00  0.00    +0.072 C 
ATOM     34  C   UNL     1      36.963 -25.630 -13.397  0.00  0.00    +0.059 C 
ATOM     35  C   UNL     1      37.105 -23.368 -12.596  0.00  0.00    +0.017 C 
ATOM     36  C   UNL     1      37.219 -24.782 -12.398  0.00  0.00    +0.006 C 
ENDBRANCH  27  31
ENDBRANCH  20  24
ENDBRANCH   1  21
TORSDOF 6
ENDMDL
MODEL 7
REMARK VINA RESULT:     -10.2      4.944     11.667
REMARK  Name = 42628063
REMARK  6 active torsions:
REMARK  status: ('A' for Active; 'I' for Inactive)
REMARK    1  A    between atoms: C_1  and  N_3
REMARK    2  A    between atoms: C_1  and  C_21
REMARK    3  A    between atoms: C_4  and  N_10
REMARK    4  A    between atoms: C_11  and  C_15
REMARK    5  A    between atoms: N_20  and  C_24
REMARK    6  A    between atoms: C_27  and  N_31
REMARK                            x       y       z     vdW  Elec       q    Type
REMARK                         _______ _______ _______ _____ _____    ______ ____
ROOT
ATOM      1  C   UNL     1      33.994 -15.233 -25.239  0.00  0.00    +0.010 C 
ENDROOT
BRANCH   1   3
ATOM      2  F   UNL     1      34.844 -14.331 -20.937  0.00  0.00    -0.238 F 
ATOM      3  N   UNL     1      34.561 -15.251 -23.899  0.00  0.00    +0.396 N 
ATOM      4  C   UNL     1      35.216 -16.393 -21.993  0.00  0.00    +0.082 C 
ATOM      5  C   UNL     1      34.195 -15.337 -21.581  0.00  0.00    +0.156 C 
ATOM      6  C   UNL     1      34.972 -16.592 -23.483  0.00  0.00    -0.054 C 
ATOM      7  C   UNL     1      33.605 -14.806 -22.880  0.00  0.00    -0.039 C 
ATOM      8  H   UNL     1      35.359 -14.619 -23.961  0.00  0.00    -0.079 HD
BRANCH   4  10
ATOM      9  O   UNL     1      36.139 -18.989 -22.802  0.00  0.00    -0.270 OA
ATOM     10  N   UNL     1      35.083 -17.619 -21.255  0.00  0.00    -0.302 N 
ATOM     11  C   UNL     1      35.563 -18.836 -21.728  0.00  0.00    +0.252 C 
ATOM     12  H   UNL     1      34.635 -17.597 -20.380  0.00  0.00    +0.150 HD
BRANCH  11  15
ATOM     13 CL   UNL     1      33.109 -22.881 -18.864  0.00  0.00    -0.075 Cl
ATOM     14  S   UNL     1      33.717 -20.534 -20.577  0.00  0.00    -0.071 S 
ATOM     15  C   UNL     1      35.325 -20.016 -20.857  0.00  0.00    +0.084 C 
ATOM     16  C   UNL     1      36.244 -20.807 -20.204  0.00  0.00    +0.012 C 
ATOM     17  C   UNL     1      35.621 -21.852 -19.462  0.00  0.00    +0.019 C 
ATOM     18  C   UNL     1      34.248 -21.820 -19.578  0.00  0.00    +0.087 C 
ENDBRANCH  11  15
ENDBRANCH   4  10
ENDBRANCH   1   3
BRANCH   1  21
ATOM     19  O   UNL     1      32.272 -13.761 -26.070  0.00  0.00    -0.277 OA
ATOM     20  N   UNL     1      34.152 -12.861 -24.990  0.00  0.00    -0.284 N 
ATOM     21  C   UNL     1      33.350 -13.881 -25.497  0.00  0.00    +0.205 C 
ATOM     22  H   UNL     1      34.988 -13.141 -24.554  0.00  0.00    +0.155 HD
BRANCH  20  24
ATOM     23  F   UNL     1      32.691 -11.583 -22.989  0.00  0.00    -0.203 F 
ATOM     24  C   UNL     1      33.904 -11.468 -25.030  0.00  0.00    +0.078 C 
ATOM     25  C   UNL     1      33.169 -10.858 -24.012  0.00  0.00    +0.155 C 
ATOM     26  C   UNL     1      34.395 -10.704 -26.088  0.00  0.00    +0.018 C 
ATOM     27  C   UNL     1      33.418  -8.722 -25.111  0.00  0.00    +0.061 C 
ATOM     28  C   UNL     1      32.926  -9.486 -24.053  0.00  0.00    +0.046 C 
ATOM     29  C   UNL     1      34.152  -9.331 -26.128  0.00  0.00    +0.017 C 
BRANCH  27  31
ATOM     30  O   UNL     1      35.401  -6.660 -24.688  0.00  0.00    -0.269 OA
ATOM     31  N   UNL     1      33.165  -7.295 -25.153  0.00  0.00    -0.233 N 
ATOM     32  C   UNL     1      34.219  -6.382 -24.889  0.00  0.00    +0.257 C 
ATOM     33  C   UNL     1      31.896  -6.809 -25.475  0.00  0.00    +0.072 C 
ATOM     34  C   UNL     1      33.862  -4.929 -24.907  0.00  0.00    +0.059 C 
ATOM     35  C   UNL     1      31.609  -5.504 -25.518  0.00  0.00    +0.017 C 
ATOM     36  C   UNL     1      32.624  -4.538 -25.218  0.00  0.00    +0.006 C 
ENDBRANCH  27  31
ENDBRANCH  20  24
ENDBRANCH   1  21
TORSDOF 6
ENDMDL
MODEL 8
REMARK VINA RESULT:     -10.0      4.990      8.620
REMARK  Name = 42628063
REMARK  6 active torsions:
REMARK  status: ('A' for Active; 'I' for Inactive)
REMARK    1  A    between atoms: C_1  and  N_3
REMARK    2  A    between atoms: C_1  and  C_21
REMARK    3  A    between atoms: C_4  and  N_10
REMARK    4  A    between atoms: C_11  and  C_15
REMARK    5  A    between atoms: N_20  and  C_24
REMARK    6  A    between atoms: C_27  and  N_31
REMARK                            x       y       z     vdW  Elec       q    Type
REMARK                         _______ _______ _______ _____ _____    ______ ____
ROOT
ATOM      1  C   UNL     1      33.291 -20.547 -21.324  0.00  0.00    +0.010 C 
ENDROOT
BRANCH   1   3
ATOM      2  F   UNL     1      37.185 -18.689 -22.519  0.00  0.00    -0.238 F 
ATOM      3  N   UNL     1      34.414 -19.631 -21.453  0.00  0.00    +0.396 N 
ATOM      4  C   UNL     1      35.265 -17.513 -21.858  0.00  0.00    +0.082 C 
ATOM      5  C   UNL     1      35.888 -18.472 -22.868  0.00  0.00    +0.156 C 
ATOM      6  C   UNL     1      34.003 -18.228 -21.391  0.00  0.00    -0.054 C 
ATOM      7  C   UNL     1      35.108 -19.773 -22.738  0.00  0.00    -0.039 C 
ATOM      8  H   UNL     1      35.023 -19.876 -20.673  0.00  0.00    -0.079 HD
BRANCH   4  10
ATOM      9  O   UNL     1      34.012 -16.975 -24.384  0.00  0.00    -0.270 OA
ATOM     10  N   UNL     1      34.978 -16.220 -22.415  0.00  0.00    -0.302 N 
ATOM     11  C   UNL     1      34.366 -16.054 -23.652  0.00  0.00    +0.252 C 
ATOM     12  H   UNL     1      35.225 -15.419 -21.899  0.00  0.00    +0.150 HD
BRANCH  11  15
ATOM     13 CL   UNL     1      33.283 -11.595 -26.740  0.00  0.00    -0.075 Cl
ATOM     14  S   UNL     1      33.727 -14.350 -25.727  0.00  0.00    -0.071 S 
ATOM     15  C   UNL     1      34.161 -14.652 -24.098  0.00  0.00    +0.084 C 
ATOM     16  C   UNL     1      34.269 -13.490 -23.368  0.00  0.00    +0.012 C 
ATOM     17  C   UNL     1      33.993 -12.334 -24.155  0.00  0.00    +0.019 C 
ATOM     18  C   UNL     1      33.683 -12.659 -25.458  0.00  0.00    +0.087 C 
ENDBRANCH  11  15
ENDBRANCH   4  10
ENDBRANCH   1   3
BRANCH   1  21
ATOM     19  O   UNL     1      32.283 -21.292 -19.263  0.00  0.00    -0.277 OA
ATOM     20  N   UNL     1      34.594 -21.547 -19.588  0.00  0.00    -0.284 N 
ATOM     21  C   UNL     1      33.300 -21.165 -19.936  0.00  0.00    +0.205 C 
ATOM     22  H   UNL     1      35.294 -21.373 -20.257  0.00  0.00    +0.155 HD
BRANCH  20  24
ATOM     23  F   UNL     1      37.134 -21.086 -18.536  0.00  0.00    -0.203 F 
ATOM     24  C   UNL     1      35.018 -22.157 -18.384  0.00  0.00    +0.078 C 
ATOM     25  C   UNL     1      36.296 -21.906 -17.883  0.00  0.00    +0.155 C 
ATOM     26  C   UNL     1      34.157 -23.012 -17.696  0.00  0.00    +0.018 C 
ATOM     27  C   UNL     1      35.850 -23.362 -16.009  0.00  0.00    +0.061 C 
ATOM     28  C   UNL     1      36.712 -22.507 -16.697  0.00  0.00    +0.046 C 
ATOM     29  C   UNL     1      34.573 -23.614 -16.508  0.00  0.00    +0.017 C 
BRANCH  27  31
ATOM     30  O   UNL     1      36.323 -26.192 -15.646  0.00  0.00    -0.269 OA
ATOM     31  N   UNL     1      36.283 -23.988 -14.774  0.00  0.00    -0.233 N 
ATOM     32  C   UNL     1      36.442 -25.397 -14.714  0.00  0.00    +0.257 C 
ATOM     33  C   UNL     1      36.566 -23.213 -13.648  0.00  0.00    +0.072 C 
ATOM     34  C   UNL     1      36.845 -25.966 -13.391  0.00  0.00    +0.059 C 
ATOM     35  C   UNL     1      36.958 -23.743 -12.484  0.00  0.00    +0.017 C 
ATOM     36  C   UNL     1      37.094 -25.163 -12.354  0.00  0.00    +0.006 C 
ENDBRANCH  27  31
ENDBRANCH  20  24
ENDBRANCH   1  21
TORSDOF 6
ENDMDL
MODEL 9
REMARK VINA RESULT:      -9.9      9.542     15.129
REMARK  Name = 42628063
REMARK  6 active torsions:
REMARK  status: ('A' for Active; 'I' for Inactive)
REMARK    1  A    between atoms: C_1  and  N_3
REMARK    2  A    between atoms: C_1  and  C_21
REMARK    3  A    between atoms: C_4  and  N_10
REMARK    4  A    between atoms: C_11  and  C_15
REMARK    5  A    between atoms: N_20  and  C_24
REMARK    6  A    between atoms: C_27  and  N_31
REMARK                            x       y       z     vdW  Elec       q    Type
REMARK                         _______ _______ _______ _____ _____    ______ ____
ROOT
ATOM      1  C   UNL     1      31.859 -23.977 -16.626  0.00  0.00    +0.010 C 
ENDROOT
BRANCH   1   3
ATOM      2  F   UNL     1      33.429 -23.545 -12.456  0.00  0.00    -0.238 F 
ATOM      3  N   UNL     1      32.659 -23.592 -15.473  0.00  0.00    +0.396 N 
ATOM      4  C   UNL     1      34.708 -23.367 -14.415  0.00  0.00    +0.082 C 
ATOM      5  C   UNL     1      33.825 -24.256 -13.545  0.00  0.00    +0.156 C 
ATOM      6  C   UNL     1      34.078 -23.450 -15.800  0.00  0.00    -0.054 C 
ATOM      7  C   UNL     1      32.608 -24.589 -14.398  0.00  0.00    -0.039 C 
ATOM      8  H   UNL     1      32.254 -22.705 -15.176  0.00  0.00    -0.079 HD
BRANCH   4  10
ATOM      9  O   UNL     1      35.795 -25.688 -15.709  0.00  0.00    -0.270 OA
ATOM     10  N   UNL     1      36.084 -23.780 -14.422  0.00  0.00    -0.302 N 
ATOM     11  C   UNL     1      36.522 -24.925 -15.079  0.00  0.00    +0.252 C 
ATOM     12  H   UNL     1      36.745 -23.229 -13.943  0.00  0.00    +0.150 HD
BRANCH  11  15
ATOM     13 CL   UNL     1      41.340 -27.329 -13.811  0.00  0.00    -0.075 Cl
ATOM     14  S   UNL     1      38.473 -26.611 -14.095  0.00  0.00    -0.071 S 
ATOM     15  C   UNL     1      37.973 -25.227 -14.970  0.00  0.00    +0.084 C 
ATOM     16  C   UNL     1      39.040 -24.533 -15.495  0.00  0.00    +0.012 C 
ATOM     17  C   UNL     1      40.287 -25.144 -15.172  0.00  0.00    +0.019 C 
ATOM     18  C   UNL     1      40.123 -26.284 -14.415  0.00  0.00    +0.087 C 
ENDBRANCH  11  15
ENDBRANCH   4  10
ENDBRANCH   1   3
BRANCH   1  21
ATOM     19  O   UNL     1      30.835 -22.080 -17.710  0.00  0.00    -0.277 OA
ATOM     20  N   UNL     1      32.993 -22.757 -18.340  0.00  0.00    -0.284 N 
ATOM     21  C   UNL     1      31.807 -22.822 -17.613  0.00  0.00    +0.205 C 
ATOM     22  H   UNL     1      33.672 -23.436 -18.126  0.00  0.00    +0.155 HD
BRANCH  20  24
ATOM     23  F   UNL     1      35.645 -22.308 -19.072  0.00  0.00    -0.203 F 
ATOM     24  C   UNL     1      33.334 -21.828 -19.351  0.00  0.00    +0.078 C 
ATOM     25  C   UNL     1      34.672 -21.626 -19.694  0.00  0.00    +0.155 C 
ATOM     26  C   UNL     1      32.332 -21.111 -20.005  0.00  0.00    +0.018 C 
ATOM     27  C   UNL     1      34.004 -19.994 -21.345  0.00  0.00    +0.061 C 
ATOM     28  C   UNL     1      35.006 -20.710 -20.690  0.00  0.00    +0.046 C 
ATOM     29  C   UNL     1      32.667 -20.195 -21.002  0.00  0.00    +0.017 C 
BRANCH  27  31
ATOM     30  O   UNL     1      35.285 -17.439 -20.905  0.00  0.00    -0.269 OA
ATOM     31  N   UNL     1      34.351 -19.041 -22.381  0.00  0.00    -0.233 N 
ATOM     32  C   UNL     1      34.943 -17.800 -22.031  0.00  0.00    +0.257 C 
ATOM     33  C   UNL     1      34.128 -19.344 -23.726  0.00  0.00    +0.072 C 
ATOM     34  C   UNL     1      35.227 -16.856 -23.156  0.00  0.00    +0.059 C 
ATOM     35  C   UNL     1      34.422 -18.496 -24.718  0.00  0.00    +0.017 C 
ATOM     36  C   UNL     1      34.981 -17.212 -24.419  0.00  0.00    +0.006 C 
ENDBRANCH  27  31
ENDBRANCH  20  24
ENDBRANCH   1  21
TORSDOF 6
ENDMDL
