MODEL 1
REMARK VINA RESULT:     -11.8      0.000      0.000
REMARK  Name = 54689025
REMARK  9 active torsions:
REMARK  status: ('A' for Active; 'I' for Inactive)
REMARK    1  A    between atoms: C_1  and  C_21
REMARK    2  A    between atoms: C_4  and  N_8
REMARK    3  A    between atoms: C_9  and  C_11
REMARK    4  A    between atoms: C_11  and  N_13
REMARK    5  A    between atoms: C_14  and  O_16
REMARK    6  A    between atoms: O_16  and  C_17
REMARK    7  A    between atoms: C_21  and  C_24
REMARK    8  A    between atoms: C_21  and  C_35
REMARK    9  A    between atoms: C_25  and  O_33
REMARK                            x       y       z     vdW  Elec       q    Type
REMARK                         _______ _______ _______ _____ _____    ______ ____
ROOT
ATOM      1  C   UNL     1      34.912 -16.793 -22.618  0.00  0.00    -0.017 C 
ATOM      2  C   UNL     1      34.794 -15.742 -23.526  0.00  0.00    +0.011 C 
ATOM      3  C   UNL     1      34.673 -16.573 -21.261  0.00  0.00    -0.004 C 
ATOM      4  C   UNL     1      34.435 -14.470 -23.079  0.00  0.00    +0.050 C 
ATOM      5  C   UNL     1      34.315 -15.301 -20.813  0.00  0.00    +0.001 C 
ATOM      6  C   UNL     1      34.195 -14.250 -21.722  0.00  0.00    +0.015 C 
ENDROOT
BRANCH   4   8
ATOM      7  O   UNL     1      32.929 -14.297 -25.673  0.00  0.00    -0.273 OA
ATOM      8  N   UNL     1      34.317 -13.418 -23.987  0.00  0.00    -0.283 N 
ATOM      9  C   UNL     1      33.598 -13.387 -25.193  0.00  0.00    +0.246 C 
ATOM     10  H   UNL     1      34.798 -12.591 -23.752  0.00  0.00    +0.155 HD
BRANCH   9  11
ATOM     11  C   UNL     1      33.738 -12.038 -25.874  0.00  0.00    +0.179 C 
BRANCH  11  13
ATOM     12  O   UNL     1      35.606  -9.822 -26.068  0.00  0.00    -0.226 OA
ATOM     13  N   UNL     1      33.987 -11.011 -24.904  0.00  0.00    -0.262 N 
ATOM     14  C   UNL     1      34.901  -9.985 -25.077  0.00  0.00    +0.402 C 
ATOM     15  H   UNL     1      33.477 -11.038 -24.063  0.00  0.00    +0.153 HD
BRANCH  14  16
ATOM     16  O   UNL     1      34.906  -9.172 -23.978  0.00  0.00    -0.442 OA
BRANCH  16  17
ATOM     17  C   UNL     1      34.190  -7.939 -24.112  0.00  0.00    +0.138 C 
ATOM     18  C   UNL     1      35.160  -6.863 -24.596  0.00  0.00    +0.044 C 
ATOM     19  C   UNL     1      33.633  -7.581 -22.735  0.00  0.00    +0.044 C 
ATOM     20  C   UNL     1      33.056  -8.142 -25.115  0.00  0.00    +0.044 C 
ENDBRANCH  16  17
ENDBRANCH  14  16
ENDBRANCH  11  13
ENDBRANCH   9  11
ENDBRANCH   4   8
BRANCH   1  21
ATOM     21  C   UNL     1      35.302 -18.177 -23.105  0.00  0.00    +0.054 C 
BRANCH  21  24
ATOM     22  O   UNL     1      36.692 -20.300 -20.295  0.00  0.00    -0.421 OA
ATOM     23  O   UNL     1      37.628 -18.795 -21.722  0.00  0.00    -0.245 OA
ATOM     24  C   UNL     1      35.290 -19.169 -21.973  0.00  0.00    +0.091 A 
ATOM     25  C   UNL     1      34.208 -19.833 -21.525  0.00  0.00    +0.139 A 
ATOM     26  C   UNL     1      36.623 -19.389 -21.342  0.00  0.00    +0.345 A 
ATOM     27  C   UNL     1      34.315 -20.787 -20.419  0.00  0.00    +0.068 A 
ATOM     28  C   UNL     1      35.560 -20.993 -19.835  0.00  0.00    +0.152 A 
ATOM     29  C   UNL     1      33.226 -21.510 -19.912  0.00  0.00    +0.006 C 
ATOM     30  C   UNL     1      35.749 -21.885 -18.777  0.00  0.00    +0.038 C 
ATOM     31  C   UNL     1      33.398 -22.407 -18.851  0.00  0.00    +0.000 C 
ATOM     32  C   UNL     1      34.658 -22.595 -18.286  0.00  0.00    +0.003 C 
BRANCH  25  33
ATOM     33  O   UNL     1      32.935 -19.692 -22.037  0.00  0.00    -0.506 OA
ATOM     34  H   UNL     1      32.814 -19.390 -22.915  0.00  0.00    +0.292 HD
ENDBRANCH  25  33
ENDBRANCH  21  24
BRANCH  21  35
ATOM     35  C   UNL     1      34.428 -18.694 -24.266  0.00  0.00    +0.009 C 
ATOM     36  C   UNL     1      34.925 -20.016 -24.841  0.00  0.00    +0.001 C 
ENDBRANCH  21  35
ENDBRANCH   1  21
TORSDOF 9
ENDMDL
MODEL 2
REMARK VINA RESULT:     -10.9      4.569     11.441
REMARK  Name = 54689025
REMARK  9 active torsions:
REMARK  status: ('A' for Active; 'I' for Inactive)
REMARK    1  A    between atoms: C_1  and  C_21
REMARK    2  A    between atoms: C_4  and  N_8
REMARK    3  A    between atoms: C_9  and  C_11
REMARK    4  A    between atoms: C_11  and  N_13
REMARK    5  A    between atoms: C_14  and  O_16
REMARK    6  A    between atoms: O_16  and  C_17
REMARK    7  A    between atoms: C_21  and  C_24
REMARK    8  A    between atoms: C_21  and  C_35
REMARK    9  A    between atoms: C_25  and  O_33
REMARK                            x       y       z     vdW  Elec       q    Type
REMARK                         _______ _______ _______ _____ _____    ______ ____
ROOT
ATOM      1  C   UNL     1      34.548 -20.251 -21.115  0.00  0.00    -0.017 C 
ATOM      2  C   UNL     1      34.860 -21.220 -20.163  0.00  0.00    +0.011 C 
ATOM      3  C   UNL     1      33.222 -19.858 -21.303  0.00  0.00    -0.004 C 
ATOM      4  C   UNL     1      33.848 -21.797 -19.396  0.00  0.00    +0.050 C 
ATOM      5  C   UNL     1      32.210 -20.436 -20.537  0.00  0.00    +0.001 C 
ATOM      6  C   UNL     1      32.522 -21.404 -19.584  0.00  0.00    +0.015 C 
ENDROOT
BRANCH   4   8
ATOM      7  O   UNL     1      32.225 -22.869 -17.106  0.00  0.00    -0.273 OA
ATOM      8  N   UNL     1      34.159 -22.768 -18.444  0.00  0.00    -0.283 N 
ATOM      9  C   UNL     1      33.362 -23.235 -17.387  0.00  0.00    +0.246 C 
ATOM     10  H   UNL     1      35.051 -23.177 -18.524  0.00  0.00    +0.155 HD
BRANCH   9  11
ATOM     11  C   UNL     1      34.090 -24.301 -16.587  0.00  0.00    +0.179 C 
BRANCH  11  13
ATOM     12  O   UNL     1      36.608 -25.287 -15.526  0.00  0.00    -0.226 OA
ATOM     13  N   UNL     1      34.920 -23.695 -15.587  0.00  0.00    -0.262 N 
ATOM     14  C   UNL     1      36.113 -24.235 -15.135  0.00  0.00    +0.402 C 
ATOM     15  H   UNL     1      34.623 -22.841 -15.196  0.00  0.00    +0.153 HD
BRANCH  14  16
ATOM     16  O   UNL     1      36.665 -23.423 -14.184  0.00  0.00    -0.442 OA
BRANCH  16  17
ATOM     17  C   UNL     1      36.839 -24.009 -12.890  0.00  0.00    +0.138 C 
ATOM     18  C   UNL     1      35.566 -24.772 -12.525  0.00  0.00    +0.044 C 
ATOM     19  C   UNL     1      37.085 -22.871 -11.900  0.00  0.00    +0.044 C 
ATOM     20  C   UNL     1      38.042 -24.949 -12.939  0.00  0.00    +0.044 C 
ENDBRANCH  16  17
ENDBRANCH  14  16
ENDBRANCH  11  13
ENDBRANCH   9  11
ENDBRANCH   4   8
BRANCH   1  21
ATOM     21  C   UNL     1      35.650 -19.623 -21.949  0.00  0.00    +0.054 C 
BRANCH  21  24
ATOM     22  O   UNL     1      34.324 -17.752 -24.961  0.00  0.00    -0.421 OA
ATOM     23  O   UNL     1      34.951 -19.911 -24.619  0.00  0.00    -0.245 OA
ATOM     24  C   UNL     1      35.126 -18.457 -22.743  0.00  0.00    +0.091 A 
ATOM     25  C   UNL     1      34.945 -17.207 -22.274  0.00  0.00    +0.139 A 
ATOM     26  C   UNL     1      34.804 -18.782 -24.163  0.00  0.00    +0.345 A 
ATOM     27  C   UNL     1      34.437 -16.144 -23.143  0.00  0.00    +0.068 A 
ATOM     28  C   UNL     1      34.141 -16.449 -24.467  0.00  0.00    +0.152 A 
ATOM     29  C   UNL     1      34.231 -14.825 -22.714  0.00  0.00    +0.006 C 
ATOM     30  C   UNL     1      33.653 -15.494 -25.361  0.00  0.00    +0.038 C 
ATOM     31  C   UNL     1      33.743 -13.856 -23.597  0.00  0.00    +0.000 C 
ATOM     32  C   UNL     1      33.456 -14.190 -24.919  0.00  0.00    +0.003 C 
BRANCH  25  33
ATOM     33  O   UNL     1      35.206 -16.811 -20.979  0.00  0.00    -0.506 OA
ATOM     34  H   UNL     1      35.702 -17.367 -20.410  0.00  0.00    +0.292 HD
ENDBRANCH  25  33
ENDBRANCH  21  24
BRANCH  21  35
ATOM     35  C   UNL     1      36.879 -19.186 -21.124  0.00  0.00    +0.009 C 
ATOM     36  C   UNL     1      38.049 -18.738 -21.993  0.00  0.00    +0.001 C 
ENDBRANCH  21  35
ENDBRANCH   1  21
TORSDOF 9
ENDMDL
MODEL 3
REMARK VINA RESULT:     -10.5      4.585     11.097
REMARK  Name = 54689025
REMARK  9 active torsions:
REMARK  status: ('A' for Active; 'I' for Inactive)
REMARK    1  A    between atoms: C_1  and  C_21
REMARK    2  A    between atoms: C_4  and  N_8
REMARK    3  A    between atoms: C_9  and  C_11
REMARK    4  A    between atoms: C_11  and  N_13
REMARK    5  A    between atoms: C_14  and  O_16
REMARK    6  A    between atoms: O_16  and  C_17
REMARK    7  A    between atoms: C_21  and  C_24
REMARK    8  A    between atoms: C_21  and  C_35
REMARK    9  A    between atoms: C_25  and  O_33
REMARK                            x       y       z     vdW  Elec       q    Type
REMARK                         _______ _______ _______ _____ _____    ______ ____
ROOT
ATOM      1  C   UNL     1      34.682 -20.336 -21.065  0.00  0.00    -0.017 C 
ATOM      2  C   UNL     1      35.060 -21.149 -19.997  0.00  0.00    +0.011 C 
ATOM      3  C   UNL     1      33.331 -20.096 -21.315  0.00  0.00    -0.004 C 
ATOM      4  C   UNL     1      34.087 -21.721 -19.178  0.00  0.00    +0.050 C 
ATOM      5  C   UNL     1      32.358 -20.669 -20.497  0.00  0.00    +0.001 C 
ATOM      6  C   UNL     1      32.736 -21.481 -19.428  0.00  0.00    +0.015 C 
ENDROOT
BRANCH   4   8
ATOM      7  O   UNL     1      36.497 -21.592 -17.387  0.00  0.00    -0.273 OA
ATOM      8  N   UNL     1      34.464 -22.536 -18.109  0.00  0.00    -0.283 N 
ATOM      9  C   UNL     1      35.607 -22.433 -17.300  0.00  0.00    +0.246 C 
ATOM     10  H   UNL     1      33.850 -23.275 -17.895  0.00  0.00    +0.155 HD
BRANCH   9  11
ATOM     11  C   UNL     1      35.627 -23.527 -16.248  0.00  0.00    +0.179 C 
BRANCH  11  13
ATOM     12  O   UNL     1      34.169 -24.002 -13.781  0.00  0.00    -0.226 OA
ATOM     13  N   UNL     1      34.321 -24.098 -16.095  0.00  0.00    -0.262 N 
ATOM     14  C   UNL     1      33.695 -24.291 -14.875  0.00  0.00    +0.402 C 
ATOM     15  H   UNL     1      33.839 -24.370 -16.909  0.00  0.00    +0.153 HD
BRANCH  14  16
ATOM     16  O   UNL     1      32.463 -24.852 -15.064  0.00  0.00    -0.442 OA
BRANCH  16  17
ATOM     17  C   UNL     1      31.359 -23.941 -15.083  0.00  0.00    +0.138 C 
ATOM     18  C   UNL     1      30.073 -24.729 -14.841  0.00  0.00    +0.044 C 
ATOM     19  C   UNL     1      31.333 -23.280 -16.461  0.00  0.00    +0.044 C 
ATOM     20  C   UNL     1      31.572 -22.895 -13.989  0.00  0.00    +0.044 C 
ENDBRANCH  16  17
ENDBRANCH  14  16
ENDBRANCH  11  13
ENDBRANCH   9  11
ENDBRANCH   4   8
BRANCH   1  21
ATOM     21  C   UNL     1      35.742 -19.713 -21.956  0.00  0.00    +0.054 C 
BRANCH  21  24
ATOM     22  O   UNL     1      34.315 -17.835 -24.918  0.00  0.00    -0.421 OA
ATOM     23  O   UNL     1      34.987 -19.987 -24.613  0.00  0.00    -0.245 OA
ATOM     24  C   UNL     1      35.180 -18.548 -22.726  0.00  0.00    +0.091 A 
ATOM     25  C   UNL     1      34.988 -17.307 -22.240  0.00  0.00    +0.139 A 
ATOM     26  C   UNL     1      34.830 -18.865 -24.141  0.00  0.00    +0.345 A 
ATOM     27  C   UNL     1      34.442 -16.244 -23.086  0.00  0.00    +0.068 A 
ATOM     28  C   UNL     1      34.120 -16.541 -24.406  0.00  0.00    +0.152 A 
ATOM     29  C   UNL     1      34.223 -14.933 -22.638  0.00  0.00    +0.006 C 
ATOM     30  C   UNL     1      33.596 -15.586 -25.279  0.00  0.00    +0.038 C 
ATOM     31  C   UNL     1      33.697 -13.964 -23.500  0.00  0.00    +0.000 C 
ATOM     32  C   UNL     1      33.386 -14.290 -24.819  0.00  0.00    +0.003 C 
BRANCH  25  33
ATOM     33  O   UNL     1      35.271 -16.920 -20.947  0.00  0.00    -0.506 OA
ATOM     34  H   UNL     1      36.021 -17.270 -20.507  0.00  0.00    +0.292 HD
ENDBRANCH  25  33
ENDBRANCH  21  24
BRANCH  21  35
ATOM     35  C   UNL     1      37.012 -19.277 -21.197  0.00  0.00    +0.009 C 
ATOM     36  C   UNL     1      38.087 -18.706 -22.116  0.00  0.00    +0.001 C 
ENDBRANCH  21  35
ENDBRANCH   1  21
TORSDOF 9
ENDMDL
MODEL 4
REMARK VINA RESULT:      -9.7      2.494     11.532
REMARK  Name = 54689025
REMARK  9 active torsions:
REMARK  status: ('A' for Active; 'I' for Inactive)
REMARK    1  A    between atoms: C_1  and  C_21
REMARK    2  A    between atoms: C_4  and  N_8
REMARK    3  A    between atoms: C_9  and  C_11
REMARK    4  A    between atoms: C_11  and  N_13
REMARK    5  A    between atoms: C_14  and  O_16
REMARK    6  A    between atoms: O_16  and  C_17
REMARK    7  A    between atoms: C_21  and  C_24
REMARK    8  A    between atoms: C_21  and  C_35
REMARK    9  A    between atoms: C_25  and  O_33
REMARK                            x       y       z     vdW  Elec       q    Type
REMARK                         _______ _______ _______ _____ _____    ______ ____
ROOT
ATOM      1  C   UNL     1      33.391 -10.260 -24.562  0.00  0.00    -0.017 C 
ATOM      2  C   UNL     1      33.335 -11.649 -24.455  0.00  0.00    +0.011 C 
ATOM      3  C   UNL     1      33.669  -9.666 -25.794  0.00  0.00    -0.004 C 
ATOM      4  C   UNL     1      33.557 -12.445 -25.579  0.00  0.00    +0.050 C 
ATOM      5  C   UNL     1      33.892 -10.461 -26.917  0.00  0.00    +0.001 C 
ATOM      6  C   UNL     1      33.835 -11.851 -26.810  0.00  0.00    +0.015 C 
ENDROOT
BRANCH   4   8
ATOM      7  O   UNL     1      34.815 -14.295 -23.574  0.00  0.00    -0.273 OA
ATOM      8  N   UNL     1      33.502 -13.835 -25.472  0.00  0.00    -0.283 N 
ATOM      9  C   UNL     1      34.111 -14.658 -24.511  0.00  0.00    +0.246 C 
ATOM     10  H   UNL     1      32.966 -14.298 -26.157  0.00  0.00    +0.155 HD
BRANCH   9  11
ATOM     11  C   UNL     1      33.790 -16.119 -24.765  0.00  0.00    +0.179 C 
BRANCH  11  13
ATOM     12  O   UNL     1      33.505 -18.929 -24.084  0.00  0.00    -0.226 OA
ATOM     13  N   UNL     1      34.739 -16.963 -24.098  0.00  0.00    -0.262 N 
ATOM     14  C   UNL     1      34.522 -18.300 -23.810  0.00  0.00    +0.402 C 
ATOM     15  H   UNL     1      35.599 -16.566 -23.828  0.00  0.00    +0.153 HD
BRANCH  14  16
ATOM     16  O   UNL     1      35.611 -18.825 -23.173  0.00  0.00    -0.442 OA
BRANCH  16  17
ATOM     17  C   UNL     1      35.596 -18.742 -21.743  0.00  0.00    +0.138 C 
ATOM     18  C   UNL     1      35.074 -17.364 -21.341  0.00  0.00    +0.044 C 
ATOM     19  C   UNL     1      37.032 -18.936 -21.257  0.00  0.00    +0.044 C 
ATOM     20  C   UNL     1      34.691 -19.848 -21.202  0.00  0.00    +0.044 C 
ENDBRANCH  16  17
ENDBRANCH  14  16
ENDBRANCH  11  13
ENDBRANCH   9  11
ENDBRANCH   4   8
BRANCH   1  21
ATOM     21  C   UNL     1      33.149  -9.394 -23.339  0.00  0.00    +0.054 C 
BRANCH  21  24
ATOM     22  O   UNL     1      34.243  -5.862 -24.154  0.00  0.00    -0.421 OA
ATOM     23  O   UNL     1      35.374  -7.754 -23.594  0.00  0.00    -0.245 OA
ATOM     24  C   UNL     1      33.005  -7.946 -23.725  0.00  0.00    +0.091 A 
ATOM     25  C   UNL     1      31.842  -7.315 -23.979  0.00  0.00    +0.139 A 
ATOM     26  C   UNL     1      34.297  -7.207 -23.812  0.00  0.00    +0.345 A 
ATOM     27  C   UNL     1      31.820  -5.895 -24.336  0.00  0.00    +0.068 A 
ATOM     28  C   UNL     1      33.027  -5.208 -24.413  0.00  0.00    +0.152 A 
ATOM     29  C   UNL     1      30.643  -5.184 -24.608  0.00  0.00    +0.006 C 
ATOM     30  C   UNL     1      33.093  -3.854 -24.747  0.00  0.00    +0.038 C 
ATOM     31  C   UNL     1      30.692  -3.826 -24.945  0.00  0.00    +0.000 C 
ATOM     32  C   UNL     1      31.915  -3.163 -25.013  0.00  0.00    +0.003 C 
BRANCH  25  33
ATOM     33  O   UNL     1      30.600  -7.913 -23.932  0.00  0.00    -0.506 OA
ATOM     34  H   UNL     1      30.520  -8.805 -23.658  0.00  0.00    +0.292 HD
ENDBRANCH  25  33
ENDBRANCH  21  24
BRANCH  21  35
ATOM     35  C   UNL     1      31.935  -9.836 -22.497  0.00  0.00    +0.009 C 
ATOM     36  C   UNL     1      31.993  -9.331 -21.059  0.00  0.00    +0.001 C 
ENDBRANCH  21  35
ENDBRANCH   1  21
TORSDOF 9
ENDMDL
MODEL 5
REMARK VINA RESULT:      -9.5      2.922      5.219
REMARK  Name = 54689025
REMARK  9 active torsions:
REMARK  status: ('A' for Active; 'I' for Inactive)
REMARK    1  A    between atoms: C_1  and  C_21
REMARK    2  A    between atoms: C_4  and  N_8
REMARK    3  A    between atoms: C_9  and  C_11
REMARK    4  A    between atoms: C_11  and  N_13
REMARK    5  A    between atoms: C_14  and  O_16
REMARK    6  A    between atoms: O_16  and  C_17
REMARK    7  A    between atoms: C_21  and  C_24
REMARK    8  A    between atoms: C_21  and  C_35
REMARK    9  A    between atoms: C_25  and  O_33
REMARK                            x       y       z     vdW  Elec       q    Type
REMARK                         _______ _______ _______ _____ _____    ______ ____
ROOT
ATOM      1  C   UNL     1      33.050 -12.808 -23.148  0.00  0.00    -0.017 C 
ATOM      2  C   UNL     1      32.856 -11.430 -23.063  0.00  0.00    +0.011 C 
ATOM      3  C   UNL     1      32.393 -13.661 -22.261  0.00  0.00    -0.004 C 
ATOM      4  C   UNL     1      32.004 -10.904 -22.092  0.00  0.00    +0.050 C 
ATOM      5  C   UNL     1      31.543 -13.135 -21.288  0.00  0.00    +0.001 C 
ATOM      6  C   UNL     1      31.348 -11.757 -21.205  0.00  0.00    +0.015 C 
ENDROOT
BRANCH   4   8
ATOM      7  O   UNL     1      32.414  -9.019 -19.788  0.00  0.00    -0.273 OA
ATOM      8  N   UNL     1      31.810  -9.524 -22.006  0.00  0.00    -0.283 N 
ATOM      9  C   UNL     1      32.017  -8.685 -20.900  0.00  0.00    +0.246 C 
ATOM     10  H   UNL     1      31.488  -9.084 -22.826  0.00  0.00    +0.155 HD
BRANCH   9  11
ATOM     11  C   UNL     1      31.683  -7.244 -21.242  0.00  0.00    +0.179 C 
BRANCH  11  13
ATOM     12  O   UNL     1      31.372  -6.064 -23.878  0.00  0.00    -0.226 OA
ATOM     13  N   UNL     1      32.702  -6.680 -22.077  0.00  0.00    -0.262 N 
ATOM     14  C   UNL     1      32.467  -6.134 -23.329  0.00  0.00    +0.402 C 
ATOM     15  H   UNL     1      33.627  -6.680 -21.741  0.00  0.00    +0.153 HD
BRANCH  14  16
ATOM     16  O   UNL     1      33.637  -5.681 -23.870  0.00  0.00    -0.442 OA
BRANCH  16  17
ATOM     17  C   UNL     1      34.346  -6.615 -24.692  0.00  0.00    +0.138 C 
ATOM     18  C   UNL     1      33.347  -7.628 -25.250  0.00  0.00    +0.044 C 
ATOM     19  C   UNL     1      35.381  -7.311 -23.809  0.00  0.00    +0.044 C 
ATOM     20  C   UNL     1      35.031  -5.847 -25.821  0.00  0.00    +0.044 C 
ENDBRANCH  16  17
ENDBRANCH  14  16
ENDBRANCH  11  13
ENDBRANCH   9  11
ENDBRANCH   4   8
BRANCH   1  21
ATOM     21  C   UNL     1      33.976 -13.381 -24.206  0.00  0.00    +0.054 C 
BRANCH  21  24
ATOM     22  O   UNL     1      33.963 -17.069 -25.060  0.00  0.00    -0.421 OA
ATOM     23  O   UNL     1      33.390 -15.198 -26.220  0.00  0.00    -0.245 OA
ATOM     24  C   UNL     1      34.180 -14.858 -24.000  0.00  0.00    +0.091 A 
ATOM     25  C   UNL     1      34.646 -15.435 -22.876  0.00  0.00    +0.139 A 
ATOM     26  C   UNL     1      33.811 -15.694 -25.179  0.00  0.00    +0.345 A 
ATOM     27  C   UNL     1      34.794 -16.889 -22.784  0.00  0.00    +0.068 A 
ATOM     28  C   UNL     1      34.447 -17.666 -23.883  0.00  0.00    +0.152 A 
ATOM     29  C   UNL     1      35.270 -17.547 -21.641  0.00  0.00    +0.006 C 
ATOM     30  C   UNL     1      34.557 -19.058 -23.877  0.00  0.00    +0.038 C 
ATOM     31  C   UNL     1      35.388 -18.942 -21.618  0.00  0.00    +0.000 C 
ATOM     32  C   UNL     1      35.030 -19.695 -22.735  0.00  0.00    +0.003 C 
BRANCH  25  33
ATOM     33  O   UNL     1      35.019 -14.749 -21.740  0.00  0.00    -0.506 OA
ATOM     34  H   UNL     1      35.904 -14.790 -21.437  0.00  0.00    +0.292 HD
ENDBRANCH  25  33
ENDBRANCH  21  24
BRANCH  21  35
ATOM     35  C   UNL     1      33.507 -13.112 -25.651  0.00  0.00    +0.009 C 
ATOM     36  C   UNL     1      34.033 -11.796 -26.212  0.00  0.00    +0.001 C 
ENDBRANCH  21  35
ENDBRANCH   1  21
TORSDOF 9
ENDMDL
MODEL 6
REMARK VINA RESULT:      -9.5      0.618      1.945
REMARK  Name = 54689025
REMARK  9 active torsions:
REMARK  status: ('A' for Active; 'I' for Inactive)
REMARK    1  A    between atoms: C_1  and  C_21
REMARK    2  A    between atoms: C_4  and  N_8
REMARK    3  A    between atoms: C_9  and  C_11
REMARK    4  A    between atoms: C_11  and  N_13
REMARK    5  A    between atoms: C_14  and  O_16
REMARK    6  A    between atoms: O_16  and  C_17
REMARK    7  A    between atoms: C_21  and  C_24
REMARK    8  A    between atoms: C_21  and  C_35
REMARK    9  A    between atoms: C_25  and  O_33
REMARK                            x       y       z     vdW  Elec       q    Type
REMARK                         _______ _______ _______ _____ _____    ______ ____
ROOT
ATOM      1  C   UNL     1      35.011 -16.725 -22.649  0.00  0.00    -0.017 C 
ATOM      2  C   UNL     1      34.926 -15.667 -23.554  0.00  0.00    +0.011 C 
ATOM      3  C   UNL     1      34.651 -16.532 -21.315  0.00  0.00    -0.004 C 
ATOM      4  C   UNL     1      34.480 -14.417 -23.125  0.00  0.00    +0.050 C 
ATOM      5  C   UNL     1      34.207 -15.282 -20.886  0.00  0.00    +0.001 C 
ATOM      6  C   UNL     1      34.120 -14.224 -21.791  0.00  0.00    +0.015 C 
ENDROOT
BRANCH   4   8
ATOM      7  O   UNL     1      32.863 -14.131 -25.642  0.00  0.00    -0.273 OA
ATOM      8  N   UNL     1      34.395 -13.358 -24.030  0.00  0.00    -0.283 N 
ATOM      9  C   UNL     1      33.620 -13.273 -25.198  0.00  0.00    +0.246 C 
ATOM     10  H   UNL     1      34.947 -12.569 -23.822  0.00  0.00    +0.155 HD
BRANCH   9  11
ATOM     11  C   UNL     1      33.826 -11.938 -25.890  0.00  0.00    +0.179 C 
BRANCH  11  13
ATOM     12  O   UNL     1      35.430  -9.543 -26.255  0.00  0.00    -0.226 OA
ATOM     13  N   UNL     1      34.108 -10.914 -24.927  0.00  0.00    -0.262 N 
ATOM     14  C   UNL     1      34.887  -9.798 -25.185  0.00  0.00    +0.402 C 
ATOM     15  H   UNL     1      33.724 -11.010 -24.025  0.00  0.00    +0.153 HD
BRANCH  14  16
ATOM     16  O   UNL     1      34.967  -9.014 -24.068  0.00  0.00    -0.442 OA
BRANCH  16  17
ATOM     17  C   UNL     1      34.214  -7.796 -24.107  0.00  0.00    +0.138 C 
ATOM     18  C   UNL     1      32.993  -8.007 -25.000  0.00  0.00    +0.044 C 
ATOM     19  C   UNL     1      35.122  -6.713 -24.685  0.00  0.00    +0.044 C 
ATOM     20  C   UNL     1      33.792  -7.440 -22.682  0.00  0.00    +0.044 C 
ENDBRANCH  16  17
ENDBRANCH  14  16
ENDBRANCH  11  13
ENDBRANCH   9  11
ENDBRANCH   4   8
BRANCH   1  21
ATOM     21  C   UNL     1      35.495 -18.086 -23.115  0.00  0.00    +0.054 C 
BRANCH  21  24
ATOM     22  O   UNL     1      33.676 -20.699 -21.068  0.00  0.00    -0.421 OA
ATOM     23  O   UNL     1      33.075 -19.418 -22.849  0.00  0.00    -0.245 OA
ATOM     24  C   UNL     1      35.296 -19.124 -22.044  0.00  0.00    +0.091 A 
ATOM     25  C   UNL     1      36.220 -19.505 -21.141  0.00  0.00    +0.139 A 
ATOM     26  C   UNL     1      33.937 -19.738 -22.036  0.00  0.00    +0.345 A 
ATOM     27  C   UNL     1      35.912 -20.522 -20.133  0.00  0.00    +0.068 A 
ATOM     28  C   UNL     1      34.642 -21.091 -20.126  0.00  0.00    +0.152 A 
ATOM     29  C   UNL     1      36.829 -20.957 -19.167  0.00  0.00    +0.006 C 
ATOM     30  C   UNL     1      34.267 -22.065 -19.199  0.00  0.00    +0.038 C 
ATOM     31  C   UNL     1      36.469 -21.933 -18.230  0.00  0.00    +0.000 C 
ATOM     32  C   UNL     1      35.189 -22.485 -18.247  0.00  0.00    +0.003 C 
BRANCH  25  33
ATOM     33  O   UNL     1      37.502 -19.003 -21.073  0.00  0.00    -0.506 OA
ATOM     34  H   UNL     1      38.192 -19.410 -21.558  0.00  0.00    +0.292 HD
ENDBRANCH  25  33
ENDBRANCH  21  24
BRANCH  21  35
ATOM     35  C   UNL     1      34.843 -18.558 -24.431  0.00  0.00    +0.009 C 
ATOM     36  C   UNL     1      34.073 -17.451 -25.143  0.00  0.00    +0.001 C 
ENDBRANCH  21  35
ENDBRANCH   1  21
TORSDOF 9
ENDMDL
MODEL 7
REMARK VINA RESULT:      -9.4      4.431     11.492
REMARK  Name = 54689025
REMARK  9 active torsions:
REMARK  status: ('A' for Active; 'I' for Inactive)
REMARK    1  A    between atoms: C_1  and  C_21
REMARK    2  A    between atoms: C_4  and  N_8
REMARK    3  A    between atoms: C_9  and  C_11
REMARK    4  A    between atoms: C_11  and  N_13
REMARK    5  A    between atoms: C_14  and  O_16
REMARK    6  A    between atoms: O_16  and  C_17
REMARK    7  A    between atoms: C_21  and  C_24
REMARK    8  A    between atoms: C_21  and  C_35
REMARK    9  A    between atoms: C_25  and  O_33
REMARK                            x       y       z     vdW  Elec       q    Type
REMARK                         _______ _______ _______ _____ _____    ______ ____
ROOT
ATOM      1  C   UNL     1      34.517 -20.020 -21.299  0.00  0.00    -0.017 C 
ATOM      2  C   UNL     1      34.868 -20.831 -20.220  0.00  0.00    +0.011 C 
ATOM      3  C   UNL     1      33.174 -19.855 -21.640  0.00  0.00    -0.004 C 
ATOM      4  C   UNL     1      33.877 -21.476 -19.480  0.00  0.00    +0.050 C 
ATOM      5  C   UNL     1      32.183 -20.501 -20.901  0.00  0.00    +0.001 C 
ATOM      6  C   UNL     1      32.535 -21.310 -19.821  0.00  0.00    +0.015 C 
ENDROOT
BRANCH   4   8
ATOM      7  O   UNL     1      36.425 -21.611 -17.893  0.00  0.00    -0.273 OA
ATOM      8  N   UNL     1      34.228 -22.287 -18.401  0.00  0.00    -0.283 N 
ATOM      9  C   UNL     1      35.439 -22.312 -17.690  0.00  0.00    +0.246 C 
ATOM     10  H   UNL     1      33.539 -22.922 -18.099  0.00  0.00    +0.155 HD
BRANCH   9  11
ATOM     11  C   UNL     1      35.397 -23.351 -16.583  0.00  0.00    +0.179 C 
BRANCH  11  13
ATOM     12  O   UNL     1      36.521 -23.264 -13.906  0.00  0.00    -0.226 OA
ATOM     13  N   UNL     1      36.727 -23.701 -16.177  0.00  0.00    -0.262 N 
ATOM     14  C   UNL     1      37.184 -23.630 -14.871  0.00  0.00    +0.402 C 
ATOM     15  H   UNL     1      37.355 -24.011 -16.869  0.00  0.00    +0.153 HD
BRANCH  14  16
ATOM     16  O   UNL     1      38.490 -24.029 -14.809  0.00  0.00    -0.442 OA
BRANCH  16  17
ATOM     17  C   UNL     1      38.711 -25.369 -14.353  0.00  0.00    +0.138 C 
ATOM     18  C   UNL     1      37.682 -26.284 -15.015  0.00  0.00    +0.044 C 
ATOM     19  C   UNL     1      38.535 -25.371 -12.835  0.00  0.00    +0.044 C 
ATOM     20  C   UNL     1      40.132 -25.782 -14.731  0.00  0.00    +0.044 C 
ENDBRANCH  16  17
ENDBRANCH  14  16
ENDBRANCH  11  13
ENDBRANCH   9  11
ENDBRANCH   4   8
BRANCH   1  21
ATOM     21  C   UNL     1      35.596 -19.318 -22.104  0.00  0.00    +0.054 C 
BRANCH  21  24
ATOM     22  O   UNL     1      34.675 -15.656 -21.827  0.00  0.00    -0.421 OA
ATOM     23  O   UNL     1      35.449 -17.187 -20.333  0.00  0.00    -0.245 OA
ATOM     24  C   UNL     1      35.129 -17.962 -22.561  0.00  0.00    +0.091 A 
ATOM     25  C   UNL     1      34.751 -17.644 -23.813  0.00  0.00    +0.139 A 
ATOM     26  C   UNL     1      35.105 -16.931 -21.483  0.00  0.00    +0.345 A 
ATOM     27  C   UNL     1      34.303 -16.290 -24.143  0.00  0.00    +0.068 A 
ATOM     28  C   UNL     1      34.278 -15.332 -23.135  0.00  0.00    +0.152 A 
ATOM     29  C   UNL     1      33.895 -15.900 -25.427  0.00  0.00    +0.006 C 
ATOM     30  C   UNL     1      33.864 -14.018 -23.365  0.00  0.00    +0.038 C 
ATOM     31  C   UNL     1      33.478 -14.587 -25.674  0.00  0.00    +0.000 C 
ATOM     32  C   UNL     1      33.461 -13.649 -24.644  0.00  0.00    +0.003 C 
BRANCH  25  33
ATOM     33  O   UNL     1      34.746 -18.523 -24.877  0.00  0.00    -0.506 OA
ATOM     34  H   UNL     1      35.391 -18.445 -25.552  0.00  0.00    +0.292 HD
ENDBRANCH  25  33
ENDBRANCH  21  24
BRANCH  21  35
ATOM     35  C   UNL     1      36.939 -19.187 -21.357  0.00  0.00    +0.009 C 
ATOM     36  C   UNL     1      38.072 -18.695 -22.253  0.00  0.00    +0.001 C 
ENDBRANCH  21  35
ENDBRANCH   1  21
TORSDOF 9
ENDMDL
MODEL 8
REMARK VINA RESULT:      -9.2      2.166     11.066
REMARK  Name = 54689025
REMARK  9 active torsions:
REMARK  status: ('A' for Active; 'I' for Inactive)
REMARK    1  A    between atoms: C_1  and  C_21
REMARK    2  A    between atoms: C_4  and  N_8
REMARK    3  A    between atoms: C_9  and  C_11
REMARK    4  A    between atoms: C_11  and  N_13
REMARK    5  A    between atoms: C_14  and  O_16
REMARK    6  A    between atoms: O_16  and  C_17
REMARK    7  A    between atoms: C_21  and  C_24
REMARK    8  A    between atoms: C_21  and  C_35
REMARK    9  A    between atoms: C_25  and  O_33
REMARK                            x       y       z     vdW  Elec       q    Type
REMARK                         _______ _______ _______ _____ _____    ______ ____
ROOT
ATOM      1  C   UNL     1      33.463 -11.266 -24.639  0.00  0.00    -0.017 C 
ATOM      2  C   UNL     1      34.089 -12.511 -24.688  0.00  0.00    +0.011 C 
ATOM      3  C   UNL     1      32.585 -10.966 -23.598  0.00  0.00    -0.004 C 
ATOM      4  C   UNL     1      33.838 -13.457 -23.694  0.00  0.00    +0.050 C 
ATOM      5  C   UNL     1      32.333 -11.913 -22.605  0.00  0.00    +0.001 C 
ATOM      6  C   UNL     1      32.960 -13.157 -22.652  0.00  0.00    +0.015 C 
ENDROOT
BRANCH   4   8
ATOM      7  O   UNL     1      33.536 -15.713 -25.655  0.00  0.00    -0.273 OA
ATOM      8  N   UNL     1      34.464 -14.703 -23.742  0.00  0.00    -0.283 N 
ATOM      9  C   UNL     1      34.286 -15.729 -24.685  0.00  0.00    +0.246 C 
ATOM     10  H   UNL     1      35.113 -14.886 -23.025  0.00  0.00    +0.155 HD
BRANCH   9  11
ATOM     11  C   UNL     1      35.169 -16.921 -24.363  0.00  0.00    +0.179 C 
BRANCH  11  13
ATOM     12  O   UNL     1      36.826 -18.187 -22.340  0.00  0.00    -0.226 OA
ATOM     13  N   UNL     1      34.745 -17.542 -23.142  0.00  0.00    -0.262 N 
ATOM     14  C   UNL     1      35.605 -18.125 -22.227  0.00  0.00    +0.402 C 
ATOM     15  H   UNL     1      33.781 -17.554 -22.941  0.00  0.00    +0.153 HD
BRANCH  14  16
ATOM     16  O   UNL     1      34.897 -18.627 -21.171  0.00  0.00    -0.442 OA
BRANCH  16  17
ATOM     17  C   UNL     1      34.608 -20.028 -21.224  0.00  0.00    +0.138 C 
ATOM     18  C   UNL     1      35.609 -20.766 -20.336  0.00  0.00    +0.044 C 
ATOM     19  C   UNL     1      34.752 -20.472 -22.679  0.00  0.00    +0.044 C 
ATOM     20  C   UNL     1      33.178 -20.249 -20.734  0.00  0.00    +0.044 C 
ENDBRANCH  16  17
ENDBRANCH  14  16
ENDBRANCH  11  13
ENDBRANCH   9  11
ENDBRANCH   4   8
BRANCH   1  21
ATOM     21  C   UNL     1      33.737 -10.236 -25.721  0.00  0.00    +0.054 C 
BRANCH  21  24
ATOM     22  O   UNL     1      34.304  -7.038 -23.776  0.00  0.00    -0.421 OA
ATOM     23  O   UNL     1      35.487  -8.970 -23.978  0.00  0.00    -0.245 OA
ATOM     24  C   UNL     1      33.460  -8.844 -25.220  0.00  0.00    +0.091 A 
ATOM     25  C   UNL     1      32.389  -8.093 -25.544  0.00  0.00    +0.139 A 
ATOM     26  C   UNL     1      34.497  -8.314 -24.288  0.00  0.00    +0.345 A 
ATOM     27  C   UNL     1      32.216  -6.750 -24.986  0.00  0.00    +0.068 A 
ATOM     28  C   UNL     1      33.183  -6.260 -24.115  0.00  0.00    +0.152 A 
ATOM     29  C   UNL     1      31.123  -5.924 -25.283  0.00  0.00    +0.006 C 
ATOM     30  C   UNL     1      33.093  -4.992 -23.539  0.00  0.00    +0.038 C 
ATOM     31  C   UNL     1      31.018  -4.649 -24.715  0.00  0.00    +0.000 C 
ATOM     32  C   UNL     1      32.002  -4.185 -23.843  0.00  0.00    +0.003 C 
BRANCH  25  33
ATOM     33  O   UNL     1      31.384  -8.491 -26.400  0.00  0.00    -0.506 OA
ATOM     34  H   UNL     1      31.323  -8.117 -27.257  0.00  0.00    +0.292 HD
ENDBRANCH  25  33
ENDBRANCH  21  24
BRANCH  21  35
ATOM     35  C   UNL     1      35.164 -10.311 -26.300  0.00  0.00    +0.009 C 
ATOM     36  C   UNL     1      35.212 -10.956 -27.681  0.00  0.00    +0.001 C 
ENDBRANCH  21  35
ENDBRANCH   1  21
TORSDOF 9
ENDMDL
MODEL 9
REMARK VINA RESULT:      -9.0      2.685     12.192
REMARK  Name = 54689025
REMARK  9 active torsions:
REMARK  status: ('A' for Active; 'I' for Inactive)
REMARK    1  A    between atoms: C_1  and  C_21
REMARK    2  A    between atoms: C_4  and  N_8
REMARK    3  A    between atoms: C_9  and  C_11
REMARK    4  A    between atoms: C_11  and  N_13
REMARK    5  A    between atoms: C_14  and  O_16
REMARK    6  A    between atoms: O_16  and  C_17
REMARK    7  A    between atoms: C_21  and  C_24
REMARK    8  A    between atoms: C_21  and  C_35
REMARK    9  A    between atoms: C_25  and  O_33
REMARK                            x       y       z     vdW  Elec       q    Type
REMARK                         _______ _______ _______ _____ _____    ______ ____
ROOT
ATOM      1  C   UNL     1      33.196  -9.292 -24.600  0.00  0.00    -0.017 C 
ATOM      2  C   UNL     1      33.718 -10.424 -23.974  0.00  0.00    +0.011 C 
ATOM      3  C   UNL     1      32.914  -9.318 -25.966  0.00  0.00    -0.004 C 
ATOM      4  C   UNL     1      33.959 -11.581 -24.714  0.00  0.00    +0.050 C 
ATOM      5  C   UNL     1      33.156 -10.475 -26.706  0.00  0.00    +0.001 C 
ATOM      6  C   UNL     1      33.677 -11.607 -26.080  0.00  0.00    +0.015 C 
ENDROOT
BRANCH   4   8
ATOM      7  O   UNL     1      32.569 -13.885 -23.377  0.00  0.00    -0.273 OA
ATOM      8  N   UNL     1      34.482 -12.714 -24.088  0.00  0.00    -0.283 N 
ATOM      9  C   UNL     1      33.786 -13.767 -23.474  0.00  0.00    +0.246 C 
ATOM     10  H   UNL     1      35.464 -12.783 -24.077  0.00  0.00    +0.155 HD
BRANCH   9  11
ATOM     11  C   UNL     1      34.747 -14.802 -22.918  0.00  0.00    +0.179 C 
BRANCH  11  13
ATOM     12  O   UNL     1      35.032 -16.398 -25.328  0.00  0.00    -0.226 OA
ATOM     13  N   UNL     1      34.251 -16.125 -23.159  0.00  0.00    -0.262 N 
ATOM     14  C   UNL     1      34.432 -16.819 -24.344  0.00  0.00    +0.402 C 
ATOM     15  H   UNL     1      33.751 -16.569 -22.436  0.00  0.00    +0.153 HD
BRANCH  14  16
ATOM     16  O   UNL     1      33.844 -18.050 -24.261  0.00  0.00    -0.442 OA
BRANCH  16  17
ATOM     17  C   UNL     1      34.636 -19.081 -23.662  0.00  0.00    +0.138 C 
ATOM     18  C   UNL     1      34.877 -20.176 -24.700  0.00  0.00    +0.044 C 
ATOM     19  C   UNL     1      33.851 -19.631 -22.472  0.00  0.00    +0.044 C 
ATOM     20  C   UNL     1      35.958 -18.470 -23.197  0.00  0.00    +0.044 C 
ENDBRANCH  16  17
ENDBRANCH  14  16
ENDBRANCH  11  13
ENDBRANCH   9  11
ENDBRANCH   4   8
BRANCH   1  21
ATOM     21  C   UNL     1      32.933  -8.032 -23.795  0.00  0.00    +0.054 C 
BRANCH  21  24
ATOM     22  O   UNL     1      34.946  -5.299 -25.471  0.00  0.00    -0.421 OA
ATOM     23  O   UNL     1      35.514  -7.092 -24.192  0.00  0.00    -0.245 OA
ATOM     24  C   UNL     1      33.190  -6.802 -24.622  0.00  0.00    +0.091 A 
ATOM     25  C   UNL     1      32.249  -6.057 -25.233  0.00  0.00    +0.139 A 
ATOM     26  C   UNL     1      34.631  -6.431 -24.730  0.00  0.00    +0.345 A 
ATOM     27  C   UNL     1      32.615  -4.869 -26.007  0.00  0.00    +0.068 A 
ATOM     28  C   UNL     1      33.959  -4.523 -26.103  0.00  0.00    +0.152 A 
ATOM     29  C   UNL     1      31.681  -4.053 -26.661  0.00  0.00    +0.006 C 
ATOM     30  C   UNL     1      34.392  -3.407 -26.820  0.00  0.00    +0.038 C 
ATOM     31  C   UNL     1      32.098  -2.930 -27.385  0.00  0.00    +0.000 C 
ATOM     32  C   UNL     1      33.452  -2.608 -27.463  0.00  0.00    +0.003 C 
BRANCH  25  33
ATOM     33  O   UNL     1      30.896  -6.322 -25.198  0.00  0.00    -0.506 OA
ATOM     34  H   UNL     1      30.380  -6.228 -25.973  0.00  0.00    +0.292 HD
ENDBRANCH  25  33
ENDBRANCH  21  24
BRANCH  21  35
ATOM     35  C   UNL     1      31.517  -7.969 -23.187  0.00  0.00    +0.009 C 
ATOM     36  C   UNL     1      31.501  -8.242 -21.686  0.00  0.00    +0.001 C 
ENDBRANCH  21  35
ENDBRANCH   1  21
TORSDOF 9
ENDMDL
