MODEL 1
REMARK VINA RESULT:     -11.8      0.000      0.000
REMARK  Name = 16363
REMARK  6 active torsions:
REMARK  status: ('A' for Active; 'I' for Inactive)
REMARK    1  A    between atoms: N_1  and  C_19
REMARK    2  A    between atoms: C_2  and  N_9
REMARK    3  A    between atoms: C_19  and  C_20
REMARK    4  A    between atoms: C_20  and  C_21
REMARK    5  A    between atoms: C_21  and  C_23
REMARK    6  A    between atoms: C_23  and  C_25
REMARK                            x       y       z     vdW  Elec       q    Type
REMARK                         _______ _______ _______ _____ _____    ______ ____
ROOT
ATOM      1  N   UNL     1      34.691 -16.023 -24.572  0.00  0.00    +0.387 N 
ATOM      2  C   UNL     1      33.172 -13.715 -23.609  0.00  0.00    +0.086 C 
ATOM      3  C   UNL     1      34.428 -14.221 -22.898  0.00  0.00    -0.000 C 
ATOM      4  C   UNL     1      33.206 -14.112 -25.084  0.00  0.00    -0.000 C 
ATOM      5  C   UNL     1      34.636 -15.718 -23.135  0.00  0.00    -0.075 C 
ATOM      6  C   UNL     1      33.454 -15.613 -25.251  0.00  0.00    -0.075 C 
ATOM      7  H   UNL     1      35.462 -15.492 -24.977  0.00  0.00    -0.080 HD
ENDROOT
BRANCH   2   9
ATOM      8  O   UNL     1      34.361 -11.497 -25.272  0.00  0.00    -0.247 OA
ATOM      9  N   UNL     1      33.034 -12.288 -23.464  0.00  0.00    -0.282 N 
ATOM     10  N   UNL     1      33.224 -10.052 -23.785  0.00  0.00    -0.305 N 
ATOM     11  C   UNL     1      32.282 -11.640 -22.474  0.00  0.00    +0.079 A 
ATOM     12  C   UNL     1      33.637 -11.312 -24.304  0.00  0.00    +0.328 A 
ATOM     13  C   UNL     1      32.404 -10.268 -22.678  0.00  0.00    +0.076 A 
ATOM     14  C   UNL     1      31.525 -12.152 -21.442  0.00  0.00    +0.019 C 
ATOM     15  C   UNL     1      31.781  -9.343 -21.869  0.00  0.00    +0.019 C 
ATOM     16  C   UNL     1      30.882 -11.233 -20.606  0.00  0.00    +0.002 C 
ATOM     17  C   UNL     1      31.009  -9.844 -20.817  0.00  0.00    +0.002 C 
ATOM     18  H   UNL     1      33.475  -9.172 -24.150  0.00  0.00    +0.170 HD
ENDBRANCH   2   9
BRANCH   1  19
ATOM     19  C   UNL     1      34.941 -17.449 -24.782  0.00  0.00    -0.077 C 
BRANCH  19  20
ATOM     20  C   UNL     1      34.174 -18.278 -23.750  0.00  0.00    -0.015 C 
BRANCH  20  21
ATOM     21  C   UNL     1      35.019 -19.420 -23.179  0.00  0.00    +0.067 C 
BRANCH  21  23
ATOM     22  O   UNL     1      35.887 -18.386 -21.179  0.00  0.00    -0.291 OA
ATOM     23  C   UNL     1      35.250 -19.311 -21.679  0.00  0.00    +0.173 C 
BRANCH  23  25
ATOM     24  F   UNL     1      33.061 -23.213 -18.340  0.00  0.00    -0.204 F 
ATOM     25  C   UNL     1      34.665 -20.353 -20.788  0.00  0.00    +0.035 C 
ATOM     26  C   UNL     1      35.518 -21.192 -20.105  0.00  0.00    +0.005 C 
ATOM     27  C   UNL     1      33.295 -20.438 -20.680  0.00  0.00    +0.005 C 
ATOM     28  C   UNL     1      34.971 -22.166 -19.271  0.00  0.00    +0.030 C 
ATOM     29  C   UNL     1      32.749 -21.413 -19.846  0.00  0.00    +0.030 C 
ATOM     30  C   UNL     1      33.586 -22.277 -19.141  0.00  0.00    +0.140 C 
ENDBRANCH  23  25
ENDBRANCH  21  23
ENDBRANCH  20  21
ENDBRANCH  19  20
ENDBRANCH   1  19
TORSDOF 6
ENDMDL
MODEL 2
REMARK VINA RESULT:     -11.7      1.354      2.522
REMARK  Name = 16363
REMARK  6 active torsions:
REMARK  status: ('A' for Active; 'I' for Inactive)
REMARK    1  A    between atoms: N_1  and  C_19
REMARK    2  A    between atoms: C_2  and  N_9
REMARK    3  A    between atoms: C_19  and  C_20
REMARK    4  A    between atoms: C_20  and  C_21
REMARK    5  A    between atoms: C_21  and  C_23
REMARK    6  A    between atoms: C_23  and  C_25
REMARK                            x       y       z     vdW  Elec       q    Type
REMARK                         _______ _______ _______ _____ _____    ______ ____
ROOT
ATOM      1  N   UNL     1      34.001 -16.156 -24.351  0.00  0.00    +0.387 N 
ATOM      2  C   UNL     1      33.947 -13.243 -24.076  0.00  0.00    +0.086 C 
ATOM      3  C   UNL     1      33.104 -13.982 -25.115  0.00  0.00    -0.000 C 
ATOM      4  C   UNL     1      34.264 -14.169 -22.901  0.00  0.00    -0.000 C 
ATOM      5  C   UNL     1      33.756 -15.304 -25.523  0.00  0.00    -0.075 C 
ATOM      6  C   UNL     1      34.878 -15.486 -23.380  0.00  0.00    -0.075 C 
ATOM      7  H   UNL     1      33.105 -16.331 -23.896  0.00  0.00    -0.080 HD
ENDROOT
BRANCH   2   9
ATOM      8  O   UNL     1      31.751 -12.929 -22.033  0.00  0.00    -0.247 OA
ATOM      9  N   UNL     1      33.283 -12.047 -23.623  0.00  0.00    -0.282 N 
ATOM     10  N   UNL     1      31.906 -10.621 -22.525  0.00  0.00    -0.305 N 
ATOM     11  C   UNL     1      33.553 -10.748 -24.073  0.00  0.00    +0.079 A 
ATOM     12  C   UNL     1      32.251 -11.997 -22.647  0.00  0.00    +0.328 A 
ATOM     13  C   UNL     1      32.703  -9.878 -23.395  0.00  0.00    +0.076 A 
ATOM     14  C   UNL     1      34.461 -10.290 -25.005  0.00  0.00    +0.019 C 
ATOM     15  C   UNL     1      32.715  -8.517 -23.609  0.00  0.00    +0.019 C 
ATOM     16  C   UNL     1      34.492  -8.911 -25.240  0.00  0.00    +0.002 C 
ATOM     17  C   UNL     1      33.628  -8.035 -24.550  0.00  0.00    +0.002 C 
ATOM     18  H   UNL     1      31.217 -10.255 -21.925  0.00  0.00    +0.170 HD
ENDBRANCH   2   9
BRANCH   1  19
ATOM     19  C   UNL     1      34.577 -17.437 -24.760  0.00  0.00    -0.077 C 
BRANCH  19  20
ATOM     20  C   UNL     1      33.919 -18.583 -23.990  0.00  0.00    -0.015 C 
BRANCH  20  21
ATOM     21  C   UNL     1      34.940 -19.438 -23.236  0.00  0.00    +0.067 C 
BRANCH  21  23
ATOM     22  O   UNL     1      35.274 -18.105 -21.252  0.00  0.00    -0.291 OA
ATOM     23  C   UNL     1      34.948 -19.188 -21.734  0.00  0.00    +0.173 C 
BRANCH  23  25
ATOM     24  F   UNL     1      33.360 -23.316 -18.327  0.00  0.00    -0.204 F 
ATOM     25  C   UNL     1      34.524 -20.290 -20.824  0.00  0.00    +0.035 C 
ATOM     26  C   UNL     1      33.179 -20.485 -20.606  0.00  0.00    +0.005 C 
ATOM     27  C   UNL     1      35.493 -21.071 -20.236  0.00  0.00    +0.005 C 
ATOM     28  C   UNL     1      32.782 -21.517 -19.755  0.00  0.00    +0.030 C 
ATOM     29  C   UNL     1      35.096 -22.102 -19.386  0.00  0.00    +0.030 C 
ATOM     30  C   UNL     1      33.742 -22.326 -19.145  0.00  0.00    +0.140 C 
ENDBRANCH  23  25
ENDBRANCH  21  23
ENDBRANCH  20  21
ENDBRANCH  19  20
ENDBRANCH   1  19
TORSDOF 6
ENDMDL
MODEL 3
REMARK VINA RESULT:     -11.1      4.031      9.762
REMARK  Name = 16363
REMARK  6 active torsions:
REMARK  status: ('A' for Active; 'I' for Inactive)
REMARK    1  A    between atoms: N_1  and  C_19
REMARK    2  A    between atoms: C_2  and  N_9
REMARK    3  A    between atoms: C_19  and  C_20
REMARK    4  A    between atoms: C_20  and  C_21
REMARK    5  A    between atoms: C_21  and  C_23
REMARK    6  A    between atoms: C_23  and  C_25
REMARK                            x       y       z     vdW  Elec       q    Type
REMARK                         _______ _______ _______ _____ _____    ______ ____
ROOT
ATOM      1  N   UNL     1      34.726 -16.561 -24.541  0.00  0.00    +0.387 N 
ATOM      2  C   UNL     1      34.591 -18.449 -22.310  0.00  0.00    +0.086 C 
ATOM      3  C   UNL     1      34.706 -18.908 -23.764  0.00  0.00    -0.000 C 
ATOM      4  C   UNL     1      35.168 -17.042 -22.155  0.00  0.00    -0.000 C 
ATOM      5  C   UNL     1      34.103 -17.879 -24.722  0.00  0.00    -0.075 C 
ATOM      6  C   UNL     1      34.551 -16.073 -23.166  0.00  0.00    -0.075 C 
ATOM      7  H   UNL     1      35.726 -16.659 -24.714  0.00  0.00    -0.080 HD
ENDROOT
BRANCH   2   9
ATOM      8  O   UNL     1      37.523 -18.733 -21.663  0.00  0.00    -0.247 OA
ATOM      9  N   UNL     1      35.246 -19.373 -21.420  0.00  0.00    -0.282 N 
ATOM     10  N   UNL     1      36.826 -20.488 -20.238  0.00  0.00    -0.305 N 
ATOM     11  C   UNL     1      34.604 -20.357 -20.654  0.00  0.00    +0.079 A 
ATOM     12  C   UNL     1      36.645 -19.432 -21.177  0.00  0.00    +0.328 A 
ATOM     13  C   UNL     1      35.582 -21.037 -19.931  0.00  0.00    +0.076 A 
ATOM     14  C   UNL     1      33.270 -20.687 -20.550  0.00  0.00    +0.019 C 
ATOM     15  C   UNL     1      35.280 -22.073 -19.075  0.00  0.00    +0.019 C 
ATOM     16  C   UNL     1      32.937 -21.736 -19.686  0.00  0.00    +0.002 C 
ATOM     17  C   UNL     1      33.932 -22.421 -18.957  0.00  0.00    +0.002 C 
ATOM     18  H   UNL     1      37.690 -20.781 -19.866  0.00  0.00    +0.170 HD
ENDBRANCH   2   9
BRANCH   1  19
ATOM     19  C   UNL     1      34.176 -15.600 -25.498  0.00  0.00    -0.077 C 
BRANCH  19  20
ATOM     20  C   UNL     1      33.815 -14.294 -24.787  0.00  0.00    -0.015 C 
BRANCH  20  21
ATOM     21  C   UNL     1      32.945 -13.382 -25.655  0.00  0.00    +0.067 C 
BRANCH  21  23
ATOM     22  O   UNL     1      33.978 -12.594 -27.689  0.00  0.00    -0.291 OA
ATOM     23  C   UNL     1      33.749 -12.401 -26.497  0.00  0.00    +0.173 C 
BRANCH  23  25
ATOM     24  F   UNL     1      35.650  -7.740 -24.082  0.00  0.00    -0.204 F 
ATOM     25  C   UNL     1      34.256 -11.156 -25.853  0.00  0.00    +0.035 C 
ATOM     26  C   UNL     1      33.649 -10.716 -24.698  0.00  0.00    +0.005 C 
ATOM     27  C   UNL     1      35.313 -10.493 -26.436  0.00  0.00    +0.005 C 
ATOM     28  C   UNL     1      34.124  -9.552 -24.094  0.00  0.00    +0.030 C 
ATOM     29  C   UNL     1      35.787  -9.329 -25.832  0.00  0.00    +0.030 C 
ATOM     30  C   UNL     1      35.194  -8.858 -24.662  0.00  0.00    +0.140 C 
ENDBRANCH  23  25
ENDBRANCH  21  23
ENDBRANCH  20  21
ENDBRANCH  19  20
ENDBRANCH   1  19
TORSDOF 6
ENDMDL
MODEL 4
REMARK VINA RESULT:     -10.9      3.941      9.899
REMARK  Name = 16363
REMARK  6 active torsions:
REMARK  status: ('A' for Active; 'I' for Inactive)
REMARK    1  A    between atoms: N_1  and  C_19
REMARK    2  A    between atoms: C_2  and  N_9
REMARK    3  A    between atoms: C_19  and  C_20
REMARK    4  A    between atoms: C_20  and  C_21
REMARK    5  A    between atoms: C_21  and  C_23
REMARK    6  A    between atoms: C_23  and  C_25
REMARK                            x       y       z     vdW  Elec       q    Type
REMARK                         _______ _______ _______ _____ _____    ______ ____
ROOT
ATOM      1  N   UNL     1      34.784 -16.140 -24.223  0.00  0.00    +0.387 N 
ATOM      2  C   UNL     1      34.608 -18.294 -22.251  0.00  0.00    +0.086 C 
ATOM      3  C   UNL     1      34.893 -18.560 -23.730  0.00  0.00    -0.000 C 
ATOM      4  C   UNL     1      35.047 -16.879 -21.877  0.00  0.00    -0.000 C 
ATOM      5  C   UNL     1      34.293 -17.468 -24.617  0.00  0.00    -0.075 C 
ATOM      6  C   UNL     1      34.444 -15.840 -22.825  0.00  0.00    -0.075 C 
ATOM      7  H   UNL     1      35.800 -16.142 -24.305  0.00  0.00    -0.080 HD
ENDROOT
BRANCH   2   9
ATOM      8  O   UNL     1      37.541 -18.660 -21.652  0.00  0.00    -0.247 OA
ATOM      9  N   UNL     1      35.255 -19.271 -21.413  0.00  0.00    -0.282 N 
ATOM     10  N   UNL     1      36.828 -20.468 -20.304  0.00  0.00    -0.305 N 
ATOM     11  C   UNL     1      34.605 -20.279 -20.688  0.00  0.00    +0.079 A 
ATOM     12  C   UNL     1      36.656 -19.366 -21.190  0.00  0.00    +0.328 A 
ATOM     13  C   UNL     1      35.578 -21.010 -20.010  0.00  0.00    +0.076 A 
ATOM     14  C   UNL     1      33.266 -20.591 -20.585  0.00  0.00    +0.019 C 
ATOM     15  C   UNL     1      35.267 -22.080 -19.200  0.00  0.00    +0.019 C 
ATOM     16  C   UNL     1      32.924 -21.674 -19.768  0.00  0.00    +0.002 C 
ATOM     17  C   UNL     1      33.914 -22.410 -19.084  0.00  0.00    +0.002 C 
ATOM     18  H   UNL     1      37.690 -20.794 -19.957  0.00  0.00    +0.170 HD
ENDBRANCH   2   9
BRANCH   1  19
ATOM     19  C   UNL     1      34.243 -15.111 -25.111  0.00  0.00    -0.077 C 
BRANCH  19  20
ATOM     20  C   UNL     1      33.365 -14.138 -24.321  0.00  0.00    -0.015 C 
BRANCH  20  21
ATOM     21  C   UNL     1      34.108 -12.849 -23.958  0.00  0.00    +0.067 C 
BRANCH  21  23
ATOM     22  O   UNL     1      33.697 -11.964 -26.165  0.00  0.00    -0.291 OA
ATOM     23  C   UNL     1      33.922 -11.736 -24.978  0.00  0.00    +0.173 C 
BRANCH  23  25
ATOM     24  F   UNL     1      34.204  -6.439 -23.236  0.00  0.00    -0.204 F 
ATOM     25  C   UNL     1      33.998 -10.321 -24.514  0.00  0.00    +0.035 C 
ATOM     26  C   UNL     1      32.907  -9.778 -23.871  0.00  0.00    +0.005 C 
ATOM     27  C   UNL     1      35.154  -9.610 -24.743  0.00  0.00    +0.005 C 
ATOM     28  C   UNL     1      32.977  -8.455 -23.436  0.00  0.00    +0.030 C 
ATOM     29  C   UNL     1      35.224  -8.288 -24.308  0.00  0.00    +0.030 C 
ATOM     30  C   UNL     1      34.137  -7.710 -23.654  0.00  0.00    +0.140 C 
ENDBRANCH  23  25
ENDBRANCH  21  23
ENDBRANCH  20  21
ENDBRANCH  19  20
ENDBRANCH   1  19
TORSDOF 6
ENDMDL
MODEL 5
REMARK VINA RESULT:     -10.9      3.657      9.354
REMARK  Name = 16363
REMARK  6 active torsions:
REMARK  status: ('A' for Active; 'I' for Inactive)
REMARK    1  A    between atoms: N_1  and  C_19
REMARK    2  A    between atoms: C_2  and  N_9
REMARK    3  A    between atoms: C_19  and  C_20
REMARK    4  A    between atoms: C_20  and  C_21
REMARK    5  A    between atoms: C_21  and  C_23
REMARK    6  A    between atoms: C_23  and  C_25
REMARK                            x       y       z     vdW  Elec       q    Type
REMARK                         _______ _______ _______ _____ _____    ______ ____
ROOT
ATOM      1  N   UNL     1      34.953 -15.740 -23.561  0.00  0.00    +0.387 N 
ATOM      2  C   UNL     1      34.650 -18.201 -22.009  0.00  0.00    +0.086 C 
ATOM      3  C   UNL     1      35.084 -18.208 -23.475  0.00  0.00    -0.000 C 
ATOM      4  C   UNL     1      35.010 -16.865 -21.360  0.00  0.00    -0.000 C 
ATOM      5  C   UNL     1      34.541 -16.987 -24.221  0.00  0.00    -0.075 C 
ATOM      6  C   UNL     1      34.471 -15.687 -22.174  0.00  0.00    -0.075 C 
ATOM      7  H   UNL     1      35.972 -15.715 -23.541  0.00  0.00    -0.080 HD
ENDROOT
BRANCH   2   9
ATOM      8  O   UNL     1      37.561 -18.839 -21.544  0.00  0.00    -0.247 OA
ATOM      9  N   UNL     1      35.242 -19.299 -21.288  0.00  0.00    -0.282 N 
ATOM     10  N   UNL     1      36.746 -20.710 -20.348  0.00  0.00    -0.305 N 
ATOM     11  C   UNL     1      34.535 -20.320 -20.638  0.00  0.00    +0.079 A 
ATOM     12  C   UNL     1      36.636 -19.519 -21.120  0.00  0.00    +0.328 A 
ATOM     13  C   UNL     1      35.465 -21.183 -20.063  0.00  0.00    +0.076 A 
ATOM     14  C   UNL     1      33.179 -20.539 -20.519  0.00  0.00    +0.019 C 
ATOM     15  C   UNL     1      35.094 -22.299 -19.346  0.00  0.00    +0.019 C 
ATOM     16  C   UNL     1      32.776 -21.667 -19.796  0.00  0.00    +0.002 C 
ATOM     17  C   UNL     1      33.723 -22.537 -19.216  0.00  0.00    +0.002 C 
ATOM     18  H   UNL     1      37.589 -21.130 -20.060  0.00  0.00    +0.170 HD
ENDBRANCH   2   9
BRANCH   1  19
ATOM     19  C   UNL     1      34.471 -14.581 -24.313  0.00  0.00    -0.077 C 
BRANCH  19  20
ATOM     20  C   UNL     1      34.039 -13.471 -23.354  0.00  0.00    -0.015 C 
BRANCH  20  21
ATOM     21  C   UNL     1      32.518 -13.291 -23.319  0.00  0.00    +0.067 C 
BRANCH  21  23
ATOM     22  O   UNL     1      31.705 -13.760 -21.095  0.00  0.00    -0.291 OA
ATOM     23  C   UNL     1      31.985 -12.915 -21.944  0.00  0.00    +0.173 C 
BRANCH  23  25
ATOM     24  F   UNL     1      31.358  -7.507 -20.707  0.00  0.00    -0.204 F 
ATOM     25  C   UNL     1      31.818 -11.471 -21.613  0.00  0.00    +0.035 C 
ATOM     26  C   UNL     1      32.005 -10.540 -22.610  0.00  0.00    +0.005 C 
ATOM     27  C   UNL     1      31.483 -11.123 -20.324  0.00  0.00    +0.005 C 
ATOM     28  C   UNL     1      31.848  -9.189 -22.301  0.00  0.00    +0.030 C 
ATOM     29  C   UNL     1      31.326  -9.772 -20.016  0.00  0.00    +0.030 C 
ATOM     30  C   UNL     1      31.508  -8.805 -21.003  0.00  0.00    +0.140 C 
ENDBRANCH  23  25
ENDBRANCH  21  23
ENDBRANCH  20  21
ENDBRANCH  19  20
ENDBRANCH   1  19
TORSDOF 6
ENDMDL
MODEL 6
REMARK VINA RESULT:     -10.7      6.213     12.237
REMARK  Name = 16363
REMARK  6 active torsions:
REMARK  status: ('A' for Active; 'I' for Inactive)
REMARK    1  A    between atoms: N_1  and  C_19
REMARK    2  A    between atoms: C_2  and  N_9
REMARK    3  A    between atoms: C_19  and  C_20
REMARK    4  A    between atoms: C_20  and  C_21
REMARK    5  A    between atoms: C_21  and  C_23
REMARK    6  A    between atoms: C_23  and  C_25
REMARK                            x       y       z     vdW  Elec       q    Type
REMARK                         _______ _______ _______ _____ _____    ______ ____
ROOT
ATOM      1  N   UNL     1      34.233 -22.912 -18.316  0.00  0.00    +0.387 N 
ATOM      2  C   UNL     1      34.684 -23.221 -15.441  0.00  0.00    +0.086 C 
ATOM      3  C   UNL     1      33.573 -23.968 -16.179  0.00  0.00    -0.000 C 
ATOM      4  C   UNL     1      35.810 -22.860 -16.411  0.00  0.00    -0.000 C 
ATOM      5  C   UNL     1      33.107 -23.195 -17.414  0.00  0.00    -0.075 C 
ATOM      6  C   UNL     1      35.272 -22.123 -17.639  0.00  0.00    -0.075 C 
ATOM      7  H   UNL     1      34.645 -23.802 -18.593  0.00  0.00    -0.080 HD
ENDROOT
BRANCH   2   9
ATOM      8  O   UNL     1      33.291 -24.065 -12.903  0.00  0.00    -0.247 OA
ATOM      9  N   UNL     1      35.188 -23.996 -14.336  0.00  0.00    -0.282 N 
ATOM     10  N   UNL     1      35.346 -25.107 -12.367  0.00  0.00    -0.305 N 
ATOM     11  C   UNL     1      36.481 -24.526 -14.238  0.00  0.00    +0.079 A 
ATOM     12  C   UNL     1      34.450 -24.347 -13.173  0.00  0.00    +0.328 A 
ATOM     13  C   UNL     1      36.571 -25.206 -13.025  0.00  0.00    +0.076 A 
ATOM     14  C   UNL     1      37.550 -24.456 -15.106  0.00  0.00    +0.019 C 
ATOM     15  C   UNL     1      37.722 -25.846 -12.621  0.00  0.00    +0.019 C 
ATOM     16  C   UNL     1      38.731 -25.098 -14.718  0.00  0.00    +0.002 C 
ATOM     17  C   UNL     1      38.815 -25.785 -13.488  0.00  0.00    +0.002 C 
ATOM     18  H   UNL     1      35.133 -25.498 -11.488  0.00  0.00    +0.170 HD
ENDBRANCH   2   9
BRANCH   1  19
ATOM     19  C   UNL     1      33.764 -22.217 -19.515  0.00  0.00    -0.077 C 
BRANCH  19  20
ATOM     20  C   UNL     1      34.848 -21.270 -20.035  0.00  0.00    -0.015 C 
BRANCH  20  21
ATOM     21  C   UNL     1      34.280 -20.186 -20.954  0.00  0.00    +0.067 C 
BRANCH  21  23
ATOM     22  O   UNL     1      36.450 -19.131 -20.942  0.00  0.00    -0.291 OA
ATOM     23  C   UNL     1      35.328 -19.195 -21.440  0.00  0.00    +0.173 C 
BRANCH  23  25
ATOM     24  F   UNL     1      34.035 -15.799 -25.678  0.00  0.00    -0.204 F 
ATOM     25  C   UNL     1      34.984 -18.288 -22.572  0.00  0.00    +0.035 C 
ATOM     26  C   UNL     1      34.429 -18.832 -23.709  0.00  0.00    +0.005 C 
ATOM     27  C   UNL     1      35.232 -16.940 -22.438  0.00  0.00    +0.005 C 
ATOM     28  C   UNL     1      34.106 -17.984 -24.767  0.00  0.00    +0.030 C 
ATOM     29  C   UNL     1      34.908 -16.092 -23.497  0.00  0.00    +0.030 C 
ATOM     30  C   UNL     1      34.345 -16.613 -24.661  0.00  0.00    +0.140 C 
ENDBRANCH  23  25
ENDBRANCH  21  23
ENDBRANCH  20  21
ENDBRANCH  19  20
ENDBRANCH   1  19
TORSDOF 6
ENDMDL
MODEL 7
REMARK VINA RESULT:     -10.6      3.182      5.735
REMARK  Name = 16363
REMARK  6 active torsions:
REMARK  status: ('A' for Active; 'I' for Inactive)
REMARK    1  A    between atoms: N_1  and  C_19
REMARK    2  A    between atoms: C_2  and  N_9
REMARK    3  A    between atoms: C_19  and  C_20
REMARK    4  A    between atoms: C_20  and  C_21
REMARK    5  A    between atoms: C_21  and  C_23
REMARK    6  A    between atoms: C_23  and  C_25
REMARK                            x       y       z     vdW  Elec       q    Type
REMARK                         _______ _______ _______ _____ _____    ______ ____
ROOT
ATOM      1  N   UNL     1      35.663 -20.177 -20.208  0.00  0.00    +0.387 N 
ATOM      2  C   UNL     1      35.191 -18.715 -22.698  0.00  0.00    +0.086 C 
ATOM      3  C   UNL     1      34.049 -19.290 -21.859  0.00  0.00    -0.000 C 
ATOM      4  C   UNL     1      36.412 -18.453 -21.816  0.00  0.00    -0.000 C 
ATOM      5  C   UNL     1      34.510 -20.508 -21.056  0.00  0.00    -0.075 C 
ATOM      6  C   UNL     1      36.795 -19.698 -21.014  0.00  0.00    -0.075 C 
ATOM      7  H   UNL     1      35.385 -19.425 -19.578  0.00  0.00    -0.080 HD
ENDROOT
BRANCH   2   9
ATOM      8  O   UNL     1      34.645 -18.262 -25.629  0.00  0.00    -0.247 OA
ATOM      9  N   UNL     1      34.781 -17.512 -23.377  0.00  0.00    -0.282 N 
ATOM     10  N   UNL     1      34.165 -16.038 -24.985  0.00  0.00    -0.305 N 
ATOM     11  C   UNL     1      34.549 -16.272 -22.766  0.00  0.00    +0.079 A 
ATOM     12  C   UNL     1      34.546 -17.394 -24.774  0.00  0.00    +0.328 A 
ATOM     13  C   UNL     1      34.172 -15.372 -23.760  0.00  0.00    +0.076 A 
ATOM     14  C   UNL     1      34.643 -15.890 -21.444  0.00  0.00    +0.019 C 
ATOM     15  C   UNL     1      33.871 -14.055 -23.488  0.00  0.00    +0.019 C 
ATOM     16  C   UNL     1      34.342 -14.557 -21.143  0.00  0.00    +0.002 C 
ATOM     17  C   UNL     1      33.961 -13.650 -22.154  0.00  0.00    +0.002 C 
ATOM     18  H   UNL     1      33.934 -15.636 -25.854  0.00  0.00    +0.170 HD
ENDBRANCH   2   9
BRANCH   1  19
ATOM     19  C   UNL     1      36.059 -21.336 -19.408  0.00  0.00    -0.077 C 
BRANCH  19  20
ATOM     20  C   UNL     1      34.971 -22.410 -19.459  0.00  0.00    -0.015 C 
BRANCH  20  21
ATOM     21  C   UNL     1      34.426 -22.751 -18.069  0.00  0.00    +0.067 C 
BRANCH  21  23
ATOM     22  O   UNL     1      32.207 -22.409 -18.954  0.00  0.00    -0.291 OA
ATOM     23  C   UNL     1      32.906 -22.721 -17.992  0.00  0.00    +0.173 C 
BRANCH  23  25
ATOM     24  F   UNL     1      30.444 -24.147 -13.189  0.00  0.00    -0.204 F 
ATOM     25  C   UNL     1      32.248 -23.102 -16.710  0.00  0.00    +0.035 C 
ATOM     26  C   UNL     1      33.041 -23.445 -15.638  0.00  0.00    +0.005 C 
ATOM     27  C   UNL     1      30.873 -23.096 -16.645  0.00  0.00    +0.005 C 
ATOM     28  C   UNL     1      32.427 -23.802 -14.438  0.00  0.00    +0.030 C 
ATOM     29  C   UNL     1      30.258 -23.452 -15.445  0.00  0.00    +0.030 C 
ATOM     30  C   UNL     1      31.034 -23.805 -14.341  0.00  0.00    +0.140 C 
ENDBRANCH  23  25
ENDBRANCH  21  23
ENDBRANCH  20  21
ENDBRANCH  19  20
ENDBRANCH   1  19
TORSDOF 6
ENDMDL
MODEL 8
REMARK VINA RESULT:     -10.5      1.290      1.778
REMARK  Name = 16363
REMARK  6 active torsions:
REMARK  status: ('A' for Active; 'I' for Inactive)
REMARK    1  A    between atoms: N_1  and  C_19
REMARK    2  A    between atoms: C_2  and  N_9
REMARK    3  A    between atoms: C_19  and  C_20
REMARK    4  A    between atoms: C_20  and  C_21
REMARK    5  A    between atoms: C_21  and  C_23
REMARK    6  A    between atoms: C_23  and  C_25
REMARK                            x       y       z     vdW  Elec       q    Type
REMARK                         _______ _______ _______ _____ _____    ______ ____
ROOT
ATOM      1  N   UNL     1      33.944 -14.893 -24.683  0.00  0.00    +0.387 N 
ATOM      2  C   UNL     1      33.218 -12.081 -24.329  0.00  0.00    +0.086 C 
ATOM      3  C   UNL     1      33.863 -12.905 -23.215  0.00  0.00    -0.000 C 
ATOM      4  C   UNL     1      33.583 -12.665 -25.694  0.00  0.00    -0.000 C 
ATOM      5  C   UNL     1      33.537 -14.392 -23.363  0.00  0.00    -0.075 C 
ATOM      6  C   UNL     1      33.267 -14.160 -25.762  0.00  0.00    -0.075 C 
ATOM      7  H   UNL     1      34.947 -14.742 -24.782  0.00  0.00    -0.080 HD
ENDROOT
BRANCH   2   9
ATOM      8  O   UNL     1      35.405 -10.611 -25.796  0.00  0.00    -0.247 OA
ATOM      9  N   UNL     1      33.607 -10.696 -24.243  0.00  0.00    -0.282 N 
ATOM     10  N   UNL     1      34.675  -8.724 -24.571  0.00  0.00    -0.305 N 
ATOM     11  C   UNL     1      33.007  -9.734 -23.419  0.00  0.00    +0.079 A 
ATOM     12  C   UNL     1      34.660 -10.088 -24.980  0.00  0.00    +0.328 A 
ATOM     13  C   UNL     1      33.668  -8.525 -23.626  0.00  0.00    +0.076 A 
ATOM     14  C   UNL     1      31.957  -9.839 -22.531  0.00  0.00    +0.019 C 
ATOM     15  C   UNL     1      33.319  -7.369 -22.964  0.00  0.00    +0.019 C 
ATOM     16  C   UNL     1      31.584  -8.678 -21.845  0.00  0.00    +0.002 C 
ATOM     17  C   UNL     1      32.258  -7.457 -22.059  0.00  0.00    +0.002 C 
ATOM     18  H   UNL     1      35.295  -8.034 -24.902  0.00  0.00    +0.170 HD
ENDBRANCH   2   9
BRANCH   1  19
ATOM     19  C   UNL     1      33.673 -16.327 -24.791  0.00  0.00    -0.077 C 
BRANCH  19  20
ATOM     20  C   UNL     1      34.944 -17.128 -24.504  0.00  0.00    -0.015 C 
BRANCH  20  21
ATOM     21  C   UNL     1      34.656 -18.420 -23.735  0.00  0.00    +0.067 C 
BRANCH  21  23
ATOM     22  O   UNL     1      35.321 -17.265 -21.723  0.00  0.00    -0.291 OA
ATOM     23  C   UNL     1      34.917 -18.304 -22.240  0.00  0.00    +0.173 C 
BRANCH  23  25
ATOM     24  F   UNL     1      33.933 -22.742 -18.998  0.00  0.00    -0.204 F 
ATOM     25  C   UNL     1      34.654 -19.489 -21.375  0.00  0.00    +0.035 C 
ATOM     26  C   UNL     1      35.725 -20.227 -20.921  0.00  0.00    +0.005 C 
ATOM     27  C   UNL     1      33.350 -19.802 -21.060  0.00  0.00    +0.005 C 
ATOM     28  C   UNL     1      35.479 -21.335 -20.111  0.00  0.00    +0.030 C 
ATOM     29  C   UNL     1      33.105 -20.910 -20.250  0.00  0.00    +0.030 C 
ATOM     30  C   UNL     1      34.168 -21.677 -19.776  0.00  0.00    +0.140 C 
ENDBRANCH  23  25
ENDBRANCH  21  23
ENDBRANCH  20  21
ENDBRANCH  19  20
ENDBRANCH   1  19
TORSDOF 6
ENDMDL
MODEL 9
REMARK VINA RESULT:     -10.5      3.565      6.287
REMARK  Name = 16363
REMARK  6 active torsions:
REMARK  status: ('A' for Active; 'I' for Inactive)
REMARK    1  A    between atoms: N_1  and  C_19
REMARK    2  A    between atoms: C_2  and  N_9
REMARK    3  A    between atoms: C_19  and  C_20
REMARK    4  A    between atoms: C_20  and  C_21
REMARK    5  A    between atoms: C_21  and  C_23
REMARK    6  A    between atoms: C_23  and  C_25
REMARK                            x       y       z     vdW  Elec       q    Type
REMARK                         _______ _______ _______ _____ _____    ______ ____
ROOT
ATOM      1  N   UNL     1      36.041 -20.928 -20.341  0.00  0.00    +0.387 N 
ATOM      2  C   UNL     1      35.043 -18.556 -21.733  0.00  0.00    +0.086 C 
ATOM      3  C   UNL     1      36.530 -18.907 -21.679  0.00  0.00    -0.000 C 
ATOM      4  C   UNL     1      34.198 -19.818 -21.561  0.00  0.00    -0.000 C 
ATOM      5  C   UNL     1      36.866 -19.714 -20.424  0.00  0.00    -0.075 C 
ATOM      6  C   UNL     1      34.609 -20.597 -20.310  0.00  0.00    -0.075 C 
ATOM      7  H   UNL     1      36.217 -21.486 -21.175  0.00  0.00    -0.080 HD
ENDROOT
BRANCH   2   9
ATOM      8  O   UNL     1      34.641 -19.696 -24.496  0.00  0.00    -0.247 OA
ATOM      9  N   UNL     1      34.713 -17.880 -22.962  0.00  0.00    -0.282 N 
ATOM     10  N   UNL     1      34.228 -17.457 -25.135  0.00  0.00    -0.305 N 
ATOM     11  C   UNL     1      34.508 -16.501 -23.101  0.00  0.00    +0.079 A 
ATOM     12  C   UNL     1      34.542 -18.507 -24.226  0.00  0.00    +0.328 A 
ATOM     13  C   UNL     1      34.211 -16.248 -24.439  0.00  0.00    +0.076 A 
ATOM     14  C   UNL     1      34.562 -15.485 -22.170  0.00  0.00    +0.019 C 
ATOM     15  C   UNL     1      33.954 -14.980 -24.912  0.00  0.00    +0.019 C 
ATOM     16  C   UNL     1      34.304 -14.188 -22.626  0.00  0.00    +0.002 C 
ATOM     17  C   UNL     1      34.004 -13.938 -23.982  0.00  0.00    +0.002 C 
ATOM     18  H   UNL     1      34.051 -17.566 -26.098  0.00  0.00    +0.170 HD
ENDBRANCH   2   9
BRANCH   1  19
ATOM     19  C   UNL     1      36.408 -21.715 -19.164  0.00  0.00    -0.077 C 
BRANCH  19  20
ATOM     20  C   UNL     1      35.157 -22.307 -18.512  0.00  0.00    -0.015 C 
BRANCH  20  21
ATOM     21  C   UNL     1      35.312 -22.468 -16.997  0.00  0.00    +0.067 C 
BRANCH  21  23
ATOM     22  O   UNL     1      35.010 -24.742 -16.248  0.00  0.00    -0.291 OA
ATOM     23  C   UNL     1      34.513 -23.632 -16.428  0.00  0.00    +0.173 C 
BRANCH  23  25
ATOM     24  F   UNL     1      29.167 -22.794 -15.053  0.00  0.00    -0.204 F 
ATOM     25  C   UNL     1      33.086 -23.408 -16.061  0.00  0.00    +0.035 C 
ATOM     26  C   UNL     1      32.166 -23.225 -17.069  0.00  0.00    +0.005 C 
ATOM     27  C   UNL     1      32.741 -23.393 -14.728  0.00  0.00    +0.005 C 
ATOM     28  C   UNL     1      30.830 -23.016 -16.726  0.00  0.00    +0.030 C 
ATOM     29  C   UNL     1      31.406 -23.184 -14.385  0.00  0.00    +0.030 C 
ATOM     30  C   UNL     1      30.450 -22.995 -15.383  0.00  0.00    +0.140 C 
ENDBRANCH  23  25
ENDBRANCH  21  23
ENDBRANCH  20  21
ENDBRANCH  19  20
ENDBRANCH   1  19
TORSDOF 6
ENDMDL
