MODEL 1
REMARK VINA RESULT:     -11.9      0.000      0.000
REMARK  Name = 51049992
REMARK  10 active torsions:
REMARK  status: ('A' for Active; 'I' for Inactive)
REMARK    1  A    between atoms: C_1  and  C_7
REMARK    2  A    between atoms: C_6  and  C_23
REMARK    3  A    between atoms: C_7  and  N_8
REMARK    4  A    between atoms: C_23  and  O_24
REMARK    5  A    between atoms: O_24  and  C_25
REMARK    6  A    between atoms: C_26  and  C_31
REMARK    7  A    between atoms: C_31  and  C_32
REMARK    8  A    between atoms: C_31  and  C_35
REMARK    9  A    between atoms: C_35  and  C_37
REMARK   10  A    between atoms: C_37  and  O_38
REMARK                            x       y       z     vdW  Elec       q    Type
REMARK                         _______ _______ _______ _____ _____    ______ ____
ROOT
ATOM      1  C   UNL     1      35.179 -18.218 -23.121  0.00  0.00    -0.043 C 
ATOM      2  C   UNL     1      34.191 -19.091 -22.665  0.00  0.00    -0.007 C 
ATOM      3  C   UNL     1      36.447 -18.236 -22.538  0.00  0.00    -0.007 C 
ATOM      4  C   UNL     1      34.470 -19.982 -21.629  0.00  0.00    -0.001 C 
ATOM      5  C   UNL     1      36.726 -19.127 -21.502  0.00  0.00    -0.001 C 
ATOM      6  C   UNL     1      35.738 -20.000 -21.048  0.00  0.00    +0.021 C 
ENDROOT
BRANCH   1   7
ATOM      7  C   UNL     1      34.877 -17.257 -24.239  0.00  0.00    -0.050 C 
BRANCH   7   8
ATOM      8  N   UNL     1      34.111 -16.101 -23.772  0.00  0.00    +0.390 N 
ATOM      9  C   UNL     1      33.410 -13.245 -23.570  0.00  0.00    +0.033 C 
ATOM     10  C   UNL     1      32.608 -14.244 -24.424  0.00  0.00    -0.015 C 
ATOM     11  C   UNL     1      34.177 -13.997 -22.467  0.00  0.00    -0.015 C 
ATOM     12  C   UNL     1      34.976 -15.183 -23.019  0.00  0.00    -0.076 C 
ATOM     13  C   UNL     1      33.467 -15.421 -24.902  0.00  0.00    -0.076 C 
ATOM     14  C   UNL     1      32.526 -12.157 -22.999  0.00  0.00    -0.019 C 
ATOM     15  C   UNL     1      34.349 -12.398 -24.429  0.00  0.00    -0.023 C 
ATOM     16  C   UNL     1      32.940 -10.907 -23.486  0.00  0.00    -0.004 C 
ATOM     17  C   UNL     1      34.073 -11.086 -24.372  0.00  0.00    -0.005 C 
ATOM     18  C   UNL     1      31.453 -12.257 -22.127  0.00  0.00    -0.004 C 
ATOM     19  C   UNL     1      32.293  -9.740 -23.115  0.00  0.00    -0.000 C 
ATOM     20  C   UNL     1      30.795 -11.085 -21.747  0.00  0.00    -0.000 C 
ATOM     21  C   UNL     1      31.211  -9.837 -22.237  0.00  0.00    -0.000 C 
ATOM     22  H   UNL     1      33.378 -16.426 -23.143  0.00  0.00    -0.079 HD
ENDBRANCH   7   8
ENDBRANCH   1   7
BRANCH   6  23
ATOM     23  C   UNL     1      36.038 -20.954 -19.942  0.00  0.00    +0.232 C 
BRANCH  23  24
ATOM     24  O   UNL     1      35.050 -21.978 -19.920  0.00  0.00    -0.471 OA
BRANCH  24  25
ATOM     25  C   UNL     1      34.625 -22.400 -18.688  0.00  0.00    +0.139 C 
ATOM     26  C   UNL     1      33.759 -23.260 -16.180  0.00  0.00    -0.010 C 
ATOM     27  C   UNL     1      35.520 -22.449 -17.620  0.00  0.00    +0.037 C 
ATOM     28  C   UNL     1      33.296 -22.781 -18.502  0.00  0.00    +0.037 C 
ATOM     29  C   UNL     1      35.087 -22.879 -16.366  0.00  0.00    -0.000 C 
ATOM     30  C   UNL     1      32.863 -23.212 -17.248  0.00  0.00    -0.000 C 
BRANCH  26  31
ATOM     31  C   UNL     1      33.295 -23.720 -14.839  0.00  0.00    +0.097 C 
BRANCH  31  32
ATOM     32  C   UNL     1      31.908 -24.258 -14.892  0.00  0.00    -0.087 C 
ATOM     33  C   UNL     1      30.791 -24.702 -14.921  0.00  0.00    -0.090 C 
ATOM     34  C   UNL     1      29.435 -25.244 -14.957  0.00  0.00    +0.090 C 
ENDBRANCH  31  32
BRANCH  31  35
ATOM     35  C   UNL     1      34.249 -24.774 -14.214  0.00  0.00    +0.127 C 
BRANCH  35  37
ATOM     36  O   UNL     1      34.592 -25.044 -11.812  0.00  0.00    -0.250 OA
ATOM     37  C   UNL     1      34.768 -24.402 -12.838  0.00  0.00    +0.315 C 
BRANCH  37  38
ATOM     38  O   UNL     1      35.484 -23.247 -12.876  0.00  0.00    -0.480 OA
ATOM     39  H   UNL     1      35.334 -22.625 -13.559  0.00  0.00    +0.295 HD
ENDBRANCH  37  38
ENDBRANCH  35  37
ENDBRANCH  31  35
ENDBRANCH  26  31
ENDBRANCH  24  25
ENDBRANCH  23  24
ENDBRANCH   6  23
TORSDOF 10
ENDMDL
MODEL 2
REMARK VINA RESULT:     -11.8      1.112      2.089
REMARK  Name = 51049992
REMARK  10 active torsions:
REMARK  status: ('A' for Active; 'I' for Inactive)
REMARK    1  A    between atoms: C_1  and  C_7
REMARK    2  A    between atoms: C_6  and  C_23
REMARK    3  A    between atoms: C_7  and  N_8
REMARK    4  A    between atoms: C_23  and  O_24
REMARK    5  A    between atoms: O_24  and  C_25
REMARK    6  A    between atoms: C_26  and  C_31
REMARK    7  A    between atoms: C_31  and  C_32
REMARK    8  A    between atoms: C_31  and  C_35
REMARK    9  A    between atoms: C_35  and  C_37
REMARK   10  A    between atoms: C_37  and  O_38
REMARK                            x       y       z     vdW  Elec       q    Type
REMARK                         _______ _______ _______ _____ _____    ______ ____
ROOT
ATOM      1  C   UNL     1      35.172 -18.136 -23.201  0.00  0.00    -0.043 C 
ATOM      2  C   UNL     1      34.191 -19.037 -22.786  0.00  0.00    -0.007 C 
ATOM      3  C   UNL     1      36.427 -18.142 -22.590  0.00  0.00    -0.007 C 
ATOM      4  C   UNL     1      34.465 -19.944 -21.763  0.00  0.00    -0.001 C 
ATOM      5  C   UNL     1      36.700 -19.049 -21.567  0.00  0.00    -0.001 C 
ATOM      6  C   UNL     1      35.719 -19.950 -21.153  0.00  0.00    +0.021 C 
ENDROOT
BRANCH   1   7
ATOM      7  C   UNL     1      34.877 -17.157 -24.305  0.00  0.00    -0.050 C 
BRANCH   7   8
ATOM      8  N   UNL     1      34.112 -16.007 -23.823  0.00  0.00    +0.390 N 
ATOM      9  C   UNL     1      33.411 -13.153 -23.590  0.00  0.00    +0.033 C 
ATOM     10  C   UNL     1      32.606 -14.144 -24.451  0.00  0.00    -0.015 C 
ATOM     11  C   UNL     1      34.182 -13.916 -22.498  0.00  0.00    -0.015 C 
ATOM     12  C   UNL     1      34.979 -15.095 -23.065  0.00  0.00    -0.076 C 
ATOM     13  C   UNL     1      33.463 -15.315 -24.944  0.00  0.00    -0.076 C 
ATOM     14  C   UNL     1      32.528 -12.071 -23.004  0.00  0.00    -0.019 C 
ATOM     15  C   UNL     1      34.346 -12.297 -24.444  0.00  0.00    -0.023 C 
ATOM     16  C   UNL     1      32.939 -10.817 -23.481  0.00  0.00    -0.004 C 
ATOM     17  C   UNL     1      34.069 -10.986 -24.373  0.00  0.00    -0.005 C 
ATOM     18  C   UNL     1      31.459 -12.181 -22.130  0.00  0.00    -0.004 C 
ATOM     19  C   UNL     1      32.293  -9.653 -23.096  0.00  0.00    -0.000 C 
ATOM     20  C   UNL     1      30.801 -11.014 -21.736  0.00  0.00    -0.000 C 
ATOM     21  C   UNL     1      31.215  -9.760 -22.214  0.00  0.00    -0.000 C 
ATOM     22  H   UNL     1      33.381 -16.338 -23.195  0.00  0.00    -0.079 HD
ENDBRANCH   7   8
ENDBRANCH   1   7
BRANCH   6  23
ATOM     23  C   UNL     1      36.013 -20.922 -20.061  0.00  0.00    +0.232 C 
BRANCH  23  24
ATOM     24  O   UNL     1      34.965 -21.882 -19.988  0.00  0.00    -0.471 OA
BRANCH  24  25
ATOM     25  C   UNL     1      34.680 -22.391 -18.748  0.00  0.00    +0.139 C 
ATOM     26  C   UNL     1      34.100 -23.431 -16.225  0.00  0.00    -0.010 C 
ATOM     27  C   UNL     1      35.644 -22.357 -17.741  0.00  0.00    +0.037 C 
ATOM     28  C   UNL     1      33.426 -22.946 -18.494  0.00  0.00    +0.037 C 
ATOM     29  C   UNL     1      35.354 -22.876 -16.479  0.00  0.00    -0.000 C 
ATOM     30  C   UNL     1      33.136 -23.467 -17.233  0.00  0.00    -0.000 C 
BRANCH  26  31
ATOM     31  C   UNL     1      33.789 -23.987 -14.877  0.00  0.00    +0.097 C 
BRANCH  31  32
ATOM     32  C   UNL     1      34.886 -23.721 -13.906  0.00  0.00    -0.087 C 
ATOM     33  C   UNL     1      35.765 -23.518 -13.112  0.00  0.00    -0.090 C 
ATOM     34  C   UNL     1      36.832 -23.270 -12.144  0.00  0.00    +0.090 C 
ENDBRANCH  31  32
BRANCH  31  35
ATOM     35  C   UNL     1      32.442 -23.456 -14.316  0.00  0.00    +0.127 C 
BRANCH  35  37
ATOM     36  O   UNL     1      30.546 -24.330 -13.053  0.00  0.00    -0.250 OA
ATOM     37  C   UNL     1      31.552 -24.528 -13.718  0.00  0.00    +0.315 C 
BRANCH  37  38
ATOM     38  O   UNL     1      32.004 -25.773 -14.026  0.00  0.00    -0.480 OA
ATOM     39  H   UNL     1      31.455 -26.367 -14.496  0.00  0.00    +0.295 HD
ENDBRANCH  37  38
ENDBRANCH  35  37
ENDBRANCH  31  35
ENDBRANCH  26  31
ENDBRANCH  24  25
ENDBRANCH  23  24
ENDBRANCH   6  23
TORSDOF 10
ENDMDL
MODEL 3
REMARK VINA RESULT:     -11.8      5.994     14.553
REMARK  Name = 51049992
REMARK  10 active torsions:
REMARK  status: ('A' for Active; 'I' for Inactive)
REMARK    1  A    between atoms: C_1  and  C_7
REMARK    2  A    between atoms: C_6  and  C_23
REMARK    3  A    between atoms: C_7  and  N_8
REMARK    4  A    between atoms: C_23  and  O_24
REMARK    5  A    between atoms: O_24  and  C_25
REMARK    6  A    between atoms: C_26  and  C_31
REMARK    7  A    between atoms: C_31  and  C_32
REMARK    8  A    between atoms: C_31  and  C_35
REMARK    9  A    between atoms: C_35  and  C_37
REMARK   10  A    between atoms: C_37  and  O_38
REMARK                            x       y       z     vdW  Elec       q    Type
REMARK                         _______ _______ _______ _____ _____    ______ ____
ROOT
ATOM      1  C   UNL     1      33.764 -13.699 -23.560  0.00  0.00    -0.043 C 
ATOM      2  C   UNL     1      33.849 -12.450 -24.177  0.00  0.00    -0.007 C 
ATOM      3  C   UNL     1      32.895 -13.888 -22.485  0.00  0.00    -0.007 C 
ATOM      4  C   UNL     1      33.065 -11.391 -23.719  0.00  0.00    -0.001 C 
ATOM      5  C   UNL     1      32.111 -12.829 -22.028  0.00  0.00    -0.001 C 
ATOM      6  C   UNL     1      32.196 -11.581 -22.644  0.00  0.00    +0.021 C 
ENDROOT
BRANCH   1   7
ATOM      7  C   UNL     1      34.610 -14.841 -24.055  0.00  0.00    -0.050 C 
BRANCH   7   8
ATOM      8  N   UNL     1      34.359 -16.071 -23.303  0.00  0.00    +0.390 N 
ATOM      9  C   UNL     1      35.091 -18.502 -21.806  0.00  0.00    +0.033 C 
ATOM     10  C   UNL     1      34.592 -17.217 -21.120  0.00  0.00    -0.015 C 
ATOM     11  C   UNL     1      34.613 -18.534 -23.269  0.00  0.00    -0.015 C 
ATOM     12  C   UNL     1      34.922 -17.229 -24.010  0.00  0.00    -0.076 C 
ATOM     13  C   UNL     1      34.902 -15.961 -21.943  0.00  0.00    -0.076 C 
ATOM     14  C   UNL     1      34.669 -19.744 -21.049  0.00  0.00    -0.019 C 
ATOM     15  C   UNL     1      36.610 -18.638 -21.709  0.00  0.00    -0.023 C 
ATOM     16  C   UNL     1      35.806 -20.441 -20.612  0.00  0.00    -0.004 C 
ATOM     17  C   UNL     1      36.998 -19.732 -21.035  0.00  0.00    -0.005 C 
ATOM     18  C   UNL     1      33.397 -20.217 -20.769  0.00  0.00    -0.004 C 
ATOM     19  C   UNL     1      35.696 -21.618 -19.891  0.00  0.00    -0.000 C 
ATOM     20  C   UNL     1      33.275 -21.405 -20.042  0.00  0.00    -0.000 C 
ATOM     21  C   UNL     1      34.415 -22.099 -19.607  0.00  0.00    -0.000 C 
ATOM     22  H   UNL     1      33.352 -16.209 -23.228  0.00  0.00    -0.079 HD
ENDBRANCH   7   8
ENDBRANCH   1   7
BRANCH   6  23
ATOM     23  C   UNL     1      31.355 -10.450 -22.156  0.00  0.00    +0.232 C 
BRANCH  23  24
ATOM     24  O   UNL     1      32.194  -9.442 -21.603  0.00  0.00    -0.471 OA
BRANCH  24  25
ATOM     25  C   UNL     1      32.302  -8.273 -22.309  0.00  0.00    +0.139 C 
ATOM     26  C   UNL     1      32.522  -5.891 -23.745  0.00  0.00    -0.010 C 
ATOM     27  C   UNL     1      33.558  -7.713 -22.545  0.00  0.00    +0.037 C 
ATOM     28  C   UNL     1      31.156  -7.641 -22.792  0.00  0.00    +0.037 C 
ATOM     29  C   UNL     1      33.668  -6.523 -23.263  0.00  0.00    -0.000 C 
ATOM     30  C   UNL     1      31.266  -6.450 -23.510  0.00  0.00    -0.000 C 
BRANCH  26  31
ATOM     31  C   UNL     1      32.639  -4.618 -24.513  0.00  0.00    +0.097 C 
BRANCH  31  32
ATOM     32  C   UNL     1      33.750  -4.673 -25.503  0.00  0.00    -0.087 C 
ATOM     33  C   UNL     1      34.651  -4.700 -26.298  0.00  0.00    -0.090 C 
ATOM     34  C   UNL     1      35.744  -4.732 -27.267  0.00  0.00    +0.090 C 
ENDBRANCH  31  32
BRANCH  31  35
ATOM     35  C   UNL     1      31.313  -4.234 -25.224  0.00  0.00    +0.127 C 
BRANCH  35  37
ATOM     36  O   UNL     1      29.594  -2.509 -25.060  0.00  0.00    -0.250 OA
ATOM     37  C   UNL     1      30.636  -3.003 -24.653  0.00  0.00    +0.315 C 
BRANCH  37  38
ATOM     38  O   UNL     1      31.331  -2.503 -23.597  0.00  0.00    -0.480 OA
ATOM     39  H   UNL     1      31.185  -1.623 -23.315  0.00  0.00    +0.295 HD
ENDBRANCH  37  38
ENDBRANCH  35  37
ENDBRANCH  31  35
ENDBRANCH  26  31
ENDBRANCH  24  25
ENDBRANCH  23  24
ENDBRANCH   6  23
TORSDOF 10
ENDMDL
MODEL 4
REMARK VINA RESULT:     -11.6      1.529      2.707
REMARK  Name = 51049992
REMARK  10 active torsions:
REMARK  status: ('A' for Active; 'I' for Inactive)
REMARK    1  A    between atoms: C_1  and  C_7
REMARK    2  A    between atoms: C_6  and  C_23
REMARK    3  A    between atoms: C_7  and  N_8
REMARK    4  A    between atoms: C_23  and  O_24
REMARK    5  A    between atoms: O_24  and  C_25
REMARK    6  A    between atoms: C_26  and  C_31
REMARK    7  A    between atoms: C_31  and  C_32
REMARK    8  A    between atoms: C_31  and  C_35
REMARK    9  A    between atoms: C_35  and  C_37
REMARK   10  A    between atoms: C_37  and  O_38
REMARK                            x       y       z     vdW  Elec       q    Type
REMARK                         _______ _______ _______ _____ _____    ______ ____
ROOT
ATOM      1  C   UNL     1      35.230 -18.232 -23.126  0.00  0.00    -0.043 C 
ATOM      2  C   UNL     1      34.288 -19.014 -22.457  0.00  0.00    -0.007 C 
ATOM      3  C   UNL     1      36.571 -18.276 -22.742  0.00  0.00    -0.007 C 
ATOM      4  C   UNL     1      34.687 -19.839 -21.406  0.00  0.00    -0.001 C 
ATOM      5  C   UNL     1      36.969 -19.102 -21.691  0.00  0.00    -0.001 C 
ATOM      6  C   UNL     1      36.027 -19.883 -21.023  0.00  0.00    +0.021 C 
ENDROOT
BRANCH   1   7
ATOM      7  C   UNL     1      34.800 -17.341 -24.260  0.00  0.00    -0.050 C 
BRANCH   7   8
ATOM      8  N   UNL     1      34.055 -16.175 -23.784  0.00  0.00    +0.390 N 
ATOM      9  C   UNL     1      33.403 -13.309 -23.566  0.00  0.00    +0.033 C 
ATOM     10  C   UNL     1      32.581 -14.290 -24.421  0.00  0.00    -0.015 C 
ATOM     11  C   UNL     1      34.162 -14.079 -22.470  0.00  0.00    -0.015 C 
ATOM     12  C   UNL     1      34.938 -15.274 -23.030  0.00  0.00    -0.076 C 
ATOM     13  C   UNL     1      33.418 -15.478 -24.908  0.00  0.00    -0.076 C 
ATOM     14  C   UNL     1      32.539 -12.208 -22.985  0.00  0.00    -0.019 C 
ATOM     15  C   UNL     1      34.352 -12.473 -24.424  0.00  0.00    -0.023 C 
ATOM     16  C   UNL     1      32.971 -10.964 -23.469  0.00  0.00    -0.004 C 
ATOM     17  C   UNL     1      34.098 -11.157 -24.360  0.00  0.00    -0.005 C 
ATOM     18  C   UNL     1      31.468 -12.296 -22.111  0.00  0.00    -0.004 C 
ATOM     19  C   UNL     1      32.346  -9.787 -23.090  0.00  0.00    -0.000 C 
ATOM     20  C   UNL     1      30.831 -11.115 -21.722  0.00  0.00    -0.000 C 
ATOM     21  C   UNL     1      31.266  -9.871 -22.207  0.00  0.00    -0.000 C 
ATOM     22  H   UNL     1      33.319 -16.491 -23.153  0.00  0.00    -0.079 HD
ENDBRANCH   7   8
ENDBRANCH   1   7
BRANCH   6  23
ATOM     23  C   UNL     1      36.454 -20.768 -19.901  0.00  0.00    +0.232 C 
BRANCH  23  24
ATOM     24  O   UNL     1      35.304 -21.333 -19.280  0.00  0.00    -0.471 OA
BRANCH  24  25
ATOM     25  C   UNL     1      35.514 -22.060 -18.139  0.00  0.00    +0.139 C 
ATOM     26  C   UNL     1      35.940 -23.539 -15.812  0.00  0.00    -0.010 C 
ATOM     27  C   UNL     1      34.474 -22.808 -17.587  0.00  0.00    +0.037 C 
ATOM     28  C   UNL     1      36.767 -22.051 -17.526  0.00  0.00    +0.037 C 
ATOM     29  C   UNL     1      34.687 -23.548 -16.424  0.00  0.00    -0.000 C 
ATOM     30  C   UNL     1      36.980 -22.790 -16.362  0.00  0.00    -0.000 C 
BRANCH  26  31
ATOM     31  C   UNL     1      36.169 -24.329 -14.568  0.00  0.00    +0.097 C 
BRANCH  31  32
ATOM     32  C   UNL     1      37.554 -24.871 -14.508  0.00  0.00    -0.087 C 
ATOM     33  C   UNL     1      38.672 -25.306 -14.442  0.00  0.00    -0.090 C 
ATOM     34  C   UNL     1      40.033 -25.833 -14.361  0.00  0.00    +0.090 C 
ENDBRANCH  31  32
BRANCH  31  35
ATOM     35  C   UNL     1      35.862 -23.511 -13.284  0.00  0.00    +0.127 C 
BRANCH  35  37
ATOM     36  O   UNL     1      35.937 -24.527 -11.066  0.00  0.00    -0.250 OA
ATOM     37  C   UNL     1      35.352 -24.345 -12.124  0.00  0.00    +0.315 C 
BRANCH  37  38
ATOM     38  O   UNL     1      34.129 -24.872 -12.396  0.00  0.00    -0.480 OA
ATOM     39  H   UNL     1      33.522 -25.029 -11.700  0.00  0.00    +0.295 HD
ENDBRANCH  37  38
ENDBRANCH  35  37
ENDBRANCH  31  35
ENDBRANCH  26  31
ENDBRANCH  24  25
ENDBRANCH  23  24
ENDBRANCH   6  23
TORSDOF 10
ENDMDL
MODEL 5
REMARK VINA RESULT:     -11.6      3.650     12.818
REMARK  Name = 51049992
REMARK  10 active torsions:
REMARK  status: ('A' for Active; 'I' for Inactive)
REMARK    1  A    between atoms: C_1  and  C_7
REMARK    2  A    between atoms: C_6  and  C_23
REMARK    3  A    between atoms: C_7  and  N_8
REMARK    4  A    between atoms: C_23  and  O_24
REMARK    5  A    between atoms: O_24  and  C_25
REMARK    6  A    between atoms: C_26  and  C_31
REMARK    7  A    between atoms: C_31  and  C_32
REMARK    8  A    between atoms: C_31  and  C_35
REMARK    9  A    between atoms: C_35  and  C_37
REMARK   10  A    between atoms: C_37  and  O_38
REMARK                            x       y       z     vdW  Elec       q    Type
REMARK                         _______ _______ _______ _____ _____    ______ ____
ROOT
ATOM      1  C   UNL     1      33.549 -21.797 -19.365  0.00  0.00    -0.043 C 
ATOM      2  C   UNL     1      34.935 -21.750 -19.521  0.00  0.00    -0.007 C 
ATOM      3  C   UNL     1      32.735 -20.938 -20.104  0.00  0.00    -0.007 C 
ATOM      4  C   UNL     1      35.506 -20.845 -20.416  0.00  0.00    -0.001 C 
ATOM      5  C   UNL     1      33.306 -20.034 -20.999  0.00  0.00    -0.001 C 
ATOM      6  C   UNL     1      34.691 -19.987 -21.155  0.00  0.00    +0.021 C 
ENDROOT
BRANCH   1   7
ATOM      7  C   UNL     1      32.934 -22.774 -18.399  0.00  0.00    -0.050 C 
BRANCH   7   8
ATOM      8  N   UNL     1      33.705 -22.873 -17.160  0.00  0.00    +0.390 N 
ATOM      9  C   UNL     1      35.442 -24.187 -15.174  0.00  0.00    +0.033 C 
ATOM     10  C   UNL     1      35.959 -23.131 -16.168  0.00  0.00    -0.015 C 
ATOM     11  C   UNL     1      33.925 -24.020 -14.976  0.00  0.00    -0.015 C 
ATOM     12  C   UNL     1      33.170 -23.943 -16.307  0.00  0.00    -0.076 C 
ATOM     13  C   UNL     1      35.127 -23.088 -17.455  0.00  0.00    -0.076 C 
ATOM     14  C   UNL     1      36.191 -24.134 -13.858  0.00  0.00    -0.019 C 
ATOM     15  C   UNL     1      35.797 -25.604 -15.622  0.00  0.00    -0.023 C 
ATOM     16  C   UNL     1      36.849 -25.354 -13.640  0.00  0.00    -0.004 C 
ATOM     17  C   UNL     1      36.589 -26.249 -14.751  0.00  0.00    -0.005 C 
ATOM     18  C   UNL     1      36.283 -23.104 -12.936  0.00  0.00    -0.004 C 
ATOM     19  C   UNL     1      37.610 -25.568 -12.503  0.00  0.00    -0.000 C 
ATOM     20  C   UNL     1      37.048 -23.311 -11.785  0.00  0.00    -0.000 C 
ATOM     21  C   UNL     1      37.706 -24.532 -11.570  0.00  0.00    -0.000 C 
ATOM     22  H   UNL     1      33.620 -21.995 -16.649  0.00  0.00    -0.079 HD
ENDBRANCH   7   8
ENDBRANCH   1   7
BRANCH   6  23
ATOM     23  C   UNL     1      35.301 -19.022 -22.113  0.00  0.00    +0.232 C 
BRANCH  23  24
ATOM     24  O   UNL     1      35.556 -17.790 -21.447  0.00  0.00    -0.471 OA
BRANCH  24  25
ATOM     25  C   UNL     1      34.961 -16.672 -21.969  0.00  0.00    +0.139 C 
ATOM     26  C   UNL     1      33.752 -14.393 -23.031  0.00  0.00    -0.010 C 
ATOM     27  C   UNL     1      34.805 -16.544 -23.349  0.00  0.00    +0.037 C 
ATOM     28  C   UNL     1      34.512 -15.660 -21.120  0.00  0.00    +0.037 C 
ATOM     29  C   UNL     1      34.200 -15.405 -23.880  0.00  0.00    -0.000 C 
ATOM     30  C   UNL     1      33.908 -14.521 -21.651  0.00  0.00    -0.000 C 
BRANCH  26  31
ATOM     31  C   UNL     1      33.105 -13.175 -23.598  0.00  0.00    +0.097 C 
BRANCH  31  32
ATOM     32  C   UNL     1      32.305 -12.450 -22.573  0.00  0.00    -0.087 C 
ATOM     33  C   UNL     1      31.647 -11.861 -21.757  0.00  0.00    -0.090 C 
ATOM     34  C   UNL     1      30.848 -11.142 -20.767  0.00  0.00    +0.090 C 
ENDBRANCH  31  32
BRANCH  31  35
ATOM     35  C   UNL     1      34.132 -12.210 -24.250  0.00  0.00    +0.127 C 
BRANCH  35  37
ATOM     36  O   UNL     1      33.835 -10.675 -26.124  0.00  0.00    -0.250 OA
ATOM     37  C   UNL     1      33.793 -11.811 -25.673  0.00  0.00    +0.315 C 
BRANCH  37  38
ATOM     38  O   UNL     1      33.440 -12.892 -26.417  0.00  0.00    -0.480 OA
ATOM     39  H   UNL     1      32.586 -13.265 -26.326  0.00  0.00    +0.295 HD
ENDBRANCH  37  38
ENDBRANCH  35  37
ENDBRANCH  31  35
ENDBRANCH  26  31
ENDBRANCH  24  25
ENDBRANCH  23  24
ENDBRANCH   6  23
TORSDOF 10
ENDMDL
MODEL 6
REMARK VINA RESULT:     -11.5      3.643     12.730
REMARK  Name = 51049992
REMARK  10 active torsions:
REMARK  status: ('A' for Active; 'I' for Inactive)
REMARK    1  A    between atoms: C_1  and  C_7
REMARK    2  A    between atoms: C_6  and  C_23
REMARK    3  A    between atoms: C_7  and  N_8
REMARK    4  A    between atoms: C_23  and  O_24
REMARK    5  A    between atoms: O_24  and  C_25
REMARK    6  A    between atoms: C_26  and  C_31
REMARK    7  A    between atoms: C_31  and  C_32
REMARK    8  A    between atoms: C_31  and  C_35
REMARK    9  A    between atoms: C_35  and  C_37
REMARK   10  A    between atoms: C_37  and  O_38
REMARK                            x       y       z     vdW  Elec       q    Type
REMARK                         _______ _______ _______ _____ _____    ______ ____
ROOT
ATOM      1  C   UNL     1      33.433 -21.812 -19.333  0.00  0.00    -0.043 C 
ATOM      2  C   UNL     1      32.589 -20.969 -20.058  0.00  0.00    -0.007 C 
ATOM      3  C   UNL     1      34.813 -21.749 -19.527  0.00  0.00    -0.007 C 
ATOM      4  C   UNL     1      33.125 -20.066 -20.975  0.00  0.00    -0.001 C 
ATOM      5  C   UNL     1      35.349 -20.846 -20.444  0.00  0.00    -0.001 C 
ATOM      6  C   UNL     1      34.505 -20.004 -21.168  0.00  0.00    +0.021 C 
ENDROOT
BRANCH   1   7
ATOM      7  C   UNL     1      32.854 -22.786 -18.344  0.00  0.00    -0.050 C 
BRANCH   7   8
ATOM      8  N   UNL     1      33.661 -22.871 -17.126  0.00  0.00    +0.390 N 
ATOM      9  C   UNL     1      35.433 -24.171 -15.162  0.00  0.00    +0.033 C 
ATOM     10  C   UNL     1      35.940 -23.152 -16.198  0.00  0.00    -0.015 C 
ATOM     11  C   UNL     1      33.926 -23.966 -14.921  0.00  0.00    -0.015 C 
ATOM     12  C   UNL     1      33.131 -23.907 -16.230  0.00  0.00    -0.076 C 
ATOM     13  C   UNL     1      35.069 -23.124 -17.459  0.00  0.00    -0.076 C 
ATOM     14  C   UNL     1      36.223 -24.101 -13.871  0.00  0.00    -0.019 C 
ATOM     15  C   UNL     1      35.744 -25.606 -15.584  0.00  0.00    -0.023 C 
ATOM     16  C   UNL     1      36.863 -25.328 -13.642  0.00  0.00    -0.004 C 
ATOM     17  C   UNL     1      36.549 -26.245 -14.721  0.00  0.00    -0.005 C 
ATOM     18  C   UNL     1      36.366 -23.050 -12.979  0.00  0.00    -0.004 C 
ATOM     19  C   UNL     1      37.655 -25.530 -12.523  0.00  0.00    -0.000 C 
ATOM     20  C   UNL     1      37.162 -23.243 -11.848  0.00  0.00    -0.000 C 
ATOM     21  C   UNL     1      37.801 -24.473 -11.622  0.00  0.00    -0.000 C 
ATOM     22  H   UNL     1      33.611 -21.978 -16.636  0.00  0.00    -0.079 HD
ENDBRANCH   7   8
ENDBRANCH   1   7
BRANCH   6  23
ATOM     23  C   UNL     1      35.079 -19.036 -22.147  0.00  0.00    +0.232 C 
BRANCH  23  24
ATOM     24  O   UNL     1      35.550 -17.886 -21.454  0.00  0.00    -0.471 OA
BRANCH  24  25
ATOM     25  C   UNL     1      35.023 -16.680 -21.830  0.00  0.00    +0.139 C 
ATOM     26  C   UNL     1      33.947 -14.223 -22.598  0.00  0.00    -0.010 C 
ATOM     27  C   UNL     1      34.540 -15.797 -20.865  0.00  0.00    +0.037 C 
ATOM     28  C   UNL     1      34.968 -16.333 -23.181  0.00  0.00    +0.037 C 
ATOM     29  C   UNL     1      34.002 -14.568 -21.249  0.00  0.00    -0.000 C 
ATOM     30  C   UNL     1      34.429 -15.105 -23.565  0.00  0.00    -0.000 C 
BRANCH  26  31
ATOM     31  C   UNL     1      33.372 -12.909 -23.010  0.00  0.00    +0.097 C 
BRANCH  31  32
ATOM     32  C   UNL     1      33.552 -12.663 -24.467  0.00  0.00    -0.087 C 
ATOM     33  C   UNL     1      33.681 -12.468 -25.646  0.00  0.00    -0.090 C 
ATOM     34  C   UNL     1      33.837 -12.235 -27.080  0.00  0.00    +0.090 C 
ENDBRANCH  31  32
BRANCH  31  35
ATOM     35  C   UNL     1      31.872 -12.777 -22.630  0.00  0.00    +0.127 C 
BRANCH  35  37
ATOM     36  O   UNL     1      32.085 -10.367 -22.305  0.00  0.00    -0.250 OA
ATOM     37  C   UNL     1      31.487 -11.413 -22.092  0.00  0.00    +0.315 C 
BRANCH  37  38
ATOM     38  O   UNL     1      30.360 -11.481 -21.335  0.00  0.00    -0.480 OA
ATOM     39  H   UNL     1      30.144 -10.782 -20.752  0.00  0.00    +0.295 HD
ENDBRANCH  37  38
ENDBRANCH  35  37
ENDBRANCH  31  35
ENDBRANCH  26  31
ENDBRANCH  24  25
ENDBRANCH  23  24
ENDBRANCH   6  23
TORSDOF 10
ENDMDL
MODEL 7
REMARK VINA RESULT:     -11.2      2.414      4.205
REMARK  Name = 51049992
REMARK  10 active torsions:
REMARK  status: ('A' for Active; 'I' for Inactive)
REMARK    1  A    between atoms: C_1  and  C_7
REMARK    2  A    between atoms: C_6  and  C_23
REMARK    3  A    between atoms: C_7  and  N_8
REMARK    4  A    between atoms: C_23  and  O_24
REMARK    5  A    between atoms: O_24  and  C_25
REMARK    6  A    between atoms: C_26  and  C_31
REMARK    7  A    between atoms: C_31  and  C_32
REMARK    8  A    between atoms: C_31  and  C_35
REMARK    9  A    between atoms: C_35  and  C_37
REMARK   10  A    between atoms: C_37  and  O_38
REMARK                            x       y       z     vdW  Elec       q    Type
REMARK                         _______ _______ _______ _____ _____    ______ ____
ROOT
ATOM      1  C   UNL     1      34.004 -15.352 -24.474  0.00  0.00    -0.043 C 
ATOM      2  C   UNL     1      34.270 -16.678 -24.819  0.00  0.00    -0.007 C 
ATOM      3  C   UNL     1      34.209 -14.918 -23.164  0.00  0.00    -0.007 C 
ATOM      4  C   UNL     1      34.741 -17.568 -23.854  0.00  0.00    -0.001 C 
ATOM      5  C   UNL     1      34.680 -15.808 -22.200  0.00  0.00    -0.001 C 
ATOM      6  C   UNL     1      34.946 -17.133 -22.544  0.00  0.00    +0.021 C 
ENDROOT
BRANCH   1   7
ATOM      7  C   UNL     1      33.496 -14.392 -25.516  0.00  0.00    -0.050 C 
BRANCH   7   8
ATOM      8  N   UNL     1      33.887 -13.013 -25.222  0.00  0.00    +0.390 N 
ATOM      9  C   UNL     1      33.620 -10.078 -25.263  0.00  0.00    +0.033 C 
ATOM     10  C   UNL     1      33.292 -10.929 -24.023  0.00  0.00    -0.015 C 
ATOM     11  C   UNL     1      34.594 -10.841 -26.179  0.00  0.00    -0.015 C 
ATOM     12  C   UNL     1      34.122 -12.270 -26.468  0.00  0.00    -0.076 C 
ATOM     13  C   UNL     1      32.868 -12.355 -24.394  0.00  0.00    -0.076 C 
ATOM     14  C   UNL     1      34.158  -8.714 -24.882  0.00  0.00    -0.019 C 
ATOM     15  C   UNL     1      32.355  -9.662 -26.012  0.00  0.00    -0.023 C 
ATOM     16  C   UNL     1      33.297  -7.716 -25.363  0.00  0.00    -0.004 C 
ATOM     17  C   UNL     1      32.186  -8.332 -26.060  0.00  0.00    -0.005 C 
ATOM     18  C   UNL     1      35.303  -8.383 -24.175  0.00  0.00    -0.004 C 
ATOM     19  C   UNL     1      33.561  -6.373 -25.148  0.00  0.00    -0.000 C 
ATOM     20  C   UNL     1      35.578  -7.031 -23.954  0.00  0.00    -0.000 C 
ATOM     21  C   UNL     1      34.715  -6.034 -24.436  0.00  0.00    -0.000 C 
ATOM     22  H   UNL     1      34.759 -13.025 -24.695  0.00  0.00    -0.079 HD
ENDBRANCH   7   8
ENDBRANCH   1   7
BRANCH   6  23
ATOM     23  C   UNL     1      35.452 -18.084 -21.514  0.00  0.00    +0.232 C 
BRANCH  23  24
ATOM     24  O   UNL     1      35.218 -19.420 -21.946  0.00  0.00    -0.471 OA
BRANCH  24  25
ATOM     25  C   UNL     1      34.742 -20.297 -21.009  0.00  0.00    +0.139 C 
ATOM     26  C   UNL     1      33.771 -22.083 -19.098  0.00  0.00    -0.010 C 
ATOM     27  C   UNL     1      33.370 -20.385 -20.769  0.00  0.00    +0.037 C 
ATOM     28  C   UNL     1      35.627 -21.103 -20.293  0.00  0.00    +0.037 C 
ATOM     29  C   UNL     1      32.885 -21.278 -19.813  0.00  0.00    -0.000 C 
ATOM     30  C   UNL     1      35.142 -21.995 -19.337  0.00  0.00    -0.000 C 
BRANCH  26  31
ATOM     31  C   UNL     1      33.253 -23.038 -18.076  0.00  0.00    +0.097 C 
BRANCH  31  32
ATOM     32  C   UNL     1      34.166 -23.139 -16.905  0.00  0.00    -0.087 C 
ATOM     33  C   UNL     1      34.914 -23.231 -15.968  0.00  0.00    -0.090 C 
ATOM     34  C   UNL     1      35.822 -23.346 -14.829  0.00  0.00    +0.090 C 
ENDBRANCH  31  32
BRANCH  31  35
ATOM     35  C   UNL     1      31.819 -22.675 -17.602  0.00  0.00    +0.127 C 
BRANCH  35  37
ATOM     36  O   UNL     1      30.972 -24.495 -16.214  0.00  0.00    -0.250 OA
ATOM     37  C   UNL     1      31.402 -23.354 -16.312  0.00  0.00    +0.315 C 
BRANCH  37  38
ATOM     38  O   UNL     1      31.576 -22.534 -15.243  0.00  0.00    -0.480 OA
ATOM     39  H   UNL     1      31.506 -21.606 -15.348  0.00  0.00    +0.295 HD
ENDBRANCH  37  38
ENDBRANCH  35  37
ENDBRANCH  31  35
ENDBRANCH  26  31
ENDBRANCH  24  25
ENDBRANCH  23  24
ENDBRANCH   6  23
TORSDOF 10
ENDMDL
MODEL 8
REMARK VINA RESULT:     -11.1      6.019     14.682
REMARK  Name = 51049992
REMARK  10 active torsions:
REMARK  status: ('A' for Active; 'I' for Inactive)
REMARK    1  A    between atoms: C_1  and  C_7
REMARK    2  A    between atoms: C_6  and  C_23
REMARK    3  A    between atoms: C_7  and  N_8
REMARK    4  A    between atoms: C_23  and  O_24
REMARK    5  A    between atoms: O_24  and  C_25
REMARK    6  A    between atoms: C_26  and  C_31
REMARK    7  A    between atoms: C_31  and  C_32
REMARK    8  A    between atoms: C_31  and  C_35
REMARK    9  A    between atoms: C_35  and  C_37
REMARK   10  A    between atoms: C_37  and  O_38
REMARK                            x       y       z     vdW  Elec       q    Type
REMARK                         _______ _______ _______ _____ _____    ______ ____
ROOT
ATOM      1  C   UNL     1      33.760 -13.788 -23.588  0.00  0.00    -0.043 C 
ATOM      2  C   UNL     1      32.944 -13.953 -22.468  0.00  0.00    -0.007 C 
ATOM      3  C   UNL     1      33.818 -12.552 -24.232  0.00  0.00    -0.007 C 
ATOM      4  C   UNL     1      32.187 -12.883 -21.993  0.00  0.00    -0.001 C 
ATOM      5  C   UNL     1      33.061 -11.481 -23.756  0.00  0.00    -0.001 C 
ATOM      6  C   UNL     1      32.245 -11.647 -22.637  0.00  0.00    +0.021 C 
ENDROOT
BRANCH   1   7
ATOM      7  C   UNL     1      34.577 -14.944 -24.100  0.00  0.00    -0.050 C 
BRANCH   7   8
ATOM      8  N   UNL     1      34.338 -16.164 -23.329  0.00  0.00    +0.390 N 
ATOM      9  C   UNL     1      35.095 -18.577 -21.815  0.00  0.00    +0.033 C 
ATOM     10  C   UNL     1      34.610 -17.284 -21.137  0.00  0.00    -0.015 C 
ATOM     11  C   UNL     1      34.591 -18.627 -23.269  0.00  0.00    -0.015 C 
ATOM     12  C   UNL     1      34.888 -17.331 -24.032  0.00  0.00    -0.076 C 
ATOM     13  C   UNL     1      34.906 -16.038 -21.980  0.00  0.00    -0.076 C 
ATOM     14  C   UNL     1      34.686 -19.810 -21.035  0.00  0.00    -0.019 C 
ATOM     15  C   UNL     1      36.616 -18.714 -21.743  0.00  0.00    -0.023 C 
ATOM     16  C   UNL     1      35.830 -20.502 -20.611  0.00  0.00    -0.004 C 
ATOM     17  C   UNL     1      37.015 -19.800 -21.064  0.00  0.00    -0.005 C 
ATOM     18  C   UNL     1      33.419 -20.278 -20.727  0.00  0.00    -0.004 C 
ATOM     19  C   UNL     1      35.732 -21.671 -19.873  0.00  0.00    -0.000 C 
ATOM     20  C   UNL     1      33.310 -21.457 -19.984  0.00  0.00    -0.000 C 
ATOM     21  C   UNL     1      34.457 -22.147 -19.561  0.00  0.00    -0.000 C 
ATOM     22  H   UNL     1      33.333 -16.301 -23.234  0.00  0.00    -0.079 HD
ENDBRANCH   7   8
ENDBRANCH   1   7
BRANCH   6  23
ATOM     23  C   UNL     1      31.438 -10.502 -22.127  0.00  0.00    +0.232 C 
BRANCH  23  24
ATOM     24  O   UNL     1      32.306  -9.428 -21.780  0.00  0.00    -0.471 OA
BRANCH  24  25
ATOM     25  C   UNL     1      32.280  -8.326 -22.592  0.00  0.00    +0.139 C 
ATOM     26  C   UNL     1      32.226  -6.082 -24.249  0.00  0.00    -0.010 C 
ATOM     27  C   UNL     1      31.065  -7.855 -23.091  0.00  0.00    +0.037 C 
ATOM     28  C   UNL     1      33.468  -7.674 -22.923  0.00  0.00    +0.037 C 
ATOM     29  C   UNL     1      31.038  -6.733 -23.919  0.00  0.00    -0.000 C 
ATOM     30  C   UNL     1      33.441  -6.552 -23.752  0.00  0.00    -0.000 C 
BRANCH  26  31
ATOM     31  C   UNL     1      32.198  -4.882 -25.134  0.00  0.00    +0.097 C 
BRANCH  31  32
ATOM     32  C   UNL     1      31.430  -3.763 -24.521  0.00  0.00    -0.087 C 
ATOM     33  C   UNL     1      30.801  -2.872 -24.016  0.00  0.00    -0.090 C 
ATOM     34  C   UNL     1      30.034  -1.789 -23.404  0.00  0.00    +0.090 C 
ENDBRANCH  31  32
BRANCH  31  35
ATOM     35  C   UNL     1      33.623  -4.399 -25.519  0.00  0.00    +0.127 C 
BRANCH  35  37
ATOM     36  O   UNL     1      34.179  -2.338 -26.703  0.00  0.00    -0.250 OA
ATOM     37  C   UNL     1      33.658  -3.445 -26.697  0.00  0.00    +0.315 C 
BRANCH  37  38
ATOM     38  O   UNL     1      33.040  -3.979 -27.783  0.00  0.00    -0.480 OA
ATOM     39  H   UNL     1      32.509  -3.438 -28.333  0.00  0.00    +0.295 HD
ENDBRANCH  37  38
ENDBRANCH  35  37
ENDBRANCH  31  35
ENDBRANCH  26  31
ENDBRANCH  24  25
ENDBRANCH  23  24
ENDBRANCH   6  23
TORSDOF 10
ENDMDL
MODEL 9
REMARK VINA RESULT:     -11.1      1.225      2.308
REMARK  Name = 51049992
REMARK  10 active torsions:
REMARK  status: ('A' for Active; 'I' for Inactive)
REMARK    1  A    between atoms: C_1  and  C_7
REMARK    2  A    between atoms: C_6  and  C_23
REMARK    3  A    between atoms: C_7  and  N_8
REMARK    4  A    between atoms: C_23  and  O_24
REMARK    5  A    between atoms: O_24  and  C_25
REMARK    6  A    between atoms: C_26  and  C_31
REMARK    7  A    between atoms: C_31  and  C_32
REMARK    8  A    between atoms: C_31  and  C_35
REMARK    9  A    between atoms: C_35  and  C_37
REMARK   10  A    between atoms: C_37  and  O_38
REMARK                            x       y       z     vdW  Elec       q    Type
REMARK                         _______ _______ _______ _____ _____    ______ ____
ROOT
ATOM      1  C   UNL     1      34.735 -18.120 -23.772  0.00  0.00    -0.043 C 
ATOM      2  C   UNL     1      35.987 -17.759 -23.274  0.00  0.00    -0.007 C 
ATOM      3  C   UNL     1      33.997 -19.122 -23.140  0.00  0.00    -0.007 C 
ATOM      4  C   UNL     1      36.500 -18.397 -22.145  0.00  0.00    -0.001 C 
ATOM      5  C   UNL     1      34.510 -19.760 -22.011  0.00  0.00    -0.001 C 
ATOM      6  C   UNL     1      35.761 -19.398 -21.514  0.00  0.00    +0.021 C 
ENDROOT
BRANCH   1   7
ATOM      7  C   UNL     1      34.183 -17.431 -24.990  0.00  0.00    -0.050 C 
BRANCH   7   8
ATOM      8  N   UNL     1      34.236 -15.974 -24.863  0.00  0.00    +0.390 N 
ATOM      9  C   UNL     1      33.352 -13.326 -23.918  0.00  0.00    +0.033 C 
ATOM     10  C   UNL     1      34.559 -14.067 -23.317  0.00  0.00    -0.015 C 
ATOM     11  C   UNL     1      33.082 -13.837 -25.346  0.00  0.00    -0.015 C 
ATOM     12  C   UNL     1      33.017 -15.366 -25.412  0.00  0.00    -0.076 C 
ATOM     13  C   UNL     1      34.438 -15.588 -23.460  0.00  0.00    -0.076 C 
ATOM     14  C   UNL     1      33.540 -11.823 -23.885  0.00  0.00    -0.019 C 
ATOM     15  C   UNL     1      32.113 -13.455 -23.033  0.00  0.00    -0.023 C 
ATOM     16  C   UNL     1      32.540 -11.239 -23.093  0.00  0.00    -0.004 C 
ATOM     17  C   UNL     1      31.668 -12.275 -22.576  0.00  0.00    -0.005 C 
ATOM     18  C   UNL     1      34.506 -11.041 -24.498  0.00  0.00    -0.004 C 
ATOM     19  C   UNL     1      32.486  -9.869 -22.897  0.00  0.00    -0.000 C 
ATOM     20  C   UNL     1      34.460  -9.658 -24.307  0.00  0.00    -0.000 C 
ATOM     21  C   UNL     1      33.458  -9.076 -23.513  0.00  0.00    -0.000 C 
ATOM     22  H   UNL     1      35.029 -15.627 -25.400  0.00  0.00    -0.079 HD
ENDBRANCH   7   8
ENDBRANCH   1   7
BRANCH   6  23
ATOM     23  C   UNL     1      36.308 -20.079 -20.305  0.00  0.00    +0.232 C 
BRANCH  23  24
ATOM     24  O   UNL     1      35.881 -21.436 -20.293  0.00  0.00    -0.471 OA
BRANCH  24  25
ATOM     25  C   UNL     1      35.527 -21.961 -19.078  0.00  0.00    +0.139 C 
ATOM     26  C   UNL     1      34.805 -23.028 -16.604  0.00  0.00    -0.010 C 
ATOM     27  C   UNL     1      34.267 -22.533 -18.906  0.00  0.00    +0.037 C 
ATOM     28  C   UNL     1      36.427 -21.923 -18.013  0.00  0.00    +0.037 C 
ATOM     29  C   UNL     1      33.906 -23.067 -17.668  0.00  0.00    -0.000 C 
ATOM     30  C   UNL     1      36.065 -22.455 -16.775  0.00  0.00    -0.000 C 
BRANCH  26  31
ATOM     31  C   UNL     1      34.420 -23.598 -15.280  0.00  0.00    +0.097 C 
BRANCH  31  32
ATOM     32  C   UNL     1      32.962 -23.448 -15.020  0.00  0.00    -0.087 C 
ATOM     33  C   UNL     1      31.786 -23.339 -14.797  0.00  0.00    -0.090 C 
ATOM     34  C   UNL     1      30.356 -23.208 -14.526  0.00  0.00    +0.090 C 
ENDBRANCH  31  32
BRANCH  31  35
ATOM     35  C   UNL     1      34.836 -25.087 -15.136  0.00  0.00    +0.127 C 
BRANCH  35  37
ATOM     36  O   UNL     1      36.630 -25.130 -13.482  0.00  0.00    -0.250 OA
ATOM     37  C   UNL     1      36.252 -25.291 -14.634  0.00  0.00    +0.315 C 
BRANCH  37  38
ATOM     38  O   UNL     1      37.077 -25.697 -15.635  0.00  0.00    -0.480 OA
ATOM     39  H   UNL     1      37.998 -25.763 -15.485  0.00  0.00    +0.295 HD
ENDBRANCH  37  38
ENDBRANCH  35  37
ENDBRANCH  31  35
ENDBRANCH  26  31
ENDBRANCH  24  25
ENDBRANCH  23  24
ENDBRANCH   6  23
TORSDOF 10
ENDMDL
