MODEL 1
REMARK VINA RESULT:     -11.6      0.000      0.000
REMARK  Name = 54766013
REMARK  5 active torsions:
REMARK  status: ('A' for Active; 'I' for Inactive)
REMARK    1  A    between atoms: C_3  and  C_11
REMARK    2  A    between atoms: C_4  and  C_18
REMARK    3  A    between atoms: C_5  and  C_24
REMARK    4  A    between atoms: C_24  and  N_25
REMARK    5  A    between atoms: N_25  and  C_28
REMARK                            x       y       z     vdW  Elec       q    Type
REMARK                         _______ _______ _______ _____ _____    ______ ____
ROOT
ATOM      1  N   UNL     1      36.819 -22.660 -16.943  0.00  0.00    -0.315 N 
ATOM      2  N   UNL     1      34.714 -22.514 -17.636  0.00  0.00    -0.317 N 
ATOM      3  C   UNL     1      34.775 -23.208 -16.454  0.00  0.00    +0.063 C 
ATOM      4  C   UNL     1      36.070 -23.311 -16.004  0.00  0.00    +0.085 C 
ATOM      5  C   UNL     1      35.962 -22.198 -17.904  0.00  0.00    +0.164 C 
ATOM      6  H   UNL     1      37.797 -22.543 -16.931  0.00  0.00    +0.148 HD
ATOM      7  H   UNL     1      33.913 -22.301 -18.168  0.00  0.00    +0.148 HD
ENDROOT
BRANCH   3  11
ATOM      8  N   UNL     1      31.182 -23.968 -15.791  0.00  0.00    -0.170 N 
ATOM      9  N   UNL     1      29.899 -23.813 -16.205  0.00  0.00    -0.150 NA
ATOM     10  N   UNL     1      29.959 -25.053 -14.286  0.00  0.00    -0.206 NA
ATOM     11  C   UNL     1      33.552 -23.739 -15.820  0.00  0.00    +0.031 C 
ATOM     12  C   UNL     1      32.352 -23.482 -16.380  0.00  0.00    +0.092 C 
ATOM     13  C   UNL     1      33.572 -24.533 -14.588  0.00  0.00    +0.006 C 
ATOM     14  C   UNL     1      31.188 -24.727 -14.619  0.00  0.00    +0.157 C 
ATOM     15  C   UNL     1      32.446 -25.002 -14.020  0.00  0.00    +0.036 C 
ATOM     16  C   UNL     1      29.219 -24.478 -15.273  0.00  0.00    +0.219 C 
ENDBRANCH   3  11
BRANCH   4  18
ATOM     17  N   UNL     1      36.473 -23.240 -13.689  0.00  0.00    -0.409 NA
ATOM     18  C   UNL     1      36.647 -23.930 -14.837  0.00  0.00    +0.127 C 
ATOM     19  C   UNL     1      37.316 -25.141 -14.922  0.00  0.00    +0.086 C 
ATOM     20  C   UNL     1      36.998 -23.792 -12.572  0.00  0.00    +0.109 C 
ATOM     21  C   UNL     1      37.842 -25.676 -13.751  0.00  0.00    -0.016 C 
ATOM     22  C   UNL     1      37.684 -24.996 -12.549  0.00  0.00    +0.023 C 
ATOM     23  C   UNL     1      36.811 -23.033 -11.300  0.00  0.00    +0.066 C 
ENDBRANCH   4  18
BRANCH   5  24
ATOM     24  C   UNL     1      36.452 -21.443 -19.071  0.00  0.00    +0.128 C 
BRANCH  24  25
ATOM     25  N   UNL     1      35.355 -20.942 -19.882  0.00  0.00    -0.328 N 
ATOM     26  H   UNL     1      34.444 -21.254 -19.679  0.00  0.00    +0.147 HD
BRANCH  25  28
ATOM     27  F   UNL     1      33.238 -20.255 -21.528  0.00  0.00    -0.203 F 
ATOM     28  C   UNL     1      35.526 -20.053 -20.924  0.00  0.00    +0.073 C 
ATOM     29  C   UNL     1      34.448 -19.718 -21.743  0.00  0.00    +0.153 C 
ATOM     30  C   UNL     1      36.781 -19.488 -21.158  0.00  0.00    +0.017 C 
ATOM     31  C   UNL     1      34.622 -18.820 -22.795  0.00  0.00    +0.031 C 
ATOM     32  C   UNL     1      36.955 -18.589 -22.211  0.00  0.00    +0.001 C 
ATOM     33  C   UNL     1      35.876 -18.255 -23.029  0.00  0.00    +0.002 C 
ENDBRANCH  25  28
ENDBRANCH  24  25
ENDBRANCH   5  24
TORSDOF 5
ENDMDL
MODEL 2
REMARK VINA RESULT:     -11.5      1.444      5.013
REMARK  Name = 54766013
REMARK  5 active torsions:
REMARK  status: ('A' for Active; 'I' for Inactive)
REMARK    1  A    between atoms: C_3  and  C_11
REMARK    2  A    between atoms: C_4  and  C_18
REMARK    3  A    between atoms: C_5  and  C_24
REMARK    4  A    between atoms: C_24  and  N_25
REMARK    5  A    between atoms: N_25  and  C_28
REMARK                            x       y       z     vdW  Elec       q    Type
REMARK                         _______ _______ _______ _____ _____    ______ ____
ROOT
ATOM      1  N   UNL     1      32.578 -22.815 -17.996  0.00  0.00    -0.315 N 
ATOM      2  N   UNL     1      34.791 -22.764 -17.822  0.00  0.00    -0.317 N 
ATOM      3  C   UNL     1      34.244 -23.359 -16.713  0.00  0.00    +0.063 C 
ATOM      4  C   UNL     1      32.872 -23.403 -16.798  0.00  0.00    +0.085 C 
ATOM      5  C   UNL     1      33.761 -22.448 -18.575  0.00  0.00    +0.164 C 
ATOM      6  H   UNL     1      31.679 -22.681 -18.374  0.00  0.00    +0.148 HD
ATOM      7  H   UNL     1      35.745 -22.608 -18.012  0.00  0.00    +0.148 HD
ENDROOT
BRANCH   3  11
ATOM      8  N   UNL     1      36.344 -23.450 -13.629  0.00  0.00    -0.170 N 
ATOM      9  N   UNL     1      36.868 -22.742 -12.597  0.00  0.00    -0.150 NA
ATOM     10  N   UNL     1      37.510 -24.930 -12.451  0.00  0.00    -0.206 NA
ATOM     11  C   UNL     1      35.099 -23.859 -15.618  0.00  0.00    +0.031 C 
ATOM     12  C   UNL     1      35.528 -22.999 -14.670  0.00  0.00    +0.092 C 
ATOM     13  C   UNL     1      35.524 -25.257 -15.510  0.00  0.00    +0.006 C 
ATOM     14  C   UNL     1      36.754 -24.780 -13.515  0.00  0.00    +0.157 C 
ATOM     15  C   UNL     1      36.310 -25.693 -14.510  0.00  0.00    +0.036 C 
ATOM     16  C   UNL     1      37.549 -23.673 -11.932  0.00  0.00    +0.219 C 
ENDBRANCH   3  11
BRANCH   4  18
ATOM     17  N   UNL     1      30.590 -23.726 -16.332  0.00  0.00    -0.409 NA
ATOM     18  C   UNL     1      31.860 -23.915 -15.909  0.00  0.00    +0.127 C 
ATOM     19  C   UNL     1      32.197 -24.551 -14.725  0.00  0.00    +0.086 C 
ATOM     20  C   UNL     1      29.613 -24.197 -15.525  0.00  0.00    +0.109 C 
ATOM     21  C   UNL     1      31.163 -25.022 -13.923  0.00  0.00    -0.016 C 
ATOM     22  C   UNL     1      29.844 -24.846 -14.323  0.00  0.00    +0.023 C 
ATOM     23  C   UNL     1      28.208 -23.989 -15.987  0.00  0.00    +0.066 C 
ENDBRANCH   4  18
BRANCH   5  24
ATOM     24  C   UNL     1      33.798 -21.782 -19.889  0.00  0.00    +0.128 C 
BRANCH  24  25
ATOM     25  N   UNL     1      34.923 -20.868 -19.994  0.00  0.00    -0.328 N 
ATOM     26  H   UNL     1      35.577 -20.847 -19.259  0.00  0.00    +0.147 HD
BRANCH  25  28
ATOM     27  F   UNL     1      37.312 -19.508 -20.316  0.00  0.00    -0.203 F 
ATOM     28  C   UNL     1      35.121 -20.027 -21.070  0.00  0.00    +0.073 C 
ATOM     29  C   UNL     1      36.332 -19.349 -21.216  0.00  0.00    +0.153 C 
ATOM     30  C   UNL     1      34.107 -19.853 -22.012  0.00  0.00    +0.017 C 
ATOM     31  C   UNL     1      36.529 -18.500 -22.304  0.00  0.00    +0.031 C 
ATOM     32  C   UNL     1      34.304 -19.002 -23.101  0.00  0.00    +0.001 C 
ATOM     33  C   UNL     1      35.515 -18.326 -23.247  0.00  0.00    +0.002 C 
ENDBRANCH  25  28
ENDBRANCH  24  25
ENDBRANCH   5  24
TORSDOF 5
ENDMDL
MODEL 3
REMARK VINA RESULT:     -11.4      3.192      6.858
REMARK  Name = 54766013
REMARK  5 active torsions:
REMARK  status: ('A' for Active; 'I' for Inactive)
REMARK    1  A    between atoms: C_3  and  C_11
REMARK    2  A    between atoms: C_4  and  C_18
REMARK    3  A    between atoms: C_5  and  C_24
REMARK    4  A    between atoms: C_24  and  N_25
REMARK    5  A    between atoms: N_25  and  C_28
REMARK                            x       y       z     vdW  Elec       q    Type
REMARK                         _______ _______ _______ _____ _____    ______ ____
ROOT
ATOM      1  N   UNL     1      34.768 -23.571 -14.588  0.00  0.00    -0.315 N 
ATOM      2  N   UNL     1      32.933 -24.224 -13.521  0.00  0.00    -0.317 N 
ATOM      3  C   UNL     1      32.642 -23.942 -14.832  0.00  0.00    +0.063 C 
ATOM      4  C   UNL     1      33.764 -23.536 -15.514  0.00  0.00    +0.085 C 
ATOM      5  C   UNL     1      34.222 -23.990 -13.407  0.00  0.00    +0.164 C 
ATOM      6  H   UNL     1      35.712 -23.339 -14.743  0.00  0.00    +0.148 HD
ATOM      7  H   UNL     1      32.314 -24.533 -12.820  0.00  0.00    +0.148 HD
ENDROOT
BRANCH   3  11
ATOM      8  N   UNL     1      29.374 -23.146 -16.449  0.00  0.00    -0.170 N 
ATOM      9  N   UNL     1      28.623 -22.207 -17.078  0.00  0.00    -0.150 NA
ATOM     10  N   UNL     1      27.445 -24.156 -16.892  0.00  0.00    -0.206 NA
ATOM     11  C   UNL     1      31.269 -24.087 -15.354  0.00  0.00    +0.031 C 
ATOM     12  C   UNL     1      30.677 -23.034 -15.956  0.00  0.00    +0.092 C 
ATOM     13  C   UNL     1      30.497 -25.328 -15.240  0.00  0.00    +0.006 C 
ATOM     14  C   UNL     1      28.630 -24.324 -16.349  0.00  0.00    +0.157 C 
ATOM     15  C   UNL     1      29.243 -25.438 -15.715  0.00  0.00    +0.036 C 
ATOM     16  C   UNL     1      27.490 -22.864 -17.316  0.00  0.00    +0.219 C 
ENDBRANCH   3  11
BRANCH   4  18
ATOM     17  N   UNL     1      35.167 -22.539 -17.117  0.00  0.00    -0.409 NA
ATOM     18  C   UNL     1      33.978 -23.136 -16.882  0.00  0.00    +0.127 C 
ATOM     19  C   UNL     1      33.019 -23.365 -17.857  0.00  0.00    +0.086 C 
ATOM     20  C   UNL     1      35.404 -22.152 -18.391  0.00  0.00    +0.109 C 
ATOM     21  C   UNL     1      33.300 -22.953 -19.155  0.00  0.00    -0.016 C 
ATOM     22  C   UNL     1      34.513 -22.335 -19.436  0.00  0.00    +0.023 C 
ATOM     23  C   UNL     1      36.716 -21.490 -18.655  0.00  0.00    +0.066 C 
ENDBRANCH   4  18
BRANCH   5  24
ATOM     24  C   UNL     1      35.044 -24.140 -12.192  0.00  0.00    +0.128 C 
BRANCH  24  25
ATOM     25  N   UNL     1      35.798 -25.382 -12.206  0.00  0.00    -0.328 N 
ATOM     26  H   UNL     1      35.529 -26.099 -11.588  0.00  0.00    +0.147 HD
BRANCH  25  28
ATOM     27  F   UNL     1      38.233 -24.147 -11.754  0.00  0.00    -0.203 F 
ATOM     28  C   UNL     1      36.874 -25.607 -13.041  0.00  0.00    +0.073 C 
ATOM     29  C   UNL     1      38.094 -24.976 -12.798  0.00  0.00    +0.153 C 
ATOM     30  C   UNL     1      36.740 -26.467 -14.133  0.00  0.00    +0.017 C 
ATOM     31  C   UNL     1      39.179 -25.204 -13.643  0.00  0.00    +0.031 C 
ATOM     32  C   UNL     1      37.826 -26.695 -14.978  0.00  0.00    +0.001 C 
ATOM     33  C   UNL     1      39.045 -26.064 -14.734  0.00  0.00    +0.002 C 
ENDBRANCH  25  28
ENDBRANCH  24  25
ENDBRANCH   5  24
TORSDOF 5
ENDMDL
MODEL 4
REMARK VINA RESULT:     -10.7      8.399     13.650
REMARK  Name = 54766013
REMARK  5 active torsions:
REMARK  status: ('A' for Active; 'I' for Inactive)
REMARK    1  A    between atoms: C_3  and  C_11
REMARK    2  A    between atoms: C_4  and  C_18
REMARK    3  A    between atoms: C_5  and  C_24
REMARK    4  A    between atoms: C_24  and  N_25
REMARK    5  A    between atoms: N_25  and  C_28
REMARK                            x       y       z     vdW  Elec       q    Type
REMARK                         _______ _______ _______ _____ _____    ______ ____
ROOT
ATOM      1  N   UNL     1      32.407 -11.563 -22.886  0.00  0.00    -0.315 N 
ATOM      2  N   UNL     1      32.584 -13.340 -21.566  0.00  0.00    -0.317 N 
ATOM      3  C   UNL     1      33.235 -13.567 -22.752  0.00  0.00    +0.063 C 
ATOM      4  C   UNL     1      33.140 -12.479 -23.588  0.00  0.00    +0.085 C 
ATOM      5  C   UNL     1      32.096 -12.124 -21.679  0.00  0.00    +0.164 C 
ATOM      6  H   UNL     1      32.151 -10.663 -23.193  0.00  0.00    +0.148 HD
ATOM      7  H   UNL     1      32.499 -13.952 -20.800  0.00  0.00    +0.148 HD
ENDROOT
BRANCH   3  11
ATOM      8  N   UNL     1      35.051 -16.778 -22.191  0.00  0.00    -0.170 N 
ATOM      9  N   UNL     1      35.584 -17.632 -21.281  0.00  0.00    -0.150 NA
ATOM     10  N   UNL     1      35.904 -18.442 -23.393  0.00  0.00    -0.206 NA
ATOM     11  C   UNL     1      33.922 -14.847 -23.010  0.00  0.00    +0.031 C 
ATOM     12  C   UNL     1      34.390 -15.568 -21.969  0.00  0.00    +0.092 C 
ATOM     13  C   UNL     1      34.139 -15.381 -24.358  0.00  0.00    +0.006 C 
ATOM     14  C   UNL     1      35.262 -17.297 -23.471  0.00  0.00    +0.157 C 
ATOM     15  C   UNL     1      34.776 -16.546 -24.574  0.00  0.00    +0.036 C 
ATOM     16  C   UNL     1      36.075 -18.599 -22.053  0.00  0.00    +0.219 C 
ENDBRANCH   3  11
BRANCH   4  18
ATOM     17  N   UNL     1      34.446 -11.143 -25.016  0.00  0.00    -0.409 NA
ATOM     18  C   UNL     1      33.643 -12.226 -24.914  0.00  0.00    +0.127 C 
ATOM     19  C   UNL     1      33.313 -13.050 -25.979  0.00  0.00    +0.086 C 
ATOM     20  C   UNL     1      34.940 -10.876 -26.246  0.00  0.00    +0.109 C 
ATOM     21  C   UNL     1      33.842 -12.742 -27.227  0.00  0.00    -0.016 C 
ATOM     22  C   UNL     1      34.671 -11.637 -27.372  0.00  0.00    +0.023 C 
ATOM     23  C   UNL     1      35.826  -9.680 -26.365  0.00  0.00    +0.066 C 
ENDBRANCH   4  18
BRANCH   5  24
ATOM     24  C   UNL     1      31.305 -11.392 -20.673  0.00  0.00    +0.128 C 
BRANCH  24  25
ATOM     25  N   UNL     1      30.724 -10.180 -21.229  0.00  0.00    -0.328 N 
ATOM     26  H   UNL     1      29.778 -10.198 -21.498  0.00  0.00    +0.147 HD
BRANCH  25  28
ATOM     27  F   UNL     1      30.421  -8.654 -23.517  0.00  0.00    -0.203 F 
ATOM     28  C   UNL     1      31.432  -9.008 -21.398  0.00  0.00    +0.073 C 
ATOM     29  C   UNL     1      31.267  -8.251 -22.558  0.00  0.00    +0.153 C 
ATOM     30  C   UNL     1      32.317  -8.580 -20.407  0.00  0.00    +0.017 C 
ATOM     31  C   UNL     1      31.983  -7.067 -22.728  0.00  0.00    +0.031 C 
ATOM     32  C   UNL     1      33.034  -7.395 -20.577  0.00  0.00    +0.001 C 
ATOM     33  C   UNL     1      32.867  -6.639 -21.737  0.00  0.00    +0.002 C 
ENDBRANCH  25  28
ENDBRANCH  24  25
ENDBRANCH   5  24
TORSDOF 5
ENDMDL
MODEL 5
REMARK VINA RESULT:     -10.4     10.776     16.374
REMARK  Name = 54766013
REMARK  5 active torsions:
REMARK  status: ('A' for Active; 'I' for Inactive)
REMARK    1  A    between atoms: C_3  and  C_11
REMARK    2  A    between atoms: C_4  and  C_18
REMARK    3  A    between atoms: C_5  and  C_24
REMARK    4  A    between atoms: C_24  and  N_25
REMARK    5  A    between atoms: N_25  and  C_28
REMARK                            x       y       z     vdW  Elec       q    Type
REMARK                         _______ _______ _______ _____ _____    ______ ____
ROOT
ATOM      1  N   UNL     1      33.165 -11.031 -23.907  0.00  0.00    -0.315 N 
ATOM      2  N   UNL     1      33.824 -10.077 -25.801  0.00  0.00    -0.317 N 
ATOM      3  C   UNL     1      33.517  -9.117 -24.871  0.00  0.00    +0.063 C 
ATOM      4  C   UNL     1      33.105  -9.684 -23.688  0.00  0.00    +0.085 C 
ATOM      5  C   UNL     1      33.602 -11.220 -25.189  0.00  0.00    +0.164 C 
ATOM      6  H   UNL     1      32.936 -11.738 -23.261  0.00  0.00    +0.148 HD
ATOM      7  H   UNL     1      34.142  -9.941 -26.723  0.00  0.00    +0.148 HD
ENDROOT
BRANCH   3  11
ATOM      8  N   UNL     1      32.624  -5.599 -25.739  0.00  0.00    -0.170 N 
ATOM      9  N   UNL     1      31.626  -4.718 -26.006  0.00  0.00    -0.150 NA
ATOM     10  N   UNL     1      33.651  -3.667 -26.128  0.00  0.00    -0.206 NA
ATOM     11  C   UNL     1      33.641  -7.681 -25.189  0.00  0.00    +0.031 C 
ATOM     12  C   UNL     1      32.528  -6.957 -25.427  0.00  0.00    +0.092 C 
ATOM     13  C   UNL     1      34.932  -6.991 -25.276  0.00  0.00    +0.006 C 
ATOM     14  C   UNL     1      33.848  -4.930 -25.822  0.00  0.00    +0.157 C 
ATOM     15  C   UNL     1      35.026  -5.683 -25.576  0.00  0.00    +0.036 C 
ATOM     16  C   UNL     1      32.297  -3.590 -26.228  0.00  0.00    +0.219 C 
ENDBRANCH   3  11
BRANCH   4  18
ATOM     17  N   UNL     1      31.888  -9.917 -21.689  0.00  0.00    -0.409 NA
ATOM     18  C   UNL     1      32.682  -9.116 -22.433  0.00  0.00    +0.127 C 
ATOM     19  C   UNL     1      33.080  -7.845 -22.048  0.00  0.00    +0.086 C 
ATOM     20  C   UNL     1      31.472  -9.418 -20.503  0.00  0.00    +0.109 C 
ATOM     21  C   UNL     1      32.632  -7.368 -20.821  0.00  0.00    -0.016 C 
ATOM     22  C   UNL     1      31.814  -8.163 -20.028  0.00  0.00    +0.023 C 
ATOM     23  C   UNL     1      30.593 -10.299 -19.679  0.00  0.00    +0.066 C 
ENDBRANCH   4  18
BRANCH   5  24
ATOM     24  C   UNL     1      33.779 -12.572 -25.749  0.00  0.00    +0.128 C 
BRANCH  24  25
ATOM     25  N   UNL     1      33.098 -13.575 -24.948  0.00  0.00    -0.328 N 
ATOM     26  H   UNL     1      32.150 -13.431 -24.727  0.00  0.00    +0.147 HD
BRANCH  25  28
ATOM     27  F   UNL     1      34.220 -13.656 -22.419  0.00  0.00    -0.203 F 
ATOM     28  C   UNL     1      33.714 -14.719 -24.481  0.00  0.00    +0.073 C 
ATOM     29  C   UNL     1      34.274 -14.742 -23.204  0.00  0.00    +0.153 C 
ATOM     30  C   UNL     1      33.777 -15.855 -25.290  0.00  0.00    +0.017 C 
ATOM     31  C   UNL     1      34.895 -15.898 -22.734  0.00  0.00    +0.031 C 
ATOM     32  C   UNL     1      34.398 -17.012 -24.820  0.00  0.00    +0.001 C 
ATOM     33  C   UNL     1      34.957 -17.034 -23.543  0.00  0.00    +0.002 C 
ENDBRANCH  25  28
ENDBRANCH  24  25
ENDBRANCH   5  24
TORSDOF 5
ENDMDL
MODEL 6
REMARK VINA RESULT:     -10.4      9.035     14.586
REMARK  Name = 54766013
REMARK  5 active torsions:
REMARK  status: ('A' for Active; 'I' for Inactive)
REMARK    1  A    between atoms: C_3  and  C_11
REMARK    2  A    between atoms: C_4  and  C_18
REMARK    3  A    between atoms: C_5  and  C_24
REMARK    4  A    between atoms: C_24  and  N_25
REMARK    5  A    between atoms: N_25  and  C_28
REMARK                            x       y       z     vdW  Elec       q    Type
REMARK                         _______ _______ _______ _____ _____    ______ ____
ROOT
ATOM      1  N   UNL     1      32.704 -13.380 -23.358  0.00  0.00    -0.315 N 
ATOM      2  N   UNL     1      33.732 -12.509 -25.123  0.00  0.00    -0.317 N 
ATOM      3  C   UNL     1      33.399 -11.518 -24.235  0.00  0.00    +0.063 C 
ATOM      4  C   UNL     1      32.761 -12.034 -23.131  0.00  0.00    +0.085 C 
ATOM      5  C   UNL     1      33.300 -13.618 -24.566  0.00  0.00    +0.164 C 
ATOM      6  H   UNL     1      32.308 -14.055 -22.761  0.00  0.00    +0.148 HD
ATOM      7  H   UNL     1      34.193 -12.411 -25.988  0.00  0.00    +0.148 HD
ENDROOT
BRANCH   3  11
ATOM      8  N   UNL     1      33.024  -7.914 -25.130  0.00  0.00    -0.170 N 
ATOM      9  N   UNL     1      32.170  -6.921 -25.485  0.00  0.00    -0.150 NA
ATOM     10  N   UNL     1      34.306  -6.116 -25.374  0.00  0.00    -0.206 NA
ATOM     11  C   UNL     1      33.725 -10.105 -24.513  0.00  0.00    +0.031 C 
ATOM     12  C   UNL     1      32.736  -9.254 -24.854  0.00  0.00    +0.092 C 
ATOM     13  C   UNL     1      35.089  -9.573 -24.450  0.00  0.00    +0.006 C 
ATOM     14  C   UNL     1      34.319  -7.395 -25.071  0.00  0.00    +0.157 C 
ATOM     15  C   UNL     1      35.368  -8.284 -24.715  0.00  0.00    +0.036 C 
ATOM     16  C   UNL     1      32.989  -5.878 -25.616  0.00  0.00    +0.219 C 
ENDBRANCH   3  11
BRANCH   4  18
ATOM     17  N   UNL     1      32.144 -10.070 -21.994  0.00  0.00    -0.409 NA
ATOM     18  C   UNL     1      32.224 -11.418 -21.944  0.00  0.00    +0.127 C 
ATOM     19  C   UNL     1      31.827 -12.179 -20.855  0.00  0.00    +0.086 C 
ATOM     20  C   UNL     1      31.643  -9.457 -20.898  0.00  0.00    +0.109 C 
ATOM     21  C   UNL     1      31.316 -11.512 -19.747  0.00  0.00    -0.016 C 
ATOM     22  C   UNL     1      31.218 -10.126 -19.761  0.00  0.00    +0.023 C 
ATOM     23  C   UNL     1      31.554  -7.968 -20.947  0.00  0.00    +0.066 C 
ENDBRANCH   4  18
BRANCH   5  24
ATOM     24  C   UNL     1      33.407 -14.983 -25.112  0.00  0.00    +0.128 C 
BRANCH  24  25
ATOM     25  N   UNL     1      34.660 -15.614 -24.730  0.00  0.00    -0.328 N 
ATOM     26  H   UNL     1      35.499 -15.234 -25.078  0.00  0.00    +0.147 HD
BRANCH  25  28
ATOM     27  F   UNL     1      34.988 -15.331 -21.997  0.00  0.00    -0.203 F 
ATOM     28  C   UNL     1      34.733 -16.719 -23.907  0.00  0.00    +0.073 C 
ATOM     29  C   UNL     1      34.899 -16.558 -22.531  0.00  0.00    +0.153 C 
ATOM     30  C   UNL     1      34.642 -18.001 -24.452  0.00  0.00    +0.017 C 
ATOM     31  C   UNL     1      34.973 -17.675 -21.701  0.00  0.00    +0.031 C 
ATOM     32  C   UNL     1      34.716 -19.119 -23.621  0.00  0.00    +0.001 C 
ATOM     33  C   UNL     1      34.881 -18.956 -22.245  0.00  0.00    +0.002 C 
ENDBRANCH  25  28
ENDBRANCH  24  25
ENDBRANCH   5  24
TORSDOF 5
ENDMDL
MODEL 7
REMARK VINA RESULT:     -10.3      1.491      4.505
REMARK  Name = 54766013
REMARK  5 active torsions:
REMARK  status: ('A' for Active; 'I' for Inactive)
REMARK    1  A    between atoms: C_3  and  C_11
REMARK    2  A    between atoms: C_4  and  C_18
REMARK    3  A    between atoms: C_5  and  C_24
REMARK    4  A    between atoms: C_24  and  N_25
REMARK    5  A    between atoms: N_25  and  C_28
REMARK                            x       y       z     vdW  Elec       q    Type
REMARK                         _______ _______ _______ _____ _____    ______ ____
ROOT
ATOM      1  N   UNL     1      34.794 -22.203 -18.458  0.00  0.00    -0.315 N 
ATOM      2  N   UNL     1      36.834 -22.436 -17.612  0.00  0.00    -0.317 N 
ATOM      3  C   UNL     1      35.898 -22.888 -16.717  0.00  0.00    +0.063 C 
ATOM      4  C   UNL     1      34.625 -22.754 -17.220  0.00  0.00    +0.085 C 
ATOM      5  C   UNL     1      36.137 -22.030 -18.650  0.00  0.00    +0.164 C 
ATOM      6  H   UNL     1      34.081 -21.973 -19.096  0.00  0.00    +0.148 HD
ATOM      7  H   UNL     1      37.813 -22.418 -17.501  0.00  0.00    +0.148 HD
ENDROOT
BRANCH   3  11
ATOM      8  N   UNL     1      36.800 -25.305 -14.020  0.00  0.00    -0.170 N 
ATOM      9  N   UNL     1      36.979 -26.607 -13.682  0.00  0.00    -0.150 NA
ATOM     10  N   UNL     1      37.378 -25.267 -11.875  0.00  0.00    -0.206 NA
ATOM     11  C   UNL     1      36.299 -23.433 -15.405  0.00  0.00    +0.031 C 
ATOM     12  C   UNL     1      36.429 -24.767 -15.255  0.00  0.00    +0.092 C 
ATOM     13  C   UNL     1      36.556 -22.589 -14.234  0.00  0.00    +0.006 C 
ATOM     14  C   UNL     1      37.049 -24.510 -12.898  0.00  0.00    +0.157 C 
ATOM     15  C   UNL     1      36.913 -23.104 -13.044  0.00  0.00    +0.036 C 
ATOM     16  C   UNL     1      37.321 -26.521 -12.398  0.00  0.00    +0.219 C 
ENDBRANCH   3  11
BRANCH   4  18
ATOM     17  N   UNL     1      33.337 -23.460 -15.383  0.00  0.00    -0.409 NA
ATOM     18  C   UNL     1      33.328 -23.076 -16.679  0.00  0.00    +0.127 C 
ATOM     19  C   UNL     1      32.182 -22.984 -17.453  0.00  0.00    +0.086 C 
ATOM     20  C   UNL     1      32.137 -23.767 -14.840  0.00  0.00    +0.109 C 
ATOM     21  C   UNL     1      30.968 -23.308 -16.858  0.00  0.00    -0.016 C 
ATOM     22  C   UNL     1      30.936 -23.708 -15.527  0.00  0.00    +0.023 C 
ATOM     23  C   UNL     1      32.142 -24.193 -13.409  0.00  0.00    +0.066 C 
ENDBRANCH   4  18
BRANCH   5  24
ATOM     24  C   UNL     1      36.666 -21.451 -19.899  0.00  0.00    +0.128 C 
BRANCH  24  25
ATOM     25  N   UNL     1      36.255 -20.066 -20.061  0.00  0.00    -0.328 N 
ATOM     26  H   UNL     1      36.352 -19.458 -19.294  0.00  0.00    +0.147 HD
BRANCH  25  28
ATOM     27  F   UNL     1      33.652 -20.619 -20.820  0.00  0.00    -0.203 F 
ATOM     28  C   UNL     1      35.737 -19.561 -21.236  0.00  0.00    +0.073 C 
ATOM     29  C   UNL     1      34.423 -19.850 -21.603  0.00  0.00    +0.153 C 
ATOM     30  C   UNL     1      36.530 -18.760 -22.060  0.00  0.00    +0.017 C 
ATOM     31  C   UNL     1      33.900 -19.339 -22.791  0.00  0.00    +0.031 C 
ATOM     32  C   UNL     1      36.008 -18.249 -23.248  0.00  0.00    +0.001 C 
ATOM     33  C   UNL     1      34.693 -18.538 -23.614  0.00  0.00    +0.002 C 
ENDBRANCH  25  28
ENDBRANCH  24  25
ENDBRANCH   5  24
TORSDOF 5
ENDMDL
MODEL 8
REMARK VINA RESULT:     -10.2      7.070     12.834
REMARK  Name = 54766013
REMARK  5 active torsions:
REMARK  status: ('A' for Active; 'I' for Inactive)
REMARK    1  A    between atoms: C_3  and  C_11
REMARK    2  A    between atoms: C_4  and  C_18
REMARK    3  A    between atoms: C_5  and  C_24
REMARK    4  A    between atoms: C_24  and  N_25
REMARK    5  A    between atoms: N_25  and  C_28
REMARK                            x       y       z     vdW  Elec       q    Type
REMARK                         _______ _______ _______ _____ _____    ______ ____
ROOT
ATOM      1  N   UNL     1      34.503 -15.090 -25.112  0.00  0.00    -0.315 N 
ATOM      2  N   UNL     1      33.790 -15.516 -23.052  0.00  0.00    -0.317 N 
ATOM      3  C   UNL     1      33.502 -14.218 -23.392  0.00  0.00    +0.063 C 
ATOM      4  C   UNL     1      33.935 -13.930 -24.665  0.00  0.00    +0.085 C 
ATOM      5  C   UNL     1      34.392 -16.014 -24.110  0.00  0.00    +0.164 C 
ATOM      6  H   UNL     1      34.915 -15.234 -25.994  0.00  0.00    +0.148 HD
ATOM      7  H   UNL     1      33.590 -15.975 -22.204  0.00  0.00    +0.148 HD
ENDROOT
BRANCH   3  11
ATOM      8  N   UNL     1      31.922 -11.173 -21.924  0.00  0.00    -0.170 N 
ATOM      9  N   UNL     1      31.590  -9.870 -22.110  0.00  0.00    -0.150 NA
ATOM     10  N   UNL     1      30.937 -10.555 -20.031  0.00  0.00    -0.206 NA
ATOM     11  C   UNL     1      32.814 -13.319 -22.445  0.00  0.00    +0.031 C 
ATOM     12  C   UNL     1      32.565 -12.043 -22.808  0.00  0.00    +0.092 C 
ATOM     13  C   UNL     1      32.391 -13.740 -21.107  0.00  0.00    +0.006 C 
ATOM     14  C   UNL     1      31.513 -11.564 -20.647  0.00  0.00    +0.157 C 
ATOM     15  C   UNL     1      31.772 -12.904 -20.255  0.00  0.00    +0.036 C 
ATOM     16  C   UNL     1      31.009  -9.559 -20.953  0.00  0.00    +0.219 C 
ENDBRANCH   3  11
BRANCH   4  18
ATOM     17  N   UNL     1      34.542 -11.677 -24.953  0.00  0.00    -0.409 NA
ATOM     18  C   UNL     1      33.871 -12.733 -25.465  0.00  0.00    +0.127 C 
ATOM     19  C   UNL     1      33.172 -12.702 -26.661  0.00  0.00    +0.086 C 
ATOM     20  C   UNL     1      34.507 -10.536 -25.678  0.00  0.00    +0.109 C 
ATOM     21  C   UNL     1      33.161 -11.510 -27.377  0.00  0.00    -0.016 C 
ATOM     22  C   UNL     1      33.838 -10.402 -26.884  0.00  0.00    +0.023 C 
ATOM     23  C   UNL     1      35.245  -9.366 -25.116  0.00  0.00    +0.066 C 
ENDBRANCH   4  18
BRANCH   5  24
ATOM     24  C   UNL     1      34.910 -17.385 -24.270  0.00  0.00    +0.128 C 
BRANCH  24  25
ATOM     25  N   UNL     1      35.827 -17.738 -23.198  0.00  0.00    -0.328 N 
ATOM     26  H   UNL     1      36.680 -17.250 -23.135  0.00  0.00    +0.147 HD
BRANCH  25  28
ATOM     27  F   UNL     1      37.843 -18.760 -21.601  0.00  0.00    -0.203 F 
ATOM     28  C   UNL     1      35.564 -18.721 -22.267  0.00  0.00    +0.073 C 
ATOM     29  C   UNL     1      36.592 -19.225 -21.470  0.00  0.00    +0.153 C 
ATOM     30  C   UNL     1      34.266 -19.214 -22.123  0.00  0.00    +0.017 C 
ATOM     31  C   UNL     1      36.324 -20.219 -20.530  0.00  0.00    +0.031 C 
ATOM     32  C   UNL     1      33.998 -20.209 -21.182  0.00  0.00    +0.001 C 
ATOM     33  C   UNL     1      35.026 -20.711 -20.386  0.00  0.00    +0.002 C 
ENDBRANCH  25  28
ENDBRANCH  24  25
ENDBRANCH   5  24
TORSDOF 5
ENDMDL
MODEL 9
REMARK VINA RESULT:     -10.1      8.720     13.669
REMARK  Name = 54766013
REMARK  5 active torsions:
REMARK  status: ('A' for Active; 'I' for Inactive)
REMARK    1  A    between atoms: C_3  and  C_11
REMARK    2  A    between atoms: C_4  and  C_18
REMARK    3  A    between atoms: C_5  and  C_24
REMARK    4  A    between atoms: C_24  and  N_25
REMARK    5  A    between atoms: N_25  and  C_28
REMARK                            x       y       z     vdW  Elec       q    Type
REMARK                         _______ _______ _______ _____ _____    ______ ____
ROOT
ATOM      1  N   UNL     1      33.867 -13.256 -25.464  0.00  0.00    -0.315 N 
ATOM      2  N   UNL     1      32.841 -14.138 -23.703  0.00  0.00    -0.317 N 
ATOM      3  C   UNL     1      32.943 -12.778 -23.557  0.00  0.00    +0.063 C 
ATOM      4  C   UNL     1      33.576 -12.208 -24.637  0.00  0.00    +0.085 C 
ATOM      5  C   UNL     1      33.407 -14.394 -24.862  0.00  0.00    +0.164 C 
ATOM      6  H   UNL     1      34.324 -13.202 -26.334  0.00  0.00    +0.148 HD
ATOM      7  H   UNL     1      32.434 -14.781 -23.078  0.00  0.00    +0.148 HD
ENDROOT
BRANCH   3  11
ATOM      8  N   UNL     1      31.812 -10.090 -21.227  0.00  0.00    -0.170 N 
ATOM      9  N   UNL     1      31.634  -8.758 -21.040  0.00  0.00    -0.150 NA
ATOM     10  N   UNL     1      30.995  -9.905 -19.169  0.00  0.00    -0.206 NA
ATOM     11  C   UNL     1      32.412 -12.099 -22.359  0.00  0.00    +0.031 C 
ATOM     12  C   UNL     1      32.304 -10.753 -22.354  0.00  0.00    +0.092 C 
ATOM     13  C   UNL     1      32.001 -12.818 -21.149  0.00  0.00    +0.006 C 
ATOM     14  C   UNL     1      31.416 -10.765 -20.070  0.00  0.00    +0.157 C 
ATOM     15  C   UNL     1      31.527 -12.181 -20.064  0.00  0.00    +0.036 C 
ATOM     16  C   UNL     1      31.147  -8.710 -19.801  0.00  0.00    +0.219 C 
ENDBRANCH   3  11
BRANCH   4  18
ATOM     17  N   UNL     1      32.860 -10.016 -25.098  0.00  0.00    -0.409 NA
ATOM     18  C   UNL     1      33.918 -10.845 -24.954  0.00  0.00    +0.127 C 
ATOM     19  C   UNL     1      35.239 -10.447 -25.089  0.00  0.00    +0.086 C 
ATOM     20  C   UNL     1      33.142  -8.727 -25.393  0.00  0.00    +0.109 C 
ATOM     21  C   UNL     1      35.488  -9.112 -25.392  0.00  0.00    -0.016 C 
ATOM     22  C   UNL     1      34.426  -8.230 -25.549  0.00  0.00    +0.023 C 
ATOM     23  C   UNL     1      31.977  -7.808 -25.555  0.00  0.00    +0.066 C 
ENDBRANCH   4  18
BRANCH   5  24
ATOM     24  C   UNL     1      33.562 -15.715 -25.497  0.00  0.00    +0.128 C 
BRANCH  24  25
ATOM     25  N   UNL     1      34.759 -16.396 -25.029  0.00  0.00    -0.328 N 
ATOM     26  H   UNL     1      35.603 -16.237 -25.509  0.00  0.00    +0.147 HD
BRANCH  25  28
ATOM     27  F   UNL     1      33.782 -18.976 -25.248  0.00  0.00    -0.203 F 
ATOM     28  C   UNL     1      34.771 -17.253 -23.947  0.00  0.00    +0.073 C 
ATOM     29  C   UNL     1      34.274 -18.550 -24.075  0.00  0.00    +0.153 C 
ATOM     30  C   UNL     1      35.279 -16.819 -22.722  0.00  0.00    +0.017 C 
ATOM     31  C   UNL     1      34.286 -19.414 -22.981  0.00  0.00    +0.031 C 
ATOM     32  C   UNL     1      35.292 -17.684 -21.627  0.00  0.00    +0.001 C 
ATOM     33  C   UNL     1      34.796 -18.981 -21.756  0.00  0.00    +0.002 C 
ENDBRANCH  25  28
ENDBRANCH  24  25
ENDBRANCH   5  24
TORSDOF 5
ENDMDL
