MODEL 1
REMARK VINA RESULT:     -11.5      0.000      0.000
REMARK  Name = 24743471
REMARK  3 active torsions:
REMARK  status: ('A' for Active; 'I' for Inactive)
REMARK    1  A    between atoms: C_1  and  N_7
REMARK    2  A    between atoms: C_6  and  C_17
REMARK    3  A    between atoms: C_22  and  N_24
REMARK                            x       y       z     vdW  Elec       q    Type
REMARK                         _______ _______ _______ _____ _____    ______ ____
ROOT
ATOM      1  C   UNL     1      35.978 -23.492 -15.891  0.00  0.00    +0.048 C 
ATOM      2  C   UNL     1      34.736 -23.523 -16.525  0.00  0.00    +0.015 C 
ATOM      3  C   UNL     1      37.003 -22.697 -16.405  0.00  0.00    +0.015 C 
ATOM      4  C   UNL     1      34.519 -22.760 -17.672  0.00  0.00    +0.001 C 
ATOM      5  C   UNL     1      36.785 -21.933 -17.552  0.00  0.00    +0.001 C 
ATOM      6  C   UNL     1      35.542 -21.965 -18.185  0.00  0.00    +0.000 C 
ENDROOT
BRANCH   1   7
ATOM      7  N   UNL     1      36.195 -24.247 -14.755  0.00  0.00    -0.311 N 
ATOM      8  N   UNL     1      38.880 -26.388 -14.125  0.00  0.00    +0.387 N 
ATOM      9  C   UNL     1      36.776 -26.008 -13.266  0.00  0.00    -0.003 C 
ATOM     10  C   UNL     1      36.729 -25.612 -14.752  0.00  0.00    +0.050 C 
ATOM     11  C   UNL     1      35.869 -25.018 -12.557  0.00  0.00    +0.021 C 
ATOM     12  C   UNL     1      38.250 -25.917 -12.893  0.00  0.00    -0.076 C 
ATOM     13  C   UNL     1      38.193 -25.674 -15.205  0.00  0.00    -0.057 C 
ATOM     14  C   UNL     1      35.958 -23.751 -13.401  0.00  0.00    +0.091 C 
ATOM     15  C   UNL     1      40.318 -26.164 -14.136  0.00  0.00    -0.101 C 
ATOM     16  H   UNL     1      38.787 -27.399 -14.229  0.00  0.00    -0.080 HD
ENDBRANCH   1   7
BRANCH   6  17
ATOM     17  C   UNL     1      35.317 -21.173 -19.375  0.00  0.00    +0.000 C 
ATOM     18  C   UNL     1      36.392 -20.552 -20.012  0.00  0.00    +0.001 C 
ATOM     19  C   UNL     1      34.027 -21.029 -19.883  0.00  0.00    +0.001 C 
ATOM     20  C   UNL     1      36.176 -19.788 -21.159  0.00  0.00    +0.017 C 
ATOM     21  C   UNL     1      33.810 -20.265 -21.030  0.00  0.00    +0.017 C 
ATOM     22  C   UNL     1      34.885 -19.645 -21.668  0.00  0.00    +0.077 C 
BRANCH  22  24
ATOM     23  O   UNL     1      35.302 -16.727 -22.071  0.00  0.00    -0.268 OA
ATOM     24  N   UNL     1      34.661 -18.854 -22.855  0.00  0.00    -0.155 N 
ATOM     25  N   UNL     1      34.232 -19.597 -23.930  0.00  0.00    -0.170 NA
ATOM     26  C   UNL     1      34.861 -17.472 -22.946  0.00  0.00    +0.272 C 
ATOM     27  C   UNL     1      34.524 -16.833 -24.243  0.00  0.00    +0.062 C 
ATOM     28  C   UNL     1      33.977 -18.985 -25.035  0.00  0.00    +0.118 C 
ATOM     29  C   UNL     1      34.093 -17.551 -25.274  0.00  0.00    +0.027 C 
ENDBRANCH  22  24
ENDBRANCH   6  17
TORSDOF 3
ENDMDL
MODEL 2
REMARK VINA RESULT:     -11.1      0.967      1.559
REMARK  Name = 24743471
REMARK  3 active torsions:
REMARK  status: ('A' for Active; 'I' for Inactive)
REMARK    1  A    between atoms: C_1  and  N_7
REMARK    2  A    between atoms: C_6  and  C_17
REMARK    3  A    between atoms: C_22  and  N_24
REMARK                            x       y       z     vdW  Elec       q    Type
REMARK                         _______ _______ _______ _____ _____    ______ ____
ROOT
ATOM      1  C   UNL     1      36.043 -23.455 -15.997  0.00  0.00    +0.048 C 
ATOM      2  C   UNL     1      34.831 -23.487 -16.685  0.00  0.00    +0.015 C 
ATOM      3  C   UNL     1      37.074 -22.624 -16.438  0.00  0.00    +0.015 C 
ATOM      4  C   UNL     1      34.648 -22.689 -17.815  0.00  0.00    +0.001 C 
ATOM      5  C   UNL     1      36.890 -21.825 -17.568  0.00  0.00    +0.001 C 
ATOM      6  C   UNL     1      35.677 -21.858 -18.255  0.00  0.00    +0.000 C 
ENDROOT
BRANCH   1   7
ATOM      7  N   UNL     1      36.225 -24.244 -14.879  0.00  0.00    -0.311 N 
ATOM      8  N   UNL     1      38.909 -26.377 -14.216  0.00  0.00    +0.387 N 
ATOM      9  C   UNL     1      36.770 -26.047 -13.426  0.00  0.00    -0.003 C 
ATOM     10  C   UNL     1      36.775 -25.603 -14.899  0.00  0.00    +0.050 C 
ATOM     11  C   UNL     1      35.825 -25.089 -12.720  0.00  0.00    +0.021 C 
ATOM     12  C   UNL     1      38.227 -25.953 -12.994  0.00  0.00    -0.076 C 
ATOM     13  C   UNL     1      38.255 -25.635 -15.299  0.00  0.00    -0.057 C 
ATOM     14  C   UNL     1      35.933 -23.795 -13.519  0.00  0.00    +0.091 C 
ATOM     15  C   UNL     1      40.343 -26.139 -14.165  0.00  0.00    -0.101 C 
ATOM     16  H   UNL     1      38.832 -27.386 -14.356  0.00  0.00    -0.080 HD
ENDBRANCH   1   7
BRANCH   6  17
ATOM     17  C   UNL     1      35.488 -21.030 -19.427  0.00  0.00    +0.000 C 
ATOM     18  C   UNL     1      34.219 -20.903 -19.993  0.00  0.00    +0.001 C 
ATOM     19  C   UNL     1      36.573 -20.360 -19.990  0.00  0.00    +0.001 C 
ATOM     20  C   UNL     1      34.036 -20.105 -21.122  0.00  0.00    +0.017 C 
ATOM     21  C   UNL     1      36.390 -19.561 -21.119  0.00  0.00    +0.017 C 
ATOM     22  C   UNL     1      35.121 -19.434 -21.685  0.00  0.00    +0.077 C 
BRANCH  22  24
ATOM     23  O   UNL     1      34.570 -20.266 -24.488  0.00  0.00    -0.268 OA
ATOM     24  N   UNL     1      34.932 -18.608 -22.854  0.00  0.00    -0.155 N 
ATOM     25  N   UNL     1      34.987 -17.260 -22.582  0.00  0.00    -0.170 NA
ATOM     26  C   UNL     1      34.701 -19.091 -24.147  0.00  0.00    +0.272 C 
ATOM     27  C   UNL     1      34.584 -18.077 -25.226  0.00  0.00    +0.062 C 
ATOM     28  C   UNL     1      34.855 -16.432 -23.560  0.00  0.00    +0.118 C 
ATOM     29  C   UNL     1      34.655 -16.777 -24.963  0.00  0.00    +0.027 C 
ENDBRANCH  22  24
ENDBRANCH   6  17
TORSDOF 3
ENDMDL
MODEL 3
REMARK VINA RESULT:     -10.8      7.748     15.445
REMARK  Name = 24743471
REMARK  3 active torsions:
REMARK  status: ('A' for Active; 'I' for Inactive)
REMARK    1  A    between atoms: C_1  and  N_7
REMARK    2  A    between atoms: C_6  and  C_17
REMARK    3  A    between atoms: C_22  and  N_24
REMARK                            x       y       z     vdW  Elec       q    Type
REMARK                         _______ _______ _______ _____ _____    ______ ____
ROOT
ATOM      1  C   UNL     1      32.954  -8.737 -24.801  0.00  0.00    +0.048 C 
ATOM      2  C   UNL     1      33.443  -9.460 -25.889  0.00  0.00    +0.015 C 
ATOM      3  C   UNL     1      32.709  -9.382 -23.588  0.00  0.00    +0.015 C 
ATOM      4  C   UNL     1      33.687 -10.828 -25.764  0.00  0.00    +0.001 C 
ATOM      5  C   UNL     1      32.955 -10.750 -23.464  0.00  0.00    +0.001 C 
ATOM      6  C   UNL     1      33.443 -11.472 -24.553  0.00  0.00    +0.000 C 
ENDROOT
BRANCH   1   7
ATOM      7  N   UNL     1      32.712  -7.383 -24.922  0.00  0.00    -0.311 N 
ATOM      8  N   UNL     1      34.950  -4.928 -25.997  0.00  0.00    +0.387 N 
ATOM      9  C   UNL     1      32.937  -5.015 -24.880  0.00  0.00    -0.003 C 
ATOM     10  C   UNL     1      33.673  -6.331 -24.575  0.00  0.00    +0.050 C 
ATOM     11  C   UNL     1      31.467  -5.387 -24.968  0.00  0.00    +0.021 C 
ATOM     12  C   UNL     1      33.558  -4.522 -26.180  0.00  0.00    -0.076 C 
ATOM     13  C   UNL     1      34.888  -6.310 -25.512  0.00  0.00    -0.057 C 
ATOM     14  C   UNL     1      31.471  -6.830 -25.461  0.00  0.00    +0.091 C 
ATOM     15  C   UNL     1      35.733  -4.801 -27.217  0.00  0.00    -0.101 C 
ATOM     16  H   UNL     1      35.431  -4.321 -25.331  0.00  0.00    -0.080 HD
ENDBRANCH   1   7
BRANCH   6  17
ATOM     17  C   UNL     1      33.697 -12.891 -24.423  0.00  0.00    +0.000 C 
ATOM     18  C   UNL     1      34.184 -13.404 -23.221  0.00  0.00    +0.001 C 
ATOM     19  C   UNL     1      33.456 -13.744 -25.500  0.00  0.00    +0.001 C 
ATOM     20  C   UNL     1      34.429 -14.772 -23.095  0.00  0.00    +0.017 C 
ATOM     21  C   UNL     1      33.700 -15.111 -25.374  0.00  0.00    +0.017 C 
ATOM     22  C   UNL     1      34.187 -15.625 -24.172  0.00  0.00    +0.077 C 
BRANCH  22  24
ATOM     23  O   UNL     1      32.828 -17.896 -25.532  0.00  0.00    -0.268 OA
ATOM     24  N   UNL     1      34.441 -17.041 -24.042  0.00  0.00    -0.155 N 
ATOM     25  N   UNL     1      35.483 -17.331 -23.192  0.00  0.00    -0.170 NA
ATOM     26  C   UNL     1      33.728 -18.046 -24.706  0.00  0.00    +0.272 C 
ATOM     27  C   UNL     1      34.109 -19.447 -24.398  0.00  0.00    +0.062 C 
ATOM     28  C   UNL     1      35.777 -18.568 -22.984  0.00  0.00    +0.118 C 
ATOM     29  C   UNL     1      35.104 -19.725 -23.563  0.00  0.00    +0.027 C 
ENDBRANCH  22  24
ENDBRANCH   6  17
TORSDOF 3
ENDMDL
MODEL 4
REMARK VINA RESULT:     -10.3      1.404      2.374
REMARK  Name = 24743471
REMARK  3 active torsions:
REMARK  status: ('A' for Active; 'I' for Inactive)
REMARK    1  A    between atoms: C_1  and  N_7
REMARK    2  A    between atoms: C_6  and  C_17
REMARK    3  A    between atoms: C_22  and  N_24
REMARK                            x       y       z     vdW  Elec       q    Type
REMARK                         _______ _______ _______ _____ _____    ______ ____
ROOT
ATOM      1  C   UNL     1      36.383 -23.704 -16.090  0.00  0.00    +0.048 C 
ATOM      2  C   UNL     1      37.408 -22.883 -16.559  0.00  0.00    +0.015 C 
ATOM      3  C   UNL     1      35.125 -23.662 -16.692  0.00  0.00    +0.015 C 
ATOM      4  C   UNL     1      37.176 -22.020 -17.630  0.00  0.00    +0.001 C 
ATOM      5  C   UNL     1      34.893 -22.799 -17.764  0.00  0.00    +0.001 C 
ATOM      6  C   UNL     1      35.919 -21.979 -18.232  0.00  0.00    +0.000 C 
ENDROOT
BRANCH   1   7
ATOM      7  N   UNL     1      36.612 -24.560 -15.031  0.00  0.00    -0.311 N 
ATOM      8  N   UNL     1      37.051 -23.694 -11.676  0.00  0.00    +0.387 N 
ATOM      9  C   UNL     1      37.434 -25.527 -13.019  0.00  0.00    -0.003 C 
ATOM     10  C   UNL     1      37.531 -24.285 -13.922  0.00  0.00    +0.050 C 
ATOM     11  C   UNL     1      36.803 -26.605 -13.883  0.00  0.00    +0.021 C 
ATOM     12  C   UNL     1      36.592 -25.073 -11.834  0.00  0.00    -0.076 C 
ATOM     13  C   UNL     1      37.053 -23.132 -13.031  0.00  0.00    -0.057 C 
ATOM     14  C   UNL     1      35.921 -25.837 -14.862  0.00  0.00    +0.091 C 
ATOM     15  C   UNL     1      36.219 -22.932 -10.759  0.00  0.00    -0.101 C 
ATOM     16  H   UNL     1      37.981 -23.656 -11.256  0.00  0.00    -0.080 HD
ENDBRANCH   1   7
BRANCH   6  17
ATOM     17  C   UNL     1      35.678 -21.083 -19.343  0.00  0.00    +0.000 C 
ATOM     18  C   UNL     1      36.722 -20.314 -19.857  0.00  0.00    +0.001 C 
ATOM     19  C   UNL     1      34.402 -20.990 -19.899  0.00  0.00    +0.001 C 
ATOM     20  C   UNL     1      36.490 -19.451 -20.929  0.00  0.00    +0.017 C 
ATOM     21  C   UNL     1      34.170 -20.126 -20.970  0.00  0.00    +0.017 C 
ATOM     22  C   UNL     1      35.214 -19.357 -21.484  0.00  0.00    +0.077 C 
BRANCH  22  24
ATOM     23  O   UNL     1      34.582 -20.024 -24.314  0.00  0.00    -0.268 OA
ATOM     24  N   UNL     1      34.974 -18.463 -22.593  0.00  0.00    -0.155 N 
ATOM     25  N   UNL     1      35.018 -17.135 -22.240  0.00  0.00    -0.170 NA
ATOM     26  C   UNL     1      34.708 -18.870 -23.906  0.00  0.00    +0.272 C 
ATOM     27  C   UNL     1      34.539 -17.794 -24.915  0.00  0.00    +0.062 C 
ATOM     28  C   UNL     1      34.842 -16.250 -23.161  0.00  0.00    +0.118 C 
ATOM     29  C   UNL     1      34.600 -16.512 -24.574  0.00  0.00    +0.027 C 
ENDBRANCH  22  24
ENDBRANCH   6  17
TORSDOF 3
ENDMDL
MODEL 5
REMARK VINA RESULT:      -9.4      9.883     17.529
REMARK  Name = 24743471
REMARK  3 active torsions:
REMARK  status: ('A' for Active; 'I' for Inactive)
REMARK    1  A    between atoms: C_1  and  N_7
REMARK    2  A    between atoms: C_6  and  C_17
REMARK    3  A    between atoms: C_22  and  N_24
REMARK                            x       y       z     vdW  Elec       q    Type
REMARK                         _______ _______ _______ _____ _____    ______ ____
ROOT
ATOM      1  C   UNL     1      32.482  -6.030 -24.610  0.00  0.00    +0.048 C 
ATOM      2  C   UNL     1      31.750  -6.930 -25.385  0.00  0.00    +0.015 C 
ATOM      3  C   UNL     1      33.481  -6.498 -23.755  0.00  0.00    +0.015 C 
ATOM      4  C   UNL     1      32.016  -8.297 -25.305  0.00  0.00    +0.001 C 
ATOM      5  C   UNL     1      33.747  -7.865 -23.677  0.00  0.00    +0.001 C 
ATOM      6  C   UNL     1      33.014  -8.764 -24.452  0.00  0.00    +0.000 C 
ENDROOT
BRANCH   1   7
ATOM      7  N   UNL     1      32.220  -4.677 -24.688  0.00  0.00    -0.311 N 
ATOM      8  N   UNL     1      32.249  -2.684 -27.556  0.00  0.00    +0.387 N 
ATOM      9  C   UNL     1      32.290  -2.372 -25.274  0.00  0.00    -0.003 C 
ATOM     10  C   UNL     1      32.945  -3.737 -25.548  0.00  0.00    +0.050 C 
ATOM     11  C   UNL     1      31.533  -2.545 -23.968  0.00  0.00    +0.021 C 
ATOM     12  C   UNL     1      31.420  -2.113 -26.496  0.00  0.00    -0.076 C 
ATOM     13  C   UNL     1      32.690  -3.985 -27.040  0.00  0.00    -0.057 C 
ATOM     14  C   UNL     1      31.144  -4.019 -23.949  0.00  0.00    +0.091 C 
ATOM     15  C   UNL     1      31.537  -2.799 -28.819  0.00  0.00    -0.101 C 
ATOM     16  H   UNL     1      33.044  -2.082 -27.775  0.00  0.00    -0.080 HD
ENDBRANCH   1   7
BRANCH   6  17
ATOM     17  C   UNL     1      33.291 -10.182 -24.369  0.00  0.00    +0.000 C 
ATOM     18  C   UNL     1      32.753 -10.937 -23.326  0.00  0.00    +0.001 C 
ATOM     19  C   UNL     1      34.096 -10.793 -25.330  0.00  0.00    +0.001 C 
ATOM     20  C   UNL     1      33.020 -12.304 -23.246  0.00  0.00    +0.017 C 
ATOM     21  C   UNL     1      34.362 -12.160 -25.250  0.00  0.00    +0.017 C 
ATOM     22  C   UNL     1      33.824 -12.915 -24.207  0.00  0.00    +0.077 C 
BRANCH  22  24
ATOM     23  O   UNL     1      33.471 -15.010 -26.290  0.00  0.00    -0.268 OA
ATOM     24  N   UNL     1      34.100 -14.330 -24.123  0.00  0.00    -0.155 N 
ATOM     25  N   UNL     1      34.629 -14.711 -22.912  0.00  0.00    -0.170 NA
ATOM     26  C   UNL     1      33.877 -15.251 -25.153  0.00  0.00    +0.272 C 
ATOM     27  C   UNL     1      34.178 -16.674 -24.852  0.00  0.00    +0.062 C 
ATOM     28  C   UNL     1      34.889 -15.958 -22.722  0.00  0.00    +0.118 C 
ATOM     29  C   UNL     1      34.672 -17.040 -23.675  0.00  0.00    +0.027 C 
ENDBRANCH  22  24
ENDBRANCH   6  17
TORSDOF 3
ENDMDL
MODEL 6
REMARK VINA RESULT:      -9.2      6.255     13.752
REMARK  Name = 24743471
REMARK  3 active torsions:
REMARK  status: ('A' for Active; 'I' for Inactive)
REMARK    1  A    between atoms: C_1  and  N_7
REMARK    2  A    between atoms: C_6  and  C_17
REMARK    3  A    between atoms: C_22  and  N_24
REMARK                            x       y       z     vdW  Elec       q    Type
REMARK                         _______ _______ _______ _____ _____    ______ ____
ROOT
ATOM      1  C   UNL     1      32.971 -10.888 -23.938  0.00  0.00    +0.048 C 
ATOM      2  C   UNL     1      33.968 -11.583 -24.622  0.00  0.00    +0.015 C 
ATOM      3  C   UNL     1      32.362 -11.462 -22.820  0.00  0.00    +0.015 C 
ATOM      4  C   UNL     1      34.356 -12.851 -24.191  0.00  0.00    +0.001 C 
ATOM      5  C   UNL     1      32.752 -12.730 -22.389  0.00  0.00    +0.001 C 
ATOM      6  C   UNL     1      33.749 -13.424 -23.075  0.00  0.00    +0.000 C 
ENDROOT
BRANCH   1   7
ATOM      7  N   UNL     1      32.586  -9.632 -24.363  0.00  0.00    -0.311 N 
ATOM      8  N   UNL     1      32.121  -6.788 -22.392  0.00  0.00    +0.387 N 
ATOM      9  C   UNL     1      31.557  -7.493 -24.511  0.00  0.00    -0.003 C 
ATOM     10  C   UNL     1      31.664  -8.754 -23.636  0.00  0.00    +0.050 C 
ATOM     11  C   UNL     1      32.075  -7.906 -25.878  0.00  0.00    +0.021 C 
ATOM     12  C   UNL     1      32.399  -6.452 -23.787  0.00  0.00    -0.076 C 
ATOM     13  C   UNL     1      32.252  -8.246 -22.314  0.00  0.00    -0.057 C 
ATOM     14  C   UNL     1      33.093  -9.002 -25.580  0.00  0.00    +0.091 C 
ATOM     15  C   UNL     1      33.007  -6.099 -21.466  0.00  0.00    -0.101 C 
ATOM     16  H   UNL     1      31.187  -6.482 -22.114  0.00  0.00    -0.080 HD
ENDBRANCH   1   7
BRANCH   6  17
ATOM     17  C   UNL     1      34.152 -14.740 -22.627  0.00  0.00    +0.000 C 
ATOM     18  C   UNL     1      34.507 -15.715 -23.559  0.00  0.00    +0.001 C 
ATOM     19  C   UNL     1      34.184 -15.033 -21.264  0.00  0.00    +0.001 C 
ATOM     20  C   UNL     1      34.896 -16.984 -23.128  0.00  0.00    +0.017 C 
ATOM     21  C   UNL     1      34.573 -16.302 -20.832  0.00  0.00    +0.017 C 
ATOM     22  C   UNL     1      34.928 -17.277 -21.765  0.00  0.00    +0.077 C 
BRANCH  22  24
ATOM     23  O   UNL     1      33.307 -19.766 -21.591  0.00  0.00    -0.268 OA
ATOM     24  N   UNL     1      35.330 -18.590 -21.318  0.00  0.00    -0.155 N 
ATOM     25  N   UNL     1      36.659 -18.663 -20.970  0.00  0.00    -0.170 NA
ATOM     26  C   UNL     1      34.486 -19.704 -21.245  0.00  0.00    +0.272 C 
ATOM     27  C   UNL     1      35.079 -20.956 -20.710  0.00  0.00    +0.062 C 
ATOM     28  C   UNL     1      37.117 -19.785 -20.533  0.00  0.00    +0.118 C 
ATOM     29  C   UNL     1      36.358 -21.018 -20.358  0.00  0.00    +0.027 C 
ENDBRANCH  22  24
ENDBRANCH   6  17
TORSDOF 3
ENDMDL
MODEL 7
REMARK VINA RESULT:      -9.0      7.157     14.733
REMARK  Name = 24743471
REMARK  3 active torsions:
REMARK  status: ('A' for Active; 'I' for Inactive)
REMARK    1  A    between atoms: C_1  and  N_7
REMARK    2  A    between atoms: C_6  and  C_17
REMARK    3  A    between atoms: C_22  and  N_24
REMARK                            x       y       z     vdW  Elec       q    Type
REMARK                         _______ _______ _______ _____ _____    ______ ____
ROOT
ATOM      1  C   UNL     1      32.944  -9.389 -24.023  0.00  0.00    +0.048 C 
ATOM      2  C   UNL     1      32.416 -10.028 -22.902  0.00  0.00    +0.015 C 
ATOM      3  C   UNL     1      33.768 -10.091 -24.904  0.00  0.00    +0.015 C 
ATOM      4  C   UNL     1      32.712 -11.370 -22.660  0.00  0.00    +0.001 C 
ATOM      5  C   UNL     1      34.063 -11.433 -24.662  0.00  0.00    +0.001 C 
ATOM      6  C   UNL     1      33.534 -12.072 -23.540  0.00  0.00    +0.000 C 
ENDROOT
BRANCH   1   7
ATOM      7  N   UNL     1      32.652  -8.061 -24.264  0.00  0.00    -0.311 N 
ATOM      8  N   UNL     1      34.874  -5.558 -25.260  0.00  0.00    +0.387 N 
ATOM      9  C   UNL     1      32.755  -5.687 -24.364  0.00  0.00    -0.003 C 
ATOM     10  C   UNL     1      33.516  -6.937 -23.890  0.00  0.00    +0.050 C 
ATOM     11  C   UNL     1      31.324  -6.145 -24.583  0.00  0.00    +0.021 C 
ATOM     12  C   UNL     1      33.492  -5.244 -25.621  0.00  0.00    -0.076 C 
ATOM     13  C   UNL     1      34.825  -6.908 -24.689  0.00  0.00    -0.057 C 
ATOM     14  C   UNL     1      31.453  -7.615 -24.971  0.00  0.00    +0.091 C 
ATOM     15  C   UNL     1      35.780  -5.467 -26.395  0.00  0.00    -0.101 C 
ATOM     16  H   UNL     1      35.248  -4.884 -24.591  0.00  0.00    -0.080 HD
ENDBRANCH   1   7
BRANCH   6  17
ATOM     17  C   UNL     1      33.841 -13.464 -23.290  0.00  0.00    +0.000 C 
ATOM     18  C   UNL     1      33.823 -14.381 -24.342  0.00  0.00    +0.001 C 
ATOM     19  C   UNL     1      34.154 -13.888 -21.999  0.00  0.00    +0.001 C 
ATOM     20  C   UNL     1      34.119 -15.723 -24.101  0.00  0.00    +0.017 C 
ATOM     21  C   UNL     1      34.450 -15.231 -21.759  0.00  0.00    +0.017 C 
ATOM     22  C   UNL     1      34.431 -16.147 -22.810  0.00  0.00    +0.077 C 
BRANCH  22  24
ATOM     23  O   UNL     1      33.704 -18.536 -24.428  0.00  0.00    -0.268 OA
ATOM     24  N   UNL     1      34.738 -17.537 -22.562  0.00  0.00    -0.155 N 
ATOM     25  N   UNL     1      35.500 -17.732 -21.434  0.00  0.00    -0.170 NA
ATOM     26  C   UNL     1      34.329 -18.604 -23.370  0.00  0.00    +0.272 C 
ATOM     27  C   UNL     1      34.703 -19.966 -22.914  0.00  0.00    +0.062 C 
ATOM     28  C   UNL     1      35.809 -18.939 -21.105  0.00  0.00    +0.118 C 
ATOM     29  C   UNL     1      35.424 -20.153 -21.815  0.00  0.00    +0.027 C 
ENDBRANCH  22  24
ENDBRANCH   6  17
TORSDOF 3
ENDMDL
MODEL 8
REMARK VINA RESULT:      -8.9      7.735     15.552
REMARK  Name = 24743471
REMARK  3 active torsions:
REMARK  status: ('A' for Active; 'I' for Inactive)
REMARK    1  A    between atoms: C_1  and  N_7
REMARK    2  A    between atoms: C_6  and  C_17
REMARK    3  A    between atoms: C_22  and  N_24
REMARK                            x       y       z     vdW  Elec       q    Type
REMARK                         _______ _______ _______ _____ _____    ______ ____
ROOT
ATOM      1  C   UNL     1      33.875  -8.554 -25.191  0.00  0.00    +0.048 C 
ATOM      2  C   UNL     1      34.592  -9.355 -26.079  0.00  0.00    +0.015 C 
ATOM      3  C   UNL     1      33.215  -9.133 -24.106  0.00  0.00    +0.015 C 
ATOM      4  C   UNL     1      34.650 -10.735 -25.883  0.00  0.00    +0.001 C 
ATOM      5  C   UNL     1      33.274 -10.513 -23.910  0.00  0.00    +0.001 C 
ATOM      6  C   UNL     1      33.992 -11.313 -24.799  0.00  0.00    +0.000 C 
ENDROOT
BRANCH   1   7
ATOM      7  N   UNL     1      33.817  -7.187 -25.383  0.00  0.00    -0.311 N 
ATOM      8  N   UNL     1      31.144  -5.065 -24.647  0.00  0.00    +0.387 N 
ATOM      9  C   UNL     1      33.073  -4.989 -25.904  0.00  0.00    -0.003 C 
ATOM     10  C   UNL     1      32.633  -6.462 -25.852  0.00  0.00    +0.050 C 
ATOM     11  C   UNL     1      34.591  -5.022 -25.878  0.00  0.00    +0.021 C 
ATOM     12  C   UNL     1      32.419  -4.351 -24.685  0.00  0.00    -0.076 C 
ATOM     13  C   UNL     1      31.488  -6.478 -24.832  0.00  0.00    -0.057 C 
ATOM     14  C   UNL     1      34.929  -6.285 -25.093  0.00  0.00    +0.091 C 
ATOM     15  C   UNL     1      30.410  -4.827 -23.413  0.00  0.00    -0.101 C 
ATOM     16  H   UNL     1      30.511  -4.737 -25.378  0.00  0.00    -0.080 HD
ENDBRANCH   1   7
BRANCH   6  17
ATOM     17  C   UNL     1      34.052 -12.745 -24.595  0.00  0.00    +0.000 C 
ATOM     18  C   UNL     1      33.792 -13.611 -25.658  0.00  0.00    +0.001 C 
ATOM     19  C   UNL     1      34.368 -13.258 -23.338  0.00  0.00    +0.001 C 
ATOM     20  C   UNL     1      33.850 -14.991 -25.462  0.00  0.00    +0.017 C 
ATOM     21  C   UNL     1      34.426 -14.638 -23.142  0.00  0.00    +0.017 C 
ATOM     22  C   UNL     1      34.166 -15.504 -24.204  0.00  0.00    +0.077 C 
BRANCH  22  24
ATOM     23  O   UNL     1      35.137 -17.012 -21.831  0.00  0.00    -0.268 OA
ATOM     24  N   UNL     1      34.226 -16.933 -24.002  0.00  0.00    -0.155 N 
ATOM     25  N   UNL     1      33.723 -17.653 -25.060  0.00  0.00    -0.170 NA
ATOM     26  C   UNL     1      34.727 -17.558 -22.854  0.00  0.00    +0.272 C 
ATOM     27  C   UNL     1      34.749 -19.043 -22.861  0.00  0.00    +0.062 C 
ATOM     28  C   UNL     1      33.752 -18.940 -24.993  0.00  0.00    +0.118 C 
ATOM     29  C   UNL     1      34.279 -19.736 -23.891  0.00  0.00    +0.027 C 
ENDBRANCH  22  24
ENDBRANCH   6  17
TORSDOF 3
ENDMDL
MODEL 9
REMARK VINA RESULT:      -8.8      2.369     10.323
REMARK  Name = 24743471
REMARK  3 active torsions:
REMARK  status: ('A' for Active; 'I' for Inactive)
REMARK    1  A    between atoms: C_1  and  N_7
REMARK    2  A    between atoms: C_6  and  C_17
REMARK    3  A    between atoms: C_22  and  N_24
REMARK                            x       y       z     vdW  Elec       q    Type
REMARK                         _______ _______ _______ _____ _____    ______ ____
ROOT
ATOM      1  C   UNL     1      35.281 -19.203 -21.502  0.00  0.00    +0.048 C 
ATOM      2  C   UNL     1      34.207 -19.963 -21.040  0.00  0.00    +0.015 C 
ATOM      3  C   UNL     1      36.534 -19.326 -20.899  0.00  0.00    +0.015 C 
ATOM      4  C   UNL     1      34.385 -20.846 -19.974  0.00  0.00    +0.001 C 
ATOM      5  C   UNL     1      36.711 -20.210 -19.834  0.00  0.00    +0.001 C 
ATOM      6  C   UNL     1      35.636 -20.969 -19.372  0.00  0.00    +0.000 C 
ENDROOT
BRANCH   1   7
ATOM      7  N   UNL     1      35.107 -18.329 -22.557  0.00  0.00    -0.311 N 
ATOM      8  N   UNL     1      33.108 -18.802 -25.381  0.00  0.00    +0.387 N 
ATOM      9  C   UNL     1      34.828 -17.412 -24.734  0.00  0.00    -0.003 C 
ATOM     10  C   UNL     1      35.007 -18.732 -23.964  0.00  0.00    +0.050 C 
ATOM     11  C   UNL     1      35.268 -16.322 -23.773  0.00  0.00    +0.021 C 
ATOM     12  C   UNL     1      33.352 -17.387 -25.109  0.00  0.00    -0.076 C 
ATOM     13  C   UNL     1      33.727 -19.521 -24.262  0.00  0.00    -0.057 C 
ATOM     14  C   UNL     1      34.953 -16.886 -22.391  0.00  0.00    +0.091 C 
ATOM     15  C   UNL     1      31.692 -19.106 -25.522  0.00  0.00    -0.101 C 
ATOM     16  H   UNL     1      33.511 -19.086 -26.275  0.00  0.00    -0.080 HD
ENDBRANCH   1   7
BRANCH   6  17
ATOM     17  C   UNL     1      35.821 -21.885 -18.267  0.00  0.00    +0.000 C 
ATOM     18  C   UNL     1      37.037 -21.916 -17.584  0.00  0.00    +0.001 C 
ATOM     19  C   UNL     1      34.784 -22.736 -17.886  0.00  0.00    +0.001 C 
ATOM     20  C   UNL     1      37.216 -22.799 -16.519  0.00  0.00    +0.017 C 
ATOM     21  C   UNL     1      34.963 -23.619 -16.820  0.00  0.00    +0.017 C 
ATOM     22  C   UNL     1      36.179 -23.650 -16.137  0.00  0.00    +0.077 C 
BRANCH  22  24
ATOM     23  O   UNL     1      35.916 -23.130 -13.220  0.00  0.00    -0.268 OA
ATOM     24  N   UNL     1      36.365 -24.564 -15.034  0.00  0.00    -0.155 N 
ATOM     25  N   UNL     1      36.667 -25.845 -15.434  0.00  0.00    -0.170 NA
ATOM     26  C   UNL     1      36.244 -24.222 -13.683  0.00  0.00    +0.272 C 
ATOM     27  C   UNL     1      36.525 -25.295 -12.696  0.00  0.00    +0.062 C 
ATOM     28  C   UNL     1      36.878 -26.735 -14.527  0.00  0.00    +0.118 C 
ATOM     29  C   UNL     1      36.834 -26.527 -13.085  0.00  0.00    +0.027 C 
ENDBRANCH  22  24
ENDBRANCH   6  17
TORSDOF 3
ENDMDL
