MODEL 1
REMARK VINA RESULT:     -11.6      0.000      0.000
REMARK  Name = 447656
REMARK  5 active torsions:
REMARK  status: ('A' for Active; 'I' for Inactive)
REMARK    1  A    between atoms: N_5  and  C_14
REMARK    2  A    between atoms: C_6  and  O_25
REMARK    3  A    between atoms: C_17  and  C_22
REMARK    4  A    between atoms: O_25  and  C_26
REMARK    5  A    between atoms: C_26  and  C_27
REMARK                            x       y       z     vdW  Elec       q    Type
REMARK                         _______ _______ _______ _____ _____    ______ ____
ROOT
ATOM      1  N   UNL     1      32.870 -23.622 -16.184  0.00  0.00    -0.293 NA
ATOM      2  N   UNL     1      29.469 -22.666 -17.206  0.00  0.00    -0.266 NA
ATOM      3  N   UNL     1      31.168 -24.020 -14.481  0.00  0.00    -0.316 NA
ATOM      4  N   UNL     1      28.924 -23.384 -15.168  0.00  0.00    -0.296 N 
ATOM      5  N   UNL     1      33.418 -24.536 -14.098  0.00  0.00    -0.238 N 
ATOM      6  C   UNL     1      31.954 -23.133 -17.046  0.00  0.00    +0.288 C 
ATOM      7  C   UNL     1      30.638 -23.082 -16.635  0.00  0.00    +0.215 C 
ATOM      8  C   UNL     1      30.273 -23.523 -15.370  0.00  0.00    +0.196 C 
ATOM      9  C   UNL     1      32.427 -24.030 -14.971  0.00  0.00    +0.207 C 
ATOM     10  C   UNL     1      28.472 -22.866 -16.290  0.00  0.00    +0.164 C 
ATOM     11  H   UNL     1      29.364 -22.291 -18.111  0.00  0.00    +0.126 HD
ATOM     12  H   UNL     1      28.408 -23.619 -14.363  0.00  0.00    +0.150 HD
ATOM     13  H   UNL     1      33.067 -24.825 -13.225  0.00  0.00    +0.166 HD
ENDROOT
BRANCH   5  14
ATOM     14  C   UNL     1      34.806 -24.707 -14.234  0.00  0.00    +0.058 C 
ATOM     15  C   UNL     1      35.688 -23.855 -13.563  0.00  0.00    +0.015 C 
ATOM     16  C   UNL     1      35.312 -25.729 -15.040  0.00  0.00    +0.015 C 
ATOM     17  C   UNL     1      37.567 -25.046 -14.503  0.00  0.00    +0.053 C 
ATOM     18  C   UNL     1      37.065 -24.024 -13.696  0.00  0.00    +0.006 C 
ATOM     19  C   UNL     1      36.691 -25.899 -15.174  0.00  0.00    +0.006 C 
BRANCH  17  22
ATOM     20  O   UNL     1      39.688 -24.448 -15.332  0.00  0.00    -0.270 OA
ATOM     21  N   UNL     1      39.594 -26.283 -13.959  0.00  0.00    -0.325 N 
ATOM     22  C   UNL     1      39.003 -25.223 -14.642  0.00  0.00    +0.243 C 
ATOM     23  H   UNL     1      40.565 -26.434 -14.031  0.00  0.00    +0.145 HD
ATOM     24  H   UNL     1      39.042 -26.882 -13.406  0.00  0.00    +0.145 HD
ENDBRANCH  17  22
ENDBRANCH   5  14
BRANCH   6  25
ATOM     25  O   UNL     1      32.370 -22.709 -18.285  0.00  0.00    -0.453 OA
BRANCH  25  26
ATOM     26  C   UNL     1      33.757 -22.784 -18.558  0.00  0.00    +0.208 C 
BRANCH  26  27
ATOM     27  C   UNL     1      34.045 -21.982 -19.826  0.00  0.00    +0.044 C 
ATOM     28  C   UNL     1      32.951 -20.933 -20.064  0.00  0.00    +0.004 C 
ATOM     29  C   UNL     1      35.428 -21.322 -19.747  0.00  0.00    +0.004 C 
ATOM     30  C   UNL     1      33.245 -20.082 -21.298  0.00  0.00    +0.000 C 
ATOM     31  C   UNL     1      35.716 -20.470 -20.981  0.00  0.00    +0.000 C 
ATOM     32  C   UNL     1      34.623 -19.435 -21.220  0.00  0.00    +0.000 C 
ENDBRANCH  26  27
ENDBRANCH  25  26
ENDBRANCH   6  25
TORSDOF 5
ENDMDL
MODEL 2
REMARK VINA RESULT:     -11.5      1.917      6.444
REMARK  Name = 447656
REMARK  5 active torsions:
REMARK  status: ('A' for Active; 'I' for Inactive)
REMARK    1  A    between atoms: N_5  and  C_14
REMARK    2  A    between atoms: C_6  and  O_25
REMARK    3  A    between atoms: C_17  and  C_22
REMARK    4  A    between atoms: O_25  and  C_26
REMARK    5  A    between atoms: C_26  and  C_27
REMARK                            x       y       z     vdW  Elec       q    Type
REMARK                         _______ _______ _______ _____ _____    ______ ____
ROOT
ATOM      1  N   UNL     1      33.749 -23.668 -15.930  0.00  0.00    -0.293 NA
ATOM      2  N   UNL     1      37.409 -23.908 -15.667  0.00  0.00    -0.266 NA
ATOM      3  N   UNL     1      34.533 -24.787 -13.908  0.00  0.00    -0.316 NA
ATOM      4  N   UNL     1      36.953 -24.940 -13.745  0.00  0.00    -0.296 N 
ATOM      5  N   UNL     1      32.250 -24.496 -14.332  0.00  0.00    -0.238 N 
ATOM      6  C   UNL     1      35.013 -23.467 -16.360  0.00  0.00    +0.288 C 
ATOM      7  C   UNL     1      36.047 -23.924 -15.570  0.00  0.00    +0.215 C 
ATOM      8  C   UNL     1      35.789 -24.570 -14.368  0.00  0.00    +0.196 C 
ATOM      9  C   UNL     1      33.588 -24.307 -14.746  0.00  0.00    +0.207 C 
ATOM     10  C   UNL     1      37.907 -24.527 -14.552  0.00  0.00    +0.164 C 
ATOM     11  H   UNL     1      37.936 -23.522 -16.405  0.00  0.00    +0.126 HD
ATOM     12  H   UNL     1      37.053 -25.410 -12.886  0.00  0.00    +0.150 HD
ATOM     13  H   UNL     1      32.164 -24.962 -13.469  0.00  0.00    +0.166 HD
ENDROOT
BRANCH   5  14
ATOM     14  C   UNL     1      31.017 -24.149 -14.912  0.00  0.00    +0.058 C 
ATOM     15  C   UNL     1      30.597 -22.816 -14.924  0.00  0.00    +0.015 C 
ATOM     16  C   UNL     1      30.206 -25.135 -15.479  0.00  0.00    +0.015 C 
ATOM     17  C   UNL     1      28.567 -23.458 -16.065  0.00  0.00    +0.053 C 
ATOM     18  C   UNL     1      29.375 -22.471 -15.500  0.00  0.00    +0.006 C 
ATOM     19  C   UNL     1      28.983 -24.790 -16.056  0.00  0.00    +0.006 C 
BRANCH  17  22
ATOM     20  O   UNL     1      26.990 -23.470 -17.814  0.00  0.00    -0.270 OA
ATOM     21  N   UNL     1      26.410 -22.338 -15.905  0.00  0.00    -0.325 N 
ATOM     22  C   UNL     1      27.294 -23.099 -16.666  0.00  0.00    +0.243 C 
ATOM     23  H   UNL     1      25.538 -22.075 -16.280  0.00  0.00    +0.145 HD
ATOM     24  H   UNL     1      26.658 -22.061 -14.993  0.00  0.00    +0.145 HD
ENDBRANCH  17  22
ENDBRANCH   5  14
BRANCH   6  25
ATOM     25  O   UNL     1      35.211 -22.823 -17.557  0.00  0.00    -0.453 OA
BRANCH  25  26
ATOM     26  C   UNL     1      34.103 -22.742 -18.435  0.00  0.00    +0.208 C 
BRANCH  26  27
ATOM     27  C   UNL     1      34.536 -21.990 -19.692  0.00  0.00    +0.044 C 
ATOM     28  C   UNL     1      33.474 -20.958 -20.098  0.00  0.00    +0.004 C 
ATOM     29  C   UNL     1      35.898 -21.316 -19.479  0.00  0.00    +0.004 C 
ATOM     30  C   UNL     1      33.908 -20.155 -21.323  0.00  0.00    +0.000 C 
ATOM     31  C   UNL     1      36.327 -20.512 -20.704  0.00  0.00    +0.000 C 
ATOM     32  C   UNL     1      35.266 -19.495 -21.111  0.00  0.00    +0.000 C 
ENDBRANCH  26  27
ENDBRANCH  25  26
ENDBRANCH   6  25
TORSDOF 5
ENDMDL
MODEL 3
REMARK VINA RESULT:     -11.3      2.105      6.481
REMARK  Name = 447656
REMARK  5 active torsions:
REMARK  status: ('A' for Active; 'I' for Inactive)
REMARK    1  A    between atoms: N_5  and  C_14
REMARK    2  A    between atoms: C_6  and  O_25
REMARK    3  A    between atoms: C_17  and  C_22
REMARK    4  A    between atoms: O_25  and  C_26
REMARK    5  A    between atoms: C_26  and  C_27
REMARK                            x       y       z     vdW  Elec       q    Type
REMARK                         _______ _______ _______ _____ _____    ______ ____
ROOT
ATOM      1  N   UNL     1      34.284 -24.028 -14.697  0.00  0.00    -0.293 NA
ATOM      2  N   UNL     1      37.776 -24.042 -13.545  0.00  0.00    -0.266 NA
ATOM      3  N   UNL     1      34.534 -24.207 -12.277  0.00  0.00    -0.316 NA
ATOM      4  N   UNL     1      36.847 -24.216 -11.527  0.00  0.00    -0.296 N 
ATOM      5  N   UNL     1      32.422 -24.175 -13.283  0.00  0.00    -0.238 N 
ATOM      6  C   UNL     1      35.621 -23.986 -14.876  0.00  0.00    +0.288 C 
ATOM      7  C   UNL     1      36.427 -24.054 -13.758  0.00  0.00    +0.215 C 
ATOM      8  C   UNL     1      35.872 -24.163 -12.490  0.00  0.00    +0.196 C 
ATOM      9  C   UNL     1      33.828 -24.134 -13.426  0.00  0.00    +0.207 C 
ATOM     10  C   UNL     1      37.978 -24.142 -12.194  0.00  0.00    +0.164 C 
ATOM     11  H   UNL     1      38.474 -23.976 -14.236  0.00  0.00    +0.126 HD
ATOM     12  H   UNL     1      36.727 -24.293 -10.552  0.00  0.00    +0.150 HD
ATOM     13  H   UNL     1      32.121 -24.252 -12.350  0.00  0.00    +0.166 HD
ENDROOT
BRANCH   5  14
ATOM     14  C   UNL     1      31.370 -24.126 -14.215  0.00  0.00    +0.058 C 
ATOM     15  C   UNL     1      31.075 -22.932 -14.878  0.00  0.00    +0.015 C 
ATOM     16  C   UNL     1      30.616 -25.271 -14.482  0.00  0.00    +0.015 C 
ATOM     17  C   UNL     1      29.280 -24.029 -16.067  0.00  0.00    +0.053 C 
ATOM     18  C   UNL     1      30.032 -22.884 -15.803  0.00  0.00    +0.006 C 
ATOM     19  C   UNL     1      29.572 -25.223 -15.407  0.00  0.00    +0.006 C 
BRANCH  17  22
ATOM     20  O   UNL     1      27.656 -25.017 -17.457  0.00  0.00    -0.270 OA
ATOM     21  N   UNL     1      27.756 -22.726 -17.450  0.00  0.00    -0.325 N 
ATOM     22  C   UNL     1      28.194 -23.979 -17.031  0.00  0.00    +0.243 C 
ATOM     23  H   UNL     1      27.023 -22.653 -18.103  0.00  0.00    +0.145 HD
ATOM     24  H   UNL     1      28.182 -21.911 -17.096  0.00  0.00    +0.145 HD
ENDBRANCH  17  22
ENDBRANCH   5  14
BRANCH   6  25
ATOM     25  O   UNL     1      36.117 -23.879 -16.153  0.00  0.00    -0.453 OA
BRANCH  25  26
ATOM     26  C   UNL     1      36.291 -22.571 -16.667  0.00  0.00    +0.208 C 
BRANCH  26  27
ATOM     27  C   UNL     1      35.694 -22.520 -18.072  0.00  0.00    +0.044 C 
ATOM     28  C   UNL     1      34.161 -22.465 -18.008  0.00  0.00    +0.004 C 
ATOM     29  C   UNL     1      36.250 -21.324 -18.855  0.00  0.00    +0.004 C 
ATOM     30  C   UNL     1      33.542 -22.360 -19.400  0.00  0.00    +0.000 C 
ATOM     31  C   UNL     1      35.627 -21.221 -20.245  0.00  0.00    +0.000 C 
ATOM     32  C   UNL     1      34.104 -21.176 -20.178  0.00  0.00    +0.000 C 
ENDBRANCH  26  27
ENDBRANCH  25  26
ENDBRANCH   6  25
TORSDOF 5
ENDMDL
MODEL 4
REMARK VINA RESULT:     -10.7      2.646      7.351
REMARK  Name = 447656
REMARK  5 active torsions:
REMARK  status: ('A' for Active; 'I' for Inactive)
REMARK    1  A    between atoms: N_5  and  C_14
REMARK    2  A    between atoms: C_6  and  O_25
REMARK    3  A    between atoms: C_17  and  C_22
REMARK    4  A    between atoms: O_25  and  C_26
REMARK    5  A    between atoms: C_26  and  C_27
REMARK                            x       y       z     vdW  Elec       q    Type
REMARK                         _______ _______ _______ _____ _____    ______ ____
ROOT
ATOM      1  N   UNL     1      35.330 -23.829 -15.816  0.00  0.00    -0.293 NA
ATOM      2  N   UNL     1      36.205 -25.776 -12.822  0.00  0.00    -0.266 NA
ATOM      3  N   UNL     1      37.715 -23.851 -15.303  0.00  0.00    -0.316 NA
ATOM      4  N   UNL     1      38.282 -25.140 -13.322  0.00  0.00    -0.296 N 
ATOM      5  N   UNL     1      36.878 -22.689 -17.154  0.00  0.00    -0.238 N 
ATOM      6  C   UNL     1      35.049 -24.607 -14.749  0.00  0.00    +0.288 C 
ATOM      7  C   UNL     1      36.097 -25.012 -13.949  0.00  0.00    +0.215 C 
ATOM      8  C   UNL     1      37.400 -24.630 -14.240  0.00  0.00    +0.196 C 
ATOM      9  C   UNL     1      36.628 -23.504 -16.026  0.00  0.00    +0.207 C 
ATOM     10  C   UNL     1      37.531 -25.823 -12.484  0.00  0.00    +0.164 C 
ATOM     11  H   UNL     1      35.464 -26.211 -12.340  0.00  0.00    +0.126 HD
ATOM     12  H   UNL     1      39.259 -25.022 -13.295  0.00  0.00    +0.150 HD
ATOM     13  H   UNL     1      37.829 -22.469 -17.281  0.00  0.00    +0.166 HD
ENDROOT
BRANCH   5  14
ATOM     14  C   UNL     1      36.034 -22.132 -18.130  0.00  0.00    +0.058 C 
ATOM     15  C   UNL     1      36.552 -21.261 -19.093  0.00  0.00    +0.015 C 
ATOM     16  C   UNL     1      34.673 -22.446 -18.143  0.00  0.00    +0.015 C 
ATOM     17  C   UNL     1      34.357 -21.024 -20.071  0.00  0.00    +0.053 C 
ATOM     18  C   UNL     1      35.715 -20.709 -20.062  0.00  0.00    +0.006 C 
ATOM     19  C   UNL     1      33.835 -21.893 -19.113  0.00  0.00    +0.006 C 
BRANCH  17  22
ATOM     20  O   UNL     1      32.248 -20.577 -21.021  0.00  0.00    -0.270 OA
ATOM     21  N   UNL     1      34.076 -19.729 -22.115  0.00  0.00    -0.325 N 
ATOM     22  C   UNL     1      33.484 -20.449 -21.082  0.00  0.00    +0.243 C 
ATOM     23  H   UNL     1      33.516 -19.325 -22.818  0.00  0.00    +0.145 HD
ATOM     24  H   UNL     1      35.055 -19.624 -22.145  0.00  0.00    +0.145 HD
ENDBRANCH  17  22
ENDBRANCH   5  14
BRANCH   6  25
ATOM     25  O   UNL     1      33.742 -24.955 -14.507  0.00  0.00    -0.453 OA
BRANCH  25  26
ATOM     26  C   UNL     1      33.015 -24.138 -13.609  0.00  0.00    +0.208 C 
BRANCH  26  27
ATOM     27  C   UNL     1      31.597 -23.966 -14.150  0.00  0.00    +0.044 C 
ATOM     28  C   UNL     1      31.624 -23.354 -15.557  0.00  0.00    +0.004 C 
ATOM     29  C   UNL     1      30.851 -25.307 -14.153  0.00  0.00    +0.004 C 
ATOM     30  C   UNL     1      30.220 -23.221 -16.142  0.00  0.00    +0.000 C 
ATOM     31  C   UNL     1      29.449 -25.171 -14.741  0.00  0.00    +0.000 C 
ATOM     32  C   UNL     1      29.479 -24.554 -16.135  0.00  0.00    +0.000 C 
ENDBRANCH  26  27
ENDBRANCH  25  26
ENDBRANCH   6  25
TORSDOF 5
ENDMDL
MODEL 5
REMARK VINA RESULT:     -10.3      8.647     12.236
REMARK  Name = 447656
REMARK  5 active torsions:
REMARK  status: ('A' for Active; 'I' for Inactive)
REMARK    1  A    between atoms: N_5  and  C_14
REMARK    2  A    between atoms: C_6  and  O_25
REMARK    3  A    between atoms: C_17  and  C_22
REMARK    4  A    between atoms: O_25  and  C_26
REMARK    5  A    between atoms: C_26  and  C_27
REMARK                            x       y       z     vdW  Elec       q    Type
REMARK                         _______ _______ _______ _____ _____    ______ ____
ROOT
ATOM      1  N   UNL     1      33.825 -14.480 -23.856  0.00  0.00    -0.293 NA
ATOM      2  N   UNL     1      33.203 -11.203 -25.405  0.00  0.00    -0.266 NA
ATOM      3  N   UNL     1      34.100 -14.454 -26.280  0.00  0.00    -0.316 NA
ATOM      4  N   UNL     1      33.686 -12.284 -27.293  0.00  0.00    -0.296 N 
ATOM      5  N   UNL     1      34.434 -16.409 -25.037  0.00  0.00    -0.238 N 
ATOM      6  C   UNL     1      33.502 -13.169 -23.835  0.00  0.00    +0.288 C 
ATOM      7  C   UNL     1      33.475 -12.490 -25.036  0.00  0.00    +0.215 C 
ATOM      8  C   UNL     1      33.772 -13.140 -26.226  0.00  0.00    +0.196 C 
ATOM      9  C   UNL     1      34.100 -15.035 -25.060  0.00  0.00    +0.207 C 
ATOM     10  C   UNL     1      33.342 -11.129 -26.765  0.00  0.00    +0.164 C 
ATOM     11  H   UNL     1      32.952 -10.465 -24.802  0.00  0.00    +0.126 HD
ATOM     12  H   UNL     1      33.846 -12.487 -28.243  0.00  0.00    +0.150 HD
ATOM     13  H   UNL     1      34.629 -16.784 -25.926  0.00  0.00    +0.166 HD
ENDROOT
BRANCH   5  14
ATOM     14  C   UNL     1      34.541 -17.343 -23.992  0.00  0.00    +0.058 C 
ATOM     15  C   UNL     1      35.188 -16.996 -22.803  0.00  0.00    +0.015 C 
ATOM     16  C   UNL     1      34.001 -18.623 -24.138  0.00  0.00    +0.015 C 
ATOM     17  C   UNL     1      34.754 -19.200 -21.915  0.00  0.00    +0.053 C 
ATOM     18  C   UNL     1      35.294 -17.923 -21.766  0.00  0.00    +0.006 C 
ATOM     19  C   UNL     1      34.106 -19.551 -23.100  0.00  0.00    +0.006 C 
BRANCH  17  22
ATOM     20  O   UNL     1      33.872 -20.798 -20.426  0.00  0.00    -0.270 OA
ATOM     21  N   UNL     1      36.123 -20.378 -20.281  0.00  0.00    -0.325 N 
ATOM     22  C   UNL     1      34.863 -20.166 -20.834  0.00  0.00    +0.243 C 
ATOM     23  H   UNL     1      36.235 -21.025 -19.546  0.00  0.00    +0.145 HD
ATOM     24  H   UNL     1      36.901 -19.881 -20.622  0.00  0.00    +0.145 HD
ENDBRANCH  17  22
ENDBRANCH   5  14
BRANCH   6  25
ATOM     25  O   UNL     1      33.216 -12.575 -22.630  0.00  0.00    -0.453 OA
BRANCH  25  26
ATOM     26  C   UNL     1      31.949 -12.851 -22.063  0.00  0.00    +0.208 C 
BRANCH  26  27
ATOM     27  C   UNL     1      31.375 -11.549 -21.505  0.00  0.00    +0.044 C 
ATOM     28  C   UNL     1      31.649 -11.437 -19.999  0.00  0.00    +0.004 C 
ATOM     29  C   UNL     1      31.946 -10.340 -22.256  0.00  0.00    +0.004 C 
ATOM     30  C   UNL     1      31.131 -10.119 -19.429  0.00  0.00    +0.000 C 
ATOM     31  C   UNL     1      31.428  -9.024 -21.681  0.00  0.00    +0.000 C 
ATOM     32  C   UNL     1      31.694  -8.919 -20.183  0.00  0.00    +0.000 C 
ENDBRANCH  26  27
ENDBRANCH  25  26
ENDBRANCH   6  25
TORSDOF 5
ENDMDL
MODEL 6
REMARK VINA RESULT:     -10.2      2.700      5.434
REMARK  Name = 447656
REMARK  5 active torsions:
REMARK  status: ('A' for Active; 'I' for Inactive)
REMARK    1  A    between atoms: N_5  and  C_14
REMARK    2  A    between atoms: C_6  and  O_25
REMARK    3  A    between atoms: C_17  and  C_22
REMARK    4  A    between atoms: O_25  and  C_26
REMARK    5  A    between atoms: C_26  and  C_27
REMARK                            x       y       z     vdW  Elec       q    Type
REMARK                         _______ _______ _______ _____ _____    ______ ____
ROOT
ATOM      1  N   UNL     1      34.988 -22.403 -17.945  0.00  0.00    -0.293 NA
ATOM      2  N   UNL     1      33.579 -20.795 -20.937  0.00  0.00    -0.266 NA
ATOM      3  N   UNL     1      36.553 -20.953 -19.129  0.00  0.00    -0.316 NA
ATOM      4  N   UNL     1      35.612 -19.897 -21.105  0.00  0.00    -0.296 N 
ATOM      5  N   UNL     1      37.185 -22.102 -17.190  0.00  0.00    -0.238 N 
ATOM      6  C   UNL     1      34.006 -22.140 -18.834  0.00  0.00    +0.288 C 
ATOM      7  C   UNL     1      34.289 -21.283 -19.877  0.00  0.00    +0.215 C 
ATOM      8  C   UNL     1      35.547 -20.711 -20.004  0.00  0.00    +0.196 C 
ATOM      9  C   UNL     1      36.185 -21.801 -18.144  0.00  0.00    +0.207 C 
ATOM     10  C   UNL     1      34.413 -19.970 -21.643  0.00  0.00    +0.164 C 
ATOM     11  H   UNL     1      32.640 -21.000 -21.154  0.00  0.00    +0.126 HD
ATOM     12  H   UNL     1      36.383 -19.373 -21.423  0.00  0.00    +0.150 HD
ATOM     13  H   UNL     1      38.043 -21.651 -17.360  0.00  0.00    +0.166 HD
ENDROOT
BRANCH   5  14
ATOM     14  C   UNL     1      37.192 -22.920 -16.047  0.00  0.00    +0.058 C 
ATOM     15  C   UNL     1      38.194 -23.880 -15.877  0.00  0.00    +0.015 C 
ATOM     16  C   UNL     1      36.199 -22.778 -15.076  0.00  0.00    +0.015 C 
ATOM     17  C   UNL     1      37.209 -24.546 -13.775  0.00  0.00    +0.053 C 
ATOM     18  C   UNL     1      38.202 -24.691 -14.743  0.00  0.00    +0.006 C 
ATOM     19  C   UNL     1      36.207 -23.589 -13.940  0.00  0.00    +0.006 C 
BRANCH  17  22
ATOM     20  O   UNL     1      37.566 -24.951 -11.482  0.00  0.00    -0.270 OA
ATOM     21  N   UNL     1      36.802 -26.712 -12.736  0.00  0.00    -0.325 N 
ATOM     22  C   UNL     1      37.217 -25.391 -12.592  0.00  0.00    +0.243 C 
ATOM     23  H   UNL     1      36.796 -27.314 -11.957  0.00  0.00    +0.145 HD
ATOM     24  H   UNL     1      36.517 -27.045 -13.618  0.00  0.00    +0.145 HD
ENDBRANCH  17  22
ENDBRANCH   5  14
BRANCH   6  25
ATOM     25  O   UNL     1      32.779 -22.735 -18.662  0.00  0.00    -0.453 OA
BRANCH  25  26
ATOM     26  C   UNL     1      32.704 -23.792 -17.724  0.00  0.00    +0.208 C 
BRANCH  26  27
ATOM     27  C   UNL     1      32.061 -23.260 -16.444  0.00  0.00    +0.044 C 
ATOM     28  C   UNL     1      30.539 -23.455 -16.480  0.00  0.00    +0.004 C 
ATOM     29  C   UNL     1      32.669 -23.937 -15.209  0.00  0.00    +0.004 C 
ATOM     30  C   UNL     1      29.878 -22.978 -15.189  0.00  0.00    +0.000 C 
ATOM     31  C   UNL     1      32.004 -23.460 -13.920  0.00  0.00    +0.000 C 
ATOM     32  C   UNL     1      30.491 -23.647 -13.964  0.00  0.00    +0.000 C 
ENDBRANCH  26  27
ENDBRANCH  25  26
ENDBRANCH   6  25
TORSDOF 5
ENDMDL
MODEL 7
REMARK VINA RESULT:      -9.9      3.293      8.007
REMARK  Name = 447656
REMARK  5 active torsions:
REMARK  status: ('A' for Active; 'I' for Inactive)
REMARK    1  A    between atoms: N_5  and  C_14
REMARK    2  A    between atoms: C_6  and  O_25
REMARK    3  A    between atoms: C_17  and  C_22
REMARK    4  A    between atoms: O_25  and  C_26
REMARK    5  A    between atoms: C_26  and  C_27
REMARK                            x       y       z     vdW  Elec       q    Type
REMARK                         _______ _______ _______ _____ _____    ______ ____
ROOT
ATOM      1  N   UNL     1      34.962 -22.186 -18.248  0.00  0.00    -0.293 NA
ATOM      2  N   UNL     1      35.017 -24.337 -15.266  0.00  0.00    -0.266 NA
ATOM      3  N   UNL     1      37.087 -22.175 -17.050  0.00  0.00    -0.316 NA
ATOM      4  N   UNL     1      37.112 -23.600 -15.080  0.00  0.00    -0.296 N 
ATOM      5  N   UNL     1      36.773 -20.895 -18.984  0.00  0.00    -0.238 N 
ATOM      6  C   UNL     1      34.420 -23.054 -17.367  0.00  0.00    +0.288 C 
ATOM      7  C   UNL     1      35.207 -23.490 -16.320  0.00  0.00    +0.215 C 
ATOM      8  C   UNL     1      36.515 -23.045 -16.183  0.00  0.00    +0.196 C 
ATOM      9  C   UNL     1      36.244 -21.805 -18.039  0.00  0.00    +0.207 C 
ATOM     10  C   UNL     1      36.185 -24.370 -14.552  0.00  0.00    +0.164 C 
ATOM     11  H   UNL     1      34.192 -24.832 -15.057  0.00  0.00    +0.126 HD
ATOM     12  H   UNL     1      38.031 -23.454 -14.756  0.00  0.00    +0.150 HD
ATOM     13  H   UNL     1      37.706 -20.637 -18.806  0.00  0.00    +0.166 HD
ENDROOT
BRANCH   5  14
ATOM     14  C   UNL     1      36.225 -20.288 -20.128  0.00  0.00    +0.058 C 
ATOM     15  C   UNL     1      36.952 -19.318 -20.823  0.00  0.00    +0.015 C 
ATOM     16  C   UNL     1      34.953 -20.652 -20.574  0.00  0.00    +0.015 C 
ATOM     17  C   UNL     1      35.138 -19.081 -22.401  0.00  0.00    +0.053 C 
ATOM     18  C   UNL     1      36.410 -18.716 -21.958  0.00  0.00    +0.006 C 
ATOM     19  C   UNL     1      34.410 -20.050 -21.710  0.00  0.00    +0.006 C 
BRANCH  17  22
ATOM     20  O   UNL     1      33.510 -18.860 -24.088  0.00  0.00    -0.270 OA
ATOM     21  N   UNL     1      35.252 -17.368 -24.129  0.00  0.00    -0.325 N 
ATOM     22  C   UNL     1      34.573 -18.455 -23.585  0.00  0.00    +0.243 C 
ATOM     23  H   UNL     1      34.899 -16.918 -24.931  0.00  0.00    +0.145 HD
ATOM     24  H   UNL     1      36.085 -17.049 -23.713  0.00  0.00    +0.145 HD
ENDBRANCH  17  22
ENDBRANCH   5  14
BRANCH   6  25
ATOM     25  O   UNL     1      33.121 -23.460 -17.550  0.00  0.00    -0.453 OA
BRANCH  25  26
ATOM     26  C   UNL     1      32.136 -22.848 -16.737  0.00  0.00    +0.208 C 
BRANCH  26  27
ATOM     27  C   UNL     1      31.066 -23.888 -16.407  0.00  0.00    +0.044 C 
ATOM     28  C   UNL     1      31.326 -24.514 -15.030  0.00  0.00    +0.004 C 
ATOM     29  C   UNL     1      29.666 -23.264 -16.468  0.00  0.00    +0.004 C 
ATOM     30  C   UNL     1      30.239 -25.519 -14.654  0.00  0.00    +0.000 C 
ATOM     31  C   UNL     1      28.583 -24.270 -16.089  0.00  0.00    +0.000 C 
ATOM     32  C   UNL     1      28.849 -24.897 -14.725  0.00  0.00    +0.000 C 
ENDBRANCH  26  27
ENDBRANCH  25  26
ENDBRANCH   6  25
TORSDOF 5
ENDMDL
MODEL 8
REMARK VINA RESULT:      -9.1     14.029     17.730
REMARK  Name = 447656
REMARK  5 active torsions:
REMARK  status: ('A' for Active; 'I' for Inactive)
REMARK    1  A    between atoms: N_5  and  C_14
REMARK    2  A    between atoms: C_6  and  O_25
REMARK    3  A    between atoms: C_17  and  C_22
REMARK    4  A    between atoms: O_25  and  C_26
REMARK    5  A    between atoms: C_26  and  C_27
REMARK                            x       y       z     vdW  Elec       q    Type
REMARK                         _______ _______ _______ _____ _____    ______ ____
ROOT
ATOM      1  N   UNL     1      32.621  -8.535 -22.876  0.00  0.00    -0.293 NA
ATOM      2  N   UNL     1      31.283 -10.902 -20.400  0.00  0.00    -0.266 NA
ATOM      3  N   UNL     1      32.209  -7.554 -20.681  0.00  0.00    -0.316 NA
ATOM      4  N   UNL     1      31.324  -9.127 -19.052  0.00  0.00    -0.296 N 
ATOM      5  N   UNL     1      33.060  -6.275 -22.446  0.00  0.00    -0.238 N 
ATOM      6  C   UNL     1      32.192  -9.747 -22.463  0.00  0.00    +0.288 C 
ATOM      7  C   UNL     1      31.769  -9.873 -21.156  0.00  0.00    +0.215 C 
ATOM      8  C   UNL     1      31.785  -8.783 -20.297  0.00  0.00    +0.196 C 
ATOM      9  C   UNL     1      32.603  -7.527 -21.972  0.00  0.00    +0.207 C 
ATOM     10  C   UNL     1      31.032 -10.407 -19.148  0.00  0.00    +0.164 C 
ATOM     11  H   UNL     1      31.140 -11.829 -20.700  0.00  0.00    +0.126 HD
ATOM     12  H   UNL     1      31.234  -8.547 -18.262  0.00  0.00    +0.150 HD
ATOM     13  H   UNL     1      33.036  -5.562 -21.767  0.00  0.00    +0.166 HD
ENDROOT
BRANCH   5  14
ATOM     14  C   UNL     1      33.541  -5.850 -23.696  0.00  0.00    +0.058 C 
ATOM     15  C   UNL     1      32.922  -4.789 -24.363  0.00  0.00    +0.015 C 
ATOM     16  C   UNL     1      34.640  -6.486 -24.278  0.00  0.00    +0.015 C 
ATOM     17  C   UNL     1      34.497  -5.004 -26.182  0.00  0.00    +0.053 C 
ATOM     18  C   UNL     1      33.399  -4.367 -25.604  0.00  0.00    +0.006 C 
ATOM     19  C   UNL     1      35.118  -6.063 -25.519  0.00  0.00    +0.006 C 
BRANCH  17  22
ATOM     20  O   UNL     1      34.334  -3.797 -28.198  0.00  0.00    -0.270 OA
ATOM     21  N   UNL     1      36.251  -5.013 -27.872  0.00  0.00    -0.325 N 
ATOM     22  C   UNL     1      34.995  -4.564 -27.474  0.00  0.00    +0.243 C 
ATOM     23  H   UNL     1      36.621  -4.736 -28.742  0.00  0.00    +0.145 HD
ATOM     24  H   UNL     1      36.770  -5.610 -27.285  0.00  0.00    +0.145 HD
ENDBRANCH  17  22
ENDBRANCH   5  14
BRANCH   6  25
ATOM     25  O   UNL     1      32.196 -10.792 -23.355  0.00  0.00    -0.453 OA
BRANCH  25  26
ATOM     26  C   UNL     1      33.459 -11.307 -23.735  0.00  0.00    +0.208 C 
BRANCH  26  27
ATOM     27  C   UNL     1      33.689 -10.984 -25.210  0.00  0.00    +0.044 C 
ATOM     28  C   UNL     1      34.972 -10.162 -25.391  0.00  0.00    +0.004 C 
ATOM     29  C   UNL     1      33.743 -12.270 -26.045  0.00  0.00    +0.004 C 
ATOM     30  C   UNL     1      35.253  -9.871 -26.864  0.00  0.00    +0.000 C 
ATOM     31  C   UNL     1      34.026 -11.976 -27.516  0.00  0.00    +0.000 C 
ATOM     32  C   UNL     1      35.297 -11.151 -27.692  0.00  0.00    +0.000 C 
ENDBRANCH  26  27
ENDBRANCH  25  26
ENDBRANCH   6  25
TORSDOF 5
ENDMDL
MODEL 9
REMARK VINA RESULT:      -9.1      3.004      6.722
REMARK  Name = 447656
REMARK  5 active torsions:
REMARK  status: ('A' for Active; 'I' for Inactive)
REMARK    1  A    between atoms: N_5  and  C_14
REMARK    2  A    between atoms: C_6  and  O_25
REMARK    3  A    between atoms: C_17  and  C_22
REMARK    4  A    between atoms: O_25  and  C_26
REMARK    5  A    between atoms: C_26  and  C_27
REMARK                            x       y       z     vdW  Elec       q    Type
REMARK                         _______ _______ _______ _____ _____    ______ ____
ROOT
ATOM      1  N   UNL     1      34.183 -21.944 -18.735  0.00  0.00    -0.293 NA
ATOM      2  N   UNL     1      36.078 -20.216 -21.371  0.00  0.00    -0.266 NA
ATOM      3  N   UNL     1      32.788 -20.832 -20.401  0.00  0.00    -0.316 NA
ATOM      4  N   UNL     1      34.052 -19.693 -22.138  0.00  0.00    -0.296 N 
ATOM      5  N   UNL     1      31.845 -22.008 -18.611  0.00  0.00    -0.238 N 
ATOM      6  C   UNL     1      35.314 -21.544 -19.354  0.00  0.00    +0.288 C 
ATOM      7  C   UNL     1      35.194 -20.786 -20.500  0.00  0.00    +0.215 C 
ATOM      8  C   UNL     1      33.943 -20.447 -20.998  0.00  0.00    +0.196 C 
ATOM      9  C   UNL     1      33.005 -21.569 -19.289  0.00  0.00    +0.207 C 
ATOM     10  C   UNL     1      35.347 -19.573 -22.334  0.00  0.00    +0.164 C 
ATOM     11  H   UNL     1      37.060 -20.260 -21.316  0.00  0.00    +0.126 HD
ATOM     12  H   UNL     1      33.323 -19.325 -22.688  0.00  0.00    +0.150 HD
ATOM     13  H   UNL     1      31.004 -21.721 -19.037  0.00  0.00    +0.166 HD
ENDROOT
BRANCH   5  14
ATOM     14  C   UNL     1      31.656 -22.775 -17.448  0.00  0.00    +0.058 C 
ATOM     15  C   UNL     1      32.731 -23.464 -16.880  0.00  0.00    +0.015 C 
ATOM     16  C   UNL     1      30.394 -22.851 -16.855  0.00  0.00    +0.015 C 
ATOM     17  C   UNL     1      31.283 -24.299 -15.136  0.00  0.00    +0.053 C 
ATOM     18  C   UNL     1      32.545 -24.224 -15.726  0.00  0.00    +0.006 C 
ATOM     19  C   UNL     1      30.208 -23.612 -15.700  0.00  0.00    +0.006 C 
BRANCH  17  22
ATOM     20  O   UNL     1      32.039 -25.367 -13.178  0.00  0.00    -0.270 OA
ATOM     21  N   UNL     1      29.797 -25.516 -13.638  0.00  0.00    -0.325 N 
ATOM     22  C   UNL     1      31.089 -25.091 -13.933  0.00  0.00    +0.243 C 
ATOM     23  H   UNL     1      29.627 -26.055 -12.832  0.00  0.00    +0.145 HD
ATOM     24  H   UNL     1      29.052 -25.280 -14.238  0.00  0.00    +0.145 HD
ENDBRANCH  17  22
ENDBRANCH   5  14
BRANCH   6  25
ATOM     25  O   UNL     1      36.526 -21.907 -18.818  0.00  0.00    -0.453 OA
BRANCH  25  26
ATOM     26  C   UNL     1      36.798 -21.479 -17.495  0.00  0.00    +0.208 C 
BRANCH  26  27
ATOM     27  C   UNL     1      36.652 -22.678 -16.560  0.00  0.00    +0.044 C 
ATOM     28  C   UNL     1      38.030 -23.203 -16.133  0.00  0.00    +0.004 C 
ATOM     29  C   UNL     1      35.805 -22.311 -15.335  0.00  0.00    +0.004 C 
ATOM     30  C   UNL     1      37.911 -24.370 -15.155  0.00  0.00    +0.000 C 
ATOM     31  C   UNL     1      35.691 -23.478 -14.358  0.00  0.00    +0.000 C 
ATOM     32  C   UNL     1      37.061 -24.003 -13.943  0.00  0.00    +0.000 C 
ENDBRANCH  26  27
ENDBRANCH  25  26
ENDBRANCH   6  25
TORSDOF 5
ENDMDL
