MODEL 1
REMARK VINA RESULT:     -12.5      0.000      0.000
REMARK  Name = 10200813
REMARK  4 active torsions:
REMARK  status: ('A' for Active; 'I' for Inactive)
REMARK    1  A    between atoms: C_3  and  C_24
REMARK    2  A    between atoms: C_8  and  C_11
REMARK    3  A    between atoms: N_10  and  C_16
REMARK    4  A    between atoms: C_24  and  C_26
REMARK                            x       y       z     vdW  Elec       q    Type
REMARK                         _______ _______ _______ _____ _____    ______ ____
ROOT
ATOM      1  O   UNL     1      34.587 -17.257 -24.978  0.00  0.00    -0.265 OA
ATOM      2  N   UNL     1      34.467 -15.613 -23.302  0.00  0.00    -0.272 N 
ATOM      3  C   UNL     1      32.896 -13.443 -22.201  0.00  0.00    +0.008 C 
ATOM      4  C   UNL     1      32.731 -13.903 -23.658  0.00  0.00    +0.022 C 
ATOM      5  C   UNL     1      33.388 -14.608 -21.328  0.00  0.00    +0.022 C 
ATOM      6  C   UNL     1      34.016 -14.539 -24.185  0.00  0.00    +0.094 C 
ATOM      7  C   UNL     1      34.659 -15.232 -21.900  0.00  0.00    +0.094 C 
ATOM      8  C   UNL     1      34.724 -16.872 -23.824  0.00  0.00    +0.303 C 
ENDROOT
BRANCH   8  11
ATOM      9  O   UNL     1      36.436 -17.917 -22.684  0.00  0.00    -0.265 OA
ATOM     10  N   UNL     1      34.216 -18.653 -22.325  0.00  0.00    -0.277 N 
ATOM     11  C   UNL     1      35.227 -17.887 -22.869  0.00  0.00    +0.303 C 
ATOM     12  H   UNL     1      33.301 -18.446 -22.625  0.00  0.00    +0.155 HD
BRANCH  10  16
ATOM     13  O   UNL     1      32.382 -21.988 -19.282  0.00  0.00    -0.407 OA
ATOM     14  O   UNL     1      32.575 -23.708 -17.748  0.00  0.00    -0.223 OA
ATOM     15  N   UNL     1      34.473 -22.728 -18.678  0.00  0.00    -0.287 N 
ATOM     16  C   UNL     1      34.348 -19.702 -21.386  0.00  0.00    +0.054 C 
ATOM     17  C   UNL     1      33.200 -20.269 -20.846  0.00  0.00    +0.054 C 
ATOM     18  C   UNL     1      35.633 -20.136 -21.033  0.00  0.00    +0.016 C 
ATOM     19  C   UNL     1      33.384 -21.288 -19.937  0.00  0.00    +0.167 A 
ATOM     20  C   UNL     1      34.645 -21.718 -19.587  0.00  0.00    +0.096 A 
ATOM     21  C   UNL     1      35.795 -21.171 -20.110  0.00  0.00    +0.022 C 
ATOM     22  C   UNL     1      33.111 -22.895 -18.490  0.00  0.00    +0.419 A 
ATOM     23  H   UNL     1      35.188 -23.242 -18.237  0.00  0.00    +0.172 HD
ENDBRANCH  10  16
ENDBRANCH   8  11
BRANCH   3  24
ATOM     24  C   UNL     1      31.586 -12.874 -21.660  0.00  0.00    +0.026 C 
BRANCH  24  26
ATOM     25  F   UNL     1      32.034  -7.391 -20.506  0.00  0.00    -0.204 F 
ATOM     26  C   UNL     1      31.706 -11.406 -21.352  0.00  0.00    -0.022 C 
ATOM     27  C   UNL     1      31.912 -10.504 -22.386  0.00  0.00    -0.002 C 
ATOM     28  C   UNL     1      31.609 -10.974 -20.036  0.00  0.00    -0.002 C 
ATOM     29  C   UNL     1      32.023  -9.143 -22.099  0.00  0.00    +0.029 C 
ATOM     30  C   UNL     1      31.720  -9.613 -19.749  0.00  0.00    +0.029 C 
ATOM     31  C   UNL     1      31.926  -8.698 -20.781  0.00  0.00    +0.140 C 
ENDBRANCH  24  26
ENDBRANCH   3  24
TORSDOF 4
ENDMDL
MODEL 2
REMARK VINA RESULT:     -12.2      4.860      7.812
REMARK  Name = 10200813
REMARK  4 active torsions:
REMARK  status: ('A' for Active; 'I' for Inactive)
REMARK    1  A    between atoms: C_3  and  C_24
REMARK    2  A    between atoms: C_8  and  C_11
REMARK    3  A    between atoms: N_10  and  C_16
REMARK    4  A    between atoms: C_24  and  C_26
REMARK                            x       y       z     vdW  Elec       q    Type
REMARK                         _______ _______ _______ _____ _____    ______ ____
ROOT
ATOM      1  O   UNL     1      31.704 -22.277 -17.981  0.00  0.00    -0.265 OA
ATOM      2  N   UNL     1      33.413 -22.023 -19.574  0.00  0.00    -0.272 N 
ATOM      3  C   UNL     1      34.871 -20.142 -21.227  0.00  0.00    +0.008 C 
ATOM      4  C   UNL     1      33.467 -19.828 -20.688  0.00  0.00    +0.022 C 
ATOM      5  C   UNL     1      35.593 -21.121 -20.287  0.00  0.00    +0.022 C 
ATOM      6  C   UNL     1      32.671 -21.108 -20.438  0.00  0.00    +0.094 C 
ATOM      7  C   UNL     1      34.757 -22.375 -20.043  0.00  0.00    +0.094 C 
ATOM      8  C   UNL     1      32.817 -22.527 -18.428  0.00  0.00    +0.303 C 
ENDROOT
BRANCH   8  11
ATOM      9  O   UNL     1      33.484 -24.674 -17.909  0.00  0.00    -0.265 OA
ATOM     10  N   UNL     1      34.421 -22.868 -16.700  0.00  0.00    -0.277 N 
ATOM     11  C   UNL     1      33.621 -23.488 -17.639  0.00  0.00    +0.303 C 
ATOM     12  H   UNL     1      34.368 -21.885 -16.661  0.00  0.00    +0.155 HD
BRANCH  10  16
ATOM     13  O   UNL     1      38.866 -24.219 -15.231  0.00  0.00    -0.407 OA
ATOM     14  O   UNL     1      40.333 -25.223 -13.751  0.00  0.00    -0.223 OA
ATOM     15  N   UNL     1      38.043 -25.196 -13.320  0.00  0.00    -0.287 N 
ATOM     16  C   UNL     1      35.307 -23.486 -15.788  0.00  0.00    +0.054 C 
ATOM     17  C   UNL     1      36.667 -23.489 -16.069  0.00  0.00    +0.054 C 
ATOM     18  C   UNL     1      34.782 -24.075 -14.629  0.00  0.00    +0.016 C 
ATOM     19  C   UNL     1      37.487 -24.104 -15.147  0.00  0.00    +0.167 A 
ATOM     20  C   UNL     1      36.976 -24.684 -14.007  0.00  0.00    +0.096 A 
ATOM     21  C   UNL     1      35.631 -24.693 -13.709  0.00  0.00    +0.022 C 
ATOM     22  C   UNL     1      39.186 -24.919 -14.053  0.00  0.00    +0.419 A 
ATOM     23  H   UNL     1      38.006 -25.675 -12.459  0.00  0.00    +0.172 HD
ENDBRANCH  10  16
ENDBRANCH   8  11
BRANCH   3  24
ATOM     24  C   UNL     1      35.683 -18.862 -21.406  0.00  0.00    +0.026 C 
BRANCH  24  26
ATOM     25  F   UNL     1      33.755 -15.774 -25.689  0.00  0.00    -0.204 F 
ATOM     26  C   UNL     1      35.168 -18.035 -22.552  0.00  0.00    -0.022 C 
ATOM     27  C   UNL     1      35.125 -16.653 -22.434  0.00  0.00    -0.002 C 
ATOM     28  C   UNL     1      34.741 -18.667 -23.713  0.00  0.00    -0.002 C 
ATOM     29  C   UNL     1      34.646 -15.887 -23.498  0.00  0.00    +0.029 C 
ATOM     30  C   UNL     1      34.262 -17.901 -24.777  0.00  0.00    +0.029 C 
ATOM     31  C   UNL     1      34.216 -16.511 -24.669  0.00  0.00    +0.140 C 
ENDBRANCH  24  26
ENDBRANCH   3  24
TORSDOF 4
ENDMDL
MODEL 3
REMARK VINA RESULT:     -11.9      4.693      7.622
REMARK  Name = 10200813
REMARK  4 active torsions:
REMARK  status: ('A' for Active; 'I' for Inactive)
REMARK    1  A    between atoms: C_3  and  C_24
REMARK    2  A    between atoms: C_8  and  C_11
REMARK    3  A    between atoms: N_10  and  C_16
REMARK    4  A    between atoms: C_24  and  C_26
REMARK                            x       y       z     vdW  Elec       q    Type
REMARK                         _______ _______ _______ _____ _____    ______ ____
ROOT
ATOM      1  O   UNL     1      31.576 -22.132 -18.379  0.00  0.00    -0.265 OA
ATOM      2  N   UNL     1      33.469 -21.889 -19.750  0.00  0.00    -0.272 N 
ATOM      3  C   UNL     1      35.091 -20.028 -21.266  0.00  0.00    +0.008 C 
ATOM      4  C   UNL     1      33.624 -19.728 -20.921  0.00  0.00    +0.022 C 
ATOM      5  C   UNL     1      35.705 -20.961 -20.211  0.00  0.00    +0.022 C 
ATOM      6  C   UNL     1      32.827 -21.017 -20.731  0.00  0.00    +0.094 C 
ATOM      7  C   UNL     1      34.868 -22.225 -20.033  0.00  0.00    +0.094 C 
ATOM      8  C   UNL     1      32.741 -22.370 -18.673  0.00  0.00    +0.303 C 
ENDROOT
BRANCH   8  11
ATOM      9  O   UNL     1      33.559 -24.454 -18.116  0.00  0.00    -0.265 OA
ATOM     10  N   UNL     1      33.903 -22.658 -16.614  0.00  0.00    -0.277 N 
ATOM     11  C   UNL     1      33.455 -23.289 -17.757  0.00  0.00    +0.303 C 
ATOM     12  H   UNL     1      33.703 -21.697 -16.537  0.00  0.00    +0.155 HD
BRANCH  10  16
ATOM     13  O   UNL     1      34.201 -24.492 -12.109  0.00  0.00    -0.407 OA
ATOM     14  O   UNL     1      35.348 -25.444 -10.341  0.00  0.00    -0.223 OA
ATOM     15  N   UNL     1      36.450 -24.913 -12.324  0.00  0.00    -0.287 N 
ATOM     16  C   UNL     1      34.617 -23.239 -15.540  0.00  0.00    +0.054 C 
ATOM     17  C   UNL     1      33.936 -23.545 -14.368  0.00  0.00    +0.054 C 
ATOM     18  C   UNL     1      35.988 -23.486 -15.694  0.00  0.00    +0.016 C 
ATOM     19  C   UNL     1      34.678 -24.110 -13.353  0.00  0.00    +0.167 A 
ATOM     20  C   UNL     1      36.025 -24.355 -13.500  0.00  0.00    +0.096 A 
ATOM     21  C   UNL     1      36.720 -24.060 -14.652  0.00  0.00    +0.022 C 
ATOM     22  C   UNL     1      35.354 -24.997 -11.481  0.00  0.00    +0.419 A 
ATOM     23  H   UNL     1      37.368 -25.202 -12.114  0.00  0.00    +0.172 HD
ENDBRANCH  10  16
ENDBRANCH   8  11
BRANCH   3  24
ATOM     24  C   UNL     1      35.896 -18.736 -21.384  0.00  0.00    +0.026 C 
BRANCH  24  26
ATOM     25  F   UNL     1      33.955 -15.459 -25.517  0.00  0.00    -0.204 F 
ATOM     26  C   UNL     1      35.378 -17.858 -22.490  0.00  0.00    -0.022 C 
ATOM     27  C   UNL     1      35.120 -16.518 -22.237  0.00  0.00    -0.002 C 
ATOM     28  C   UNL     1      35.161 -18.402 -23.749  0.00  0.00    -0.002 C 
ATOM     29  C   UNL     1      34.639 -15.705 -23.263  0.00  0.00    +0.029 C 
ATOM     30  C   UNL     1      34.680 -17.589 -24.776  0.00  0.00    +0.029 C 
ATOM     31  C   UNL     1      34.419 -16.240 -24.532  0.00  0.00    +0.140 C 
ENDBRANCH  24  26
ENDBRANCH   3  24
TORSDOF 4
ENDMDL
MODEL 4
REMARK VINA RESULT:     -11.7      2.057      2.510
REMARK  Name = 10200813
REMARK  4 active torsions:
REMARK  status: ('A' for Active; 'I' for Inactive)
REMARK    1  A    between atoms: C_3  and  C_24
REMARK    2  A    between atoms: C_8  and  C_11
REMARK    3  A    between atoms: N_10  and  C_16
REMARK    4  A    between atoms: C_24  and  C_26
REMARK                            x       y       z     vdW  Elec       q    Type
REMARK                         _______ _______ _______ _____ _____    ______ ____
ROOT
ATOM      1  O   UNL     1      34.516 -18.927 -24.264  0.00  0.00    -0.265 OA
ATOM      2  N   UNL     1      34.858 -16.737 -23.480  0.00  0.00    -0.272 N 
ATOM      3  C   UNL     1      33.993 -13.978 -23.662  0.00  0.00    +0.008 C 
ATOM      4  C   UNL     1      33.734 -14.984 -24.794  0.00  0.00    +0.022 C 
ATOM      5  C   UNL     1      34.084 -14.709 -22.313  0.00  0.00    +0.022 C 
ATOM      6  C   UNL     1      34.779 -16.099 -24.792  0.00  0.00    +0.094 C 
ATOM      7  C   UNL     1      35.120 -15.830 -22.358  0.00  0.00    +0.094 C 
ATOM      8  C   UNL     1      34.734 -18.115 -23.373  0.00  0.00    +0.303 C 
ENDROOT
BRANCH   8  11
ATOM      9  O   UNL     1      35.443 -17.983 -21.182  0.00  0.00    -0.265 OA
ATOM     10  N   UNL     1      34.334 -19.945 -21.903  0.00  0.00    -0.277 N 
ATOM     11  C   UNL     1      34.879 -18.682 -22.013  0.00  0.00    +0.303 C 
ATOM     12  H   UNL     1      33.922 -20.317 -22.717  0.00  0.00    +0.155 HD
BRANCH  10  16
ATOM     13  O   UNL     1      31.987 -22.430 -18.429  0.00  0.00    -0.407 OA
ATOM     14  O   UNL     1      31.911 -23.774 -16.548  0.00  0.00    -0.223 OA
ATOM     15  N   UNL     1      33.954 -23.118 -17.457  0.00  0.00    -0.287 N 
ATOM     16  C   UNL     1      34.301 -20.766 -20.751  0.00  0.00    +0.054 C 
ATOM     17  C   UNL     1      33.070 -21.142 -20.229  0.00  0.00    +0.054 C 
ATOM     18  C   UNL     1      35.513 -21.172 -20.176  0.00  0.00    +0.016 C 
ATOM     19  C   UNL     1      33.093 -21.942 -19.107  0.00  0.00    +0.167 A 
ATOM     20  C   UNL     1      34.282 -22.345 -18.538  0.00  0.00    +0.096 A 
ATOM     21  C   UNL     1      35.513 -21.984 -19.040  0.00  0.00    +0.022 C 
ATOM     22  C   UNL     1      32.571 -23.173 -17.386  0.00  0.00    +0.419 A 
ATOM     23  H   UNL     1      34.585 -23.556 -16.841  0.00  0.00    +0.172 HD
ENDBRANCH  10  16
ENDBRANCH   8  11
BRANCH   3  24
ATOM     24  C   UNL     1      32.905 -12.908 -23.628  0.00  0.00    +0.026 C 
BRANCH  24  26
ATOM     25  F   UNL     1      34.853  -7.921 -25.339  0.00  0.00    -0.204 F 
ATOM     26  C   UNL     1      33.426 -11.574 -24.086  0.00  0.00    -0.022 C 
ATOM     27  C   UNL     1      34.374 -11.520 -25.099  0.00  0.00    -0.002 C 
ATOM     28  C   UNL     1      32.953 -10.413 -23.489  0.00  0.00    -0.002 C 
ATOM     29  C   UNL     1      34.856 -10.282 -25.524  0.00  0.00    +0.029 C 
ATOM     30  C   UNL     1      33.436  -9.175 -23.913  0.00  0.00    +0.029 C 
ATOM     31  C   UNL     1      34.388  -9.110 -24.931  0.00  0.00    +0.140 C 
ENDBRANCH  24  26
ENDBRANCH   3  24
TORSDOF 4
ENDMDL
MODEL 5
REMARK VINA RESULT:     -11.1      5.263     10.923
REMARK  Name = 10200813
REMARK  4 active torsions:
REMARK  status: ('A' for Active; 'I' for Inactive)
REMARK    1  A    between atoms: C_3  and  C_24
REMARK    2  A    between atoms: C_8  and  C_11
REMARK    3  A    between atoms: N_10  and  C_16
REMARK    4  A    between atoms: C_24  and  C_26
REMARK                            x       y       z     vdW  Elec       q    Type
REMARK                         _______ _______ _______ _____ _____    ______ ____
ROOT
ATOM      1  O   UNL     1      33.807 -13.666 -26.501  0.00  0.00    -0.265 OA
ATOM      2  N   UNL     1      33.759 -14.889 -24.493  0.00  0.00    -0.272 N 
ATOM      3  C   UNL     1      34.818 -17.182 -23.074  0.00  0.00    +0.008 C 
ATOM      4  C   UNL     1      34.834 -17.101 -24.609  0.00  0.00    +0.022 C 
ATOM      5  C   UNL     1      34.852 -15.770 -22.468  0.00  0.00    +0.022 C 
ATOM      6  C   UNL     1      33.711 -16.205 -25.127  0.00  0.00    +0.094 C 
ATOM      7  C   UNL     1      33.731 -14.898 -23.028  0.00  0.00    +0.094 C 
ATOM      8  C   UNL     1      33.782 -13.746 -25.279  0.00  0.00    +0.303 C 
ENDROOT
BRANCH   8  11
ATOM      9  O   UNL     1      33.615 -12.502 -23.343  0.00  0.00    -0.265 OA
ATOM     10  N   UNL     1      33.968 -11.373 -25.393  0.00  0.00    -0.277 N 
ATOM     11  C   UNL     1      33.778 -12.453 -24.555  0.00  0.00    +0.303 C 
ATOM     12  H   UNL     1      34.081 -11.577 -26.350  0.00  0.00    +0.155 HD
BRANCH  10  16
ATOM     13  O   UNL     1      31.908  -7.023 -24.634  0.00  0.00    -0.407 OA
ATOM     14  O   UNL     1      31.966  -4.788 -24.042  0.00  0.00    -0.223 OA
ATOM     15  N   UNL     1      33.910  -6.072 -24.027  0.00  0.00    -0.287 N 
ATOM     16  C   UNL     1      34.018 -10.007 -25.030  0.00  0.00    +0.054 C 
ATOM     17  C   UNL     1      32.844  -9.264 -25.048  0.00  0.00    +0.054 C 
ATOM     18  C   UNL     1      35.250  -9.450 -24.663  0.00  0.00    +0.016 C 
ATOM     19  C   UNL     1      32.947  -7.938 -24.685  0.00  0.00    +0.167 A 
ATOM     20  C   UNL     1      34.156  -7.386 -24.324  0.00  0.00    +0.096 A 
ATOM     21  C   UNL     1      35.331  -8.104 -24.299  0.00  0.00    +0.022 C 
ATOM     22  C   UNL     1      32.556  -5.848 -24.212  0.00  0.00    +0.419 A 
ATOM     23  H   UNL     1      34.575  -5.407 -23.734  0.00  0.00    +0.172 HD
ENDBRANCH  10  16
ENDBRANCH   8  11
BRANCH   3  24
ATOM     24  C   UNL     1      35.986 -18.021 -22.562  0.00  0.00    +0.026 C 
BRANCH  24  26
ATOM     25  F   UNL     1      34.233 -22.185 -19.219  0.00  0.00    -0.204 F 
ATOM     26  C   UNL     1      35.516 -19.136 -21.668  0.00  0.00    -0.022 C 
ATOM     27  C   UNL     1      34.161 -19.427 -21.591  0.00  0.00    -0.002 C 
ATOM     28  C   UNL     1      36.445 -19.858 -20.930  0.00  0.00    -0.002 C 
ATOM     29  C   UNL     1      33.727 -20.461 -20.762  0.00  0.00    +0.029 C 
ATOM     30  C   UNL     1      36.011 -20.892 -20.101  0.00  0.00    +0.029 C 
ATOM     31  C   UNL     1      34.651 -21.193 -20.017  0.00  0.00    +0.140 C 
ENDBRANCH  24  26
ENDBRANCH   3  24
TORSDOF 4
ENDMDL
MODEL 6
REMARK VINA RESULT:     -10.9      3.469      5.280
REMARK  Name = 10200813
REMARK  4 active torsions:
REMARK  status: ('A' for Active; 'I' for Inactive)
REMARK    1  A    between atoms: C_3  and  C_24
REMARK    2  A    between atoms: C_8  and  C_11
REMARK    3  A    between atoms: N_10  and  C_16
REMARK    4  A    between atoms: C_24  and  C_26
REMARK                            x       y       z     vdW  Elec       q    Type
REMARK                         _______ _______ _______ _____ _____    ______ ____
ROOT
ATOM      1  O   UNL     1      33.597 -13.548 -27.152  0.00  0.00    -0.265 OA
ATOM      2  N   UNL     1      33.863 -11.955 -25.445  0.00  0.00    -0.272 N 
ATOM      3  C   UNL     1      33.172  -9.290 -24.543  0.00  0.00    +0.008 C 
ATOM      4  C   UNL     1      33.110  -9.684 -26.027  0.00  0.00    +0.022 C 
ATOM      5  C   UNL     1      32.952 -10.525 -23.656  0.00  0.00    +0.022 C 
ATOM      6  C   UNL     1      34.083 -10.820 -26.338  0.00  0.00    +0.094 C 
ATOM      7  C   UNL     1      33.925 -11.646 -24.013  0.00  0.00    +0.094 C 
ATOM      8  C   UNL     1      33.660 -13.221 -25.974  0.00  0.00    +0.303 C 
ENDROOT
BRANCH   8  11
ATOM      9  O   UNL     1      32.678 -14.148 -24.104  0.00  0.00    -0.265 OA
ATOM     10  N   UNL     1      34.320 -15.396 -25.263  0.00  0.00    -0.277 N 
ATOM     11  C   UNL     1      33.497 -14.321 -24.996  0.00  0.00    +0.303 C 
ATOM     12  H   UNL     1      34.907 -15.314 -26.050  0.00  0.00    +0.155 HD
BRANCH  10  16
ATOM     13  O   UNL     1      35.758 -18.019 -21.416  0.00  0.00    -0.407 OA
ATOM     14  O   UNL     1      35.924 -19.981 -20.203  0.00  0.00    -0.223 OA
ATOM     15  N   UNL     1      34.817 -19.942 -22.252  0.00  0.00    -0.287 N 
ATOM     16  C   UNL     1      34.416 -16.603 -24.532  0.00  0.00    +0.054 C 
ATOM     17  C   UNL     1      35.082 -16.599 -23.313  0.00  0.00    +0.054 C 
ATOM     18  C   UNL     1      33.834 -17.763 -25.062  0.00  0.00    +0.016 C 
ATOM     19  C   UNL     1      35.146 -17.801 -22.640  0.00  0.00    +0.167 A 
ATOM     20  C   UNL     1      34.575 -18.943 -23.157  0.00  0.00    +0.096 A 
ATOM     21  C   UNL     1      33.910 -18.969 -24.363  0.00  0.00    +0.022 C 
ATOM     22  C   UNL     1      35.530 -19.391 -21.200  0.00  0.00    +0.419 A 
ATOM     23  H   UNL     1      34.534 -20.882 -22.334  0.00  0.00    +0.172 HD
ENDBRANCH  10  16
ENDBRANCH   8  11
BRANCH   3  24
ATOM     24  C   UNL     1      32.147  -8.203 -24.226  0.00  0.00    +0.026 C 
BRANCH  24  26
ATOM     25  F   UNL     1      33.717  -3.211 -26.277  0.00  0.00    -0.204 F 
ATOM     26  C   UNL     1      32.568  -6.868 -24.776  0.00  0.00    -0.022 C 
ATOM     27  C   UNL     1      33.877  -6.439 -24.604  0.00  0.00    -0.002 C 
ATOM     28  C   UNL     1      31.640  -6.081 -25.446  0.00  0.00    -0.002 C 
ATOM     29  C   UNL     1      34.266  -5.200 -25.113  0.00  0.00    +0.029 C 
ATOM     30  C   UNL     1      32.030  -4.843 -25.956  0.00  0.00    +0.029 C 
ATOM     31  C   UNL     1      33.343  -4.402 -25.789  0.00  0.00    +0.140 C 
ENDBRANCH  24  26
ENDBRANCH   3  24
TORSDOF 4
ENDMDL
MODEL 7
REMARK VINA RESULT:     -10.8      3.963      6.586
REMARK  Name = 10200813
REMARK  4 active torsions:
REMARK  status: ('A' for Active; 'I' for Inactive)
REMARK    1  A    between atoms: C_3  and  C_24
REMARK    2  A    between atoms: C_8  and  C_11
REMARK    3  A    between atoms: N_10  and  C_16
REMARK    4  A    between atoms: C_24  and  C_26
REMARK                            x       y       z     vdW  Elec       q    Type
REMARK                         _______ _______ _______ _____ _____    ______ ____
ROOT
ATOM      1  O   UNL     1      31.580 -11.421 -19.926  0.00  0.00    -0.265 OA
ATOM      2  N   UNL     1      31.898 -10.189 -21.902  0.00  0.00    -0.272 N 
ATOM      3  C   UNL     1      33.054  -7.798 -23.059  0.00  0.00    +0.008 C 
ATOM      4  C   UNL     1      32.716  -7.891 -21.563  0.00  0.00    +0.022 C 
ATOM      5  C   UNL     1      33.354  -9.195 -23.624  0.00  0.00    +0.022 C 
ATOM      6  C   UNL     1      31.586  -8.888 -21.314  0.00  0.00    +0.094 C 
ATOM      7  C   UNL     1      32.214 -10.169 -23.333  0.00  0.00    +0.094 C 
ATOM      8  C   UNL     1      31.836 -11.333 -21.120  0.00  0.00    +0.303 C 
ENDROOT
BRANCH   8  11
ATOM      9  O   UNL     1      31.221 -13.073 -22.504  0.00  0.00    -0.265 OA
ATOM     10  N   UNL     1      33.385 -13.091 -21.548  0.00  0.00    -0.277 N 
ATOM     11  C   UNL     1      32.117 -12.613 -21.809  0.00  0.00    +0.303 C 
ATOM     12  H   UNL     1      33.945 -12.544 -20.949  0.00  0.00    +0.155 HD
BRANCH  10  16
ATOM     13  O   UNL     1      35.266 -17.550 -20.972  0.00  0.00    -0.407 OA
ATOM     14  O   UNL     1      36.222 -19.503 -21.760  0.00  0.00    -0.223 OA
ATOM     15  N   UNL     1      35.656 -17.782 -23.226  0.00  0.00    -0.287 N 
ATOM     16  C   UNL     1      33.971 -14.280 -22.042  0.00  0.00    +0.054 C 
ATOM     17  C   UNL     1      34.299 -15.291 -21.147  0.00  0.00    +0.054 C 
ATOM     18  C   UNL     1      34.199 -14.398 -23.420  0.00  0.00    +0.016 C 
ATOM     19  C   UNL     1      34.866 -16.428 -21.681  0.00  0.00    +0.167 A 
ATOM     20  C   UNL     1      35.092 -16.549 -23.034  0.00  0.00    +0.096 A 
ATOM     21  C   UNL     1      34.774 -15.560 -23.939  0.00  0.00    +0.022 C 
ATOM     22  C   UNL     1      35.764 -18.390 -21.985  0.00  0.00    +0.419 A 
ATOM     23  H   UNL     1      35.935 -18.167 -24.088  0.00  0.00    +0.172 HD
ENDBRANCH  10  16
ENDBRANCH   8  11
BRANCH   3  24
ATOM     24  C   UNL     1      34.230  -6.853 -23.292  0.00  0.00    +0.026 C 
BRANCH  24  26
ATOM     25  F   UNL     1      32.916  -2.768 -26.922  0.00  0.00    -0.204 F 
ATOM     26  C   UNL     1      33.879  -5.759 -24.263  0.00  0.00    -0.022 C 
ATOM     27  C   UNL     1      32.792  -4.936 -24.002  0.00  0.00    -0.002 C 
ATOM     28  C   UNL     1      34.645  -5.589 -25.408  0.00  0.00    -0.002 C 
ATOM     29  C   UNL     1      32.466  -3.922 -24.903  0.00  0.00    +0.029 C 
ATOM     30  C   UNL     1      34.319  -4.575 -26.309  0.00  0.00    +0.029 C 
ATOM     31  C   UNL     1      33.230  -3.741 -26.056  0.00  0.00    +0.140 C 
ENDBRANCH  24  26
ENDBRANCH   3  24
TORSDOF 4
ENDMDL
MODEL 8
REMARK VINA RESULT:     -10.7      6.138     10.847
REMARK  Name = 10200813
REMARK  4 active torsions:
REMARK  status: ('A' for Active; 'I' for Inactive)
REMARK    1  A    between atoms: C_3  and  C_24
REMARK    2  A    between atoms: C_8  and  C_11
REMARK    3  A    between atoms: N_10  and  C_16
REMARK    4  A    between atoms: C_24  and  C_26
REMARK                            x       y       z     vdW  Elec       q    Type
REMARK                         _______ _______ _______ _____ _____    ______ ____
ROOT
ATOM      1  O   UNL     1      37.976 -22.717 -15.984  0.00  0.00    -0.265 OA
ATOM      2  N   UNL     1      35.808 -23.588 -16.240  0.00  0.00    -0.272 N 
ATOM      3  C   UNL     1      33.489 -24.648 -14.865  0.00  0.00    +0.008 C 
ATOM      4  C   UNL     1      34.886 -24.665 -14.226  0.00  0.00    +0.022 C 
ATOM      5  C   UNL     1      33.375 -23.485 -15.862  0.00  0.00    +0.022 C 
ATOM      6  C   UNL     1      35.980 -24.687 -15.292  0.00  0.00    +0.094 C 
ATOM      7  C   UNL     1      34.498 -23.526 -16.896  0.00  0.00    +0.094 C 
ATOM      8  C   UNL     1      36.863 -22.723 -16.493  0.00  0.00    +0.303 C 
ENDROOT
BRANCH   8  11
ATOM      9  O   UNL     1      37.264 -20.637 -17.392  0.00  0.00    -0.265 OA
ATOM     10  N   UNL     1      35.672 -22.040 -18.439  0.00  0.00    -0.277 N 
ATOM     11  C   UNL     1      36.617 -21.670 -17.505  0.00  0.00    +0.303 C 
ATOM     12  H   UNL     1      35.277 -22.936 -18.332  0.00  0.00    +0.155 HD
BRANCH  10  16
ATOM     13  O   UNL     1      36.339 -18.978 -22.172  0.00  0.00    -0.407 OA
ATOM     14  O   UNL     1      35.599 -17.723 -23.967  0.00  0.00    -0.223 OA
ATOM     15  N   UNL     1      34.106 -19.004 -22.718  0.00  0.00    -0.287 N 
ATOM     16  C   UNL     1      35.206 -21.275 -19.534  0.00  0.00    +0.054 C 
ATOM     17  C   UNL     1      36.116 -20.519 -20.262  0.00  0.00    +0.054 C 
ATOM     18  C   UNL     1      33.840 -21.307 -19.848  0.00  0.00    +0.016 C 
ATOM     19  C   UNL     1      35.611 -19.794 -21.319  0.00  0.00    +0.167 A 
ATOM     20  C   UNL     1      34.269 -19.821 -21.632  0.00  0.00    +0.096 A 
ATOM     21  C   UNL     1      33.350 -20.563 -20.924  0.00  0.00    +0.022 C 
ATOM     22  C   UNL     1      35.351 -18.492 -23.048  0.00  0.00    +0.419 A 
ATOM     23  H   UNL     1      33.258 -18.813 -23.181  0.00  0.00    +0.172 HD
ENDBRANCH  10  16
ENDBRANCH   8  11
BRANCH   3  24
ATOM     24  C   UNL     1      32.403 -24.556 -13.795  0.00  0.00    +0.026 C 
BRANCH  24  26
ATOM     25  F   UNL     1      27.344 -23.619 -16.057  0.00  0.00    -0.204 F 
ATOM     26  C   UNL     1      31.049 -24.305 -14.400  0.00  0.00    -0.022 C 
ATOM     27  C   UNL     1      30.227 -25.381 -14.705  0.00  0.00    -0.002 C 
ATOM     28  C   UNL     1      30.641 -23.001 -14.646  0.00  0.00    -0.002 C 
ATOM     29  C   UNL     1      28.971 -25.148 -15.266  0.00  0.00    +0.029 C 
ATOM     30  C   UNL     1      29.385 -22.768 -15.207  0.00  0.00    +0.029 C 
ATOM     31  C   UNL     1      28.550 -23.842 -15.517  0.00  0.00    +0.140 C 
ENDBRANCH  24  26
ENDBRANCH   3  24
TORSDOF 4
ENDMDL
MODEL 9
REMARK VINA RESULT:     -10.6      6.034     10.299
REMARK  Name = 10200813
REMARK  4 active torsions:
REMARK  status: ('A' for Active; 'I' for Inactive)
REMARK    1  A    between atoms: C_3  and  C_24
REMARK    2  A    between atoms: C_8  and  C_11
REMARK    3  A    between atoms: N_10  and  C_16
REMARK    4  A    between atoms: C_24  and  C_26
REMARK                            x       y       z     vdW  Elec       q    Type
REMARK                         _______ _______ _______ _____ _____    ______ ____
ROOT
ATOM      1  O   UNL     1      37.194 -21.518 -17.389  0.00  0.00    -0.265 OA
ATOM      2  N   UNL     1      35.318 -22.921 -17.191  0.00  0.00    -0.272 N 
ATOM      3  C   UNL     1      33.136 -23.754 -15.478  0.00  0.00    +0.008 C 
ATOM      4  C   UNL     1      34.412 -23.114 -14.910  0.00  0.00    +0.022 C 
ATOM      5  C   UNL     1      32.894 -23.269 -16.916  0.00  0.00    +0.022 C 
ATOM      6  C   UNL     1      35.608 -23.359 -15.827  0.00  0.00    +0.094 C 
ATOM      7  C   UNL     1      34.119 -23.509 -17.796  0.00  0.00    +0.094 C 
ATOM      8  C   UNL     1      36.181 -22.044 -17.832  0.00  0.00    +0.303 C 
ENDROOT
BRANCH   8  11
ATOM      9  O   UNL     1      35.302 -22.565 -19.901  0.00  0.00    -0.265 OA
ATOM     10  N   UNL     1      36.189 -20.398 -19.554  0.00  0.00    -0.277 N 
ATOM     11  C   UNL     1      35.839 -21.693 -19.230  0.00  0.00    +0.303 C 
ATOM     12  H   UNL     1      36.616 -19.869 -18.842  0.00  0.00    +0.155 HD
BRANCH  10  16
ATOM     13  O   UNL     1      33.500 -19.133 -23.417  0.00  0.00    -0.407 OA
ATOM     14  O   UNL     1      33.177 -18.074 -25.447  0.00  0.00    -0.223 OA
ATOM     15  N   UNL     1      35.237 -17.961 -24.363  0.00  0.00    -0.287 N 
ATOM     16  C   UNL     1      36.005 -19.748 -20.797  0.00  0.00    +0.054 C 
ATOM     17  C   UNL     1      34.767 -19.831 -21.422  0.00  0.00    +0.054 C 
ATOM     18  C   UNL     1      37.078 -19.039 -21.354  0.00  0.00    +0.016 C 
ATOM     19  C   UNL     1      34.640 -19.179 -22.629  0.00  0.00    +0.167 A 
ATOM     20  C   UNL     1      35.692 -18.481 -23.182  0.00  0.00    +0.096 A 
ATOM     21  C   UNL     1      36.927 -18.385 -22.579  0.00  0.00    +0.022 C 
ATOM     22  C   UNL     1      33.915 -18.351 -24.510  0.00  0.00    +0.419 A 
ATOM     23  H   UNL     1      35.754 -17.410 -24.995  0.00  0.00    +0.172 HD
ENDBRANCH  10  16
ENDBRANCH   8  11
BRANCH   3  24
ATOM     24  C   UNL     1      31.932 -23.444 -14.591  0.00  0.00    +0.026 C 
BRANCH  24  26
ATOM     25  F   UNL     1      27.087 -24.168 -17.345  0.00  0.00    -0.204 F 
ATOM     26  C   UNL     1      30.636 -23.638 -15.329  0.00  0.00    -0.022 C 
ATOM     27  C   UNL     1      29.975 -22.535 -15.852  0.00  0.00    -0.002 C 
ATOM     28  C   UNL     1      30.117 -24.917 -15.475  0.00  0.00    -0.002 C 
ATOM     29  C   UNL     1      28.773 -22.715 -16.536  0.00  0.00    +0.029 C 
ATOM     30  C   UNL     1      28.914 -25.098 -16.159  0.00  0.00    +0.029 C 
ATOM     31  C   UNL     1      28.243 -23.996 -16.690  0.00  0.00    +0.140 C 
ENDBRANCH  24  26
ENDBRANCH   3  24
TORSDOF 4
ENDMDL
