MODEL 1
REMARK VINA RESULT:     -12.6      0.000      0.000
REMARK  Name = 10074640
REMARK  6 active torsions:
REMARK  status: ('A' for Active; 'I' for Inactive)
REMARK    1  A    between atoms: N_2  and  C_5
REMARK    2  A    between atoms: C_3  and  C_30
REMARK    3  A    between atoms: C_6  and  N_13
REMARK    4  A    between atoms: C_16  and  C_20
REMARK    5  A    between atoms: C_25  and  C_31
REMARK    6  A    between atoms: C_31  and  N_32
REMARK                            x       y       z     vdW  Elec       q    Type
REMARK                         _______ _______ _______ _____ _____    ______ ____
ROOT
ATOM      1  O   UNL     1      33.522 -23.855 -19.328  0.00  0.00    -0.270 OA
ATOM      2  N   UNL     1      33.119 -22.245 -17.669  0.00  0.00    -0.280 N 
ATOM      3  C   UNL     1      33.580 -22.684 -18.918  0.00  0.00    +0.249 C 
ATOM      4  H   UNL     1      33.232 -21.285 -17.485  0.00  0.00    +0.155 HD
ENDROOT
BRANCH   2   5
ATOM      5  C   UNL     1      32.511 -23.002 -16.639  0.00  0.00    +0.052 C 
ATOM      6  C   UNL     1      32.557 -23.876 -14.406  0.00  0.00    +0.048 C 
ATOM      7  C   UNL     1      33.157 -23.131 -15.422  0.00  0.00    +0.029 C 
ATOM      8  C   UNL     1      31.319 -24.480 -14.623  0.00  0.00    -0.008 C 
ATOM      9  C   UNL     1      31.281 -23.596 -16.871  0.00  0.00    +0.014 C 
ATOM     10  C   UNL     1      30.681 -24.341 -15.857  0.00  0.00    -0.002 C 
ATOM     11  C   UNL     1      30.654 -25.284 -13.554  0.00  0.00    +0.032 C 
BRANCH   6  13
ATOM     12  S   UNL     1      34.992 -24.571 -11.266  0.00  0.00    -0.059 S 
ATOM     13  N   UNL     1      33.216 -24.007 -13.165  0.00  0.00    -0.283 N 
ATOM     14  N   UNL     1      35.457 -24.408 -13.805  0.00  0.00    -0.384 NA
ATOM     15  C   UNL     1      34.522 -24.307 -12.892  0.00  0.00    +0.211 C 
ATOM     16  C   UNL     1      36.649 -24.721 -13.180  0.00  0.00    +0.124 C 
ATOM     17  C   UNL     1      36.595 -24.850 -11.808  0.00  0.00    +0.125 C 
ATOM     18  H   UNL     1      32.649 -23.859 -12.374  0.00  0.00    +0.155 HD
BRANCH  16  20
ATOM     19  N   UNL     1      39.225 -24.287 -15.825  0.00  0.00    -0.242 NA
ATOM     20  C   UNL     1      37.863 -24.897 -13.924  0.00  0.00    +0.046 C 
ATOM     21  C   UNL     1      38.831 -25.805 -13.511  0.00  0.00    +0.005 C 
ATOM     22  C   UNL     1      38.104 -24.169 -15.078  0.00  0.00    +0.101 C 
ATOM     23  C   UNL     1      39.997 -25.954 -14.253  0.00  0.00    +0.021 C 
ATOM     24  C   UNL     1      40.144 -25.178 -15.392  0.00  0.00    +0.099 C 
ENDBRANCH  16  20
ENDBRANCH   6  13
ENDBRANCH   2   5
BRANCH   3  30
ATOM     25  C   UNL     1      35.352 -19.730 -21.373  0.00  0.00    -0.043 C 
ATOM     26  C   UNL     1      36.163 -20.579 -20.632  0.00  0.00    -0.006 C 
ATOM     27  C   UNL     1      33.969 -19.836 -21.322  0.00  0.00    -0.006 C 
ATOM     28  C   UNL     1      35.577 -21.553 -19.823  0.00  0.00    +0.004 C 
ATOM     29  C   UNL     1      33.384 -20.811 -20.513  0.00  0.00    +0.004 C 
ATOM     30  C   UNL     1      34.189 -21.669 -19.764  0.00  0.00    +0.054 C 
BRANCH  25  31
ATOM     31  C   UNL     1      35.983 -18.679 -22.248  0.00  0.00    -0.050 C 
BRANCH  31  32
ATOM     32  N   UNL     1      34.988 -17.757 -22.793  0.00  0.00    +0.387 N 
ATOM     33  N   UNL     1      34.190 -15.453 -24.346  0.00  0.00    +0.383 N 
ATOM     34  C   UNL     1      35.219 -16.393 -22.305  0.00  0.00    -0.100 C 
ATOM     35  C   UNL     1      35.002 -17.785 -24.261  0.00  0.00    -0.100 C 
ATOM     36  C   UNL     1      34.178 -15.424 -22.878  0.00  0.00    -0.101 C 
ATOM     37  C   UNL     1      33.960 -16.818 -24.834  0.00  0.00    -0.101 C 
ATOM     38  C   UNL     1      33.194 -14.532 -24.891  0.00  0.00    -0.101 C 
ATOM     39  H   UNL     1      34.069 -18.062 -22.474  0.00  0.00    -0.079 HD
ATOM     40  H   UNL     1      35.109 -15.147 -24.666  0.00  0.00    -0.080 HD
ENDBRANCH  31  32
ENDBRANCH  25  31
ENDBRANCH   3  30
TORSDOF 6
ENDMDL
MODEL 2
REMARK VINA RESULT:     -10.2      5.594     10.749
REMARK  Name = 10074640
REMARK  6 active torsions:
REMARK  status: ('A' for Active; 'I' for Inactive)
REMARK    1  A    between atoms: N_2  and  C_5
REMARK    2  A    between atoms: C_3  and  C_30
REMARK    3  A    between atoms: C_6  and  N_13
REMARK    4  A    between atoms: C_16  and  C_20
REMARK    5  A    between atoms: C_25  and  C_31
REMARK    6  A    between atoms: C_31  and  N_32
REMARK                            x       y       z     vdW  Elec       q    Type
REMARK                         _______ _______ _______ _____ _____    ______ ____
ROOT
ATOM      1  O   UNL     1      32.381 -13.866 -21.664  0.00  0.00    -0.270 OA
ATOM      2  N   UNL     1      33.276 -13.690 -23.825  0.00  0.00    -0.280 N 
ATOM      3  C   UNL     1      32.689 -13.187 -22.656  0.00  0.00    +0.249 C 
ATOM      4  H   UNL     1      33.464 -13.027 -24.529  0.00  0.00    +0.155 HD
ENDROOT
BRANCH   2   5
ATOM      5  C   UNL     1      33.633 -15.027 -24.127  0.00  0.00    +0.052 C 
ATOM      6  C   UNL     1      35.063 -16.919 -23.777  0.00  0.00    +0.048 C 
ATOM      7  C   UNL     1      34.713 -15.601 -23.479  0.00  0.00    +0.029 C 
ATOM      8  C   UNL     1      34.328 -17.641 -24.716  0.00  0.00    -0.008 C 
ATOM      9  C   UNL     1      32.892 -15.730 -25.062  0.00  0.00    +0.014 C 
ATOM     10  C   UNL     1      33.242 -17.046 -25.360  0.00  0.00    -0.002 C 
ATOM     11  C   UNL     1      34.682 -19.052 -25.054  0.00  0.00    +0.032 C 
BRANCH   6  13
ATOM     12  S   UNL     1      37.689 -18.859 -21.407  0.00  0.00    -0.059 S 
ATOM     13  N   UNL     1      36.165 -17.505 -23.116  0.00  0.00    -0.283 N 
ATOM     14  N   UNL     1      35.141 -19.138 -21.746  0.00  0.00    -0.384 NA
ATOM     15  C   UNL     1      36.195 -18.473 -22.151  0.00  0.00    +0.211 C 
ATOM     16  C   UNL     1      35.533 -20.031 -20.767  0.00  0.00    +0.124 C 
ATOM     17  C   UNL     1      36.875 -20.025 -20.449  0.00  0.00    +0.125 C 
ATOM     18  H   UNL     1      37.046 -17.166 -23.394  0.00  0.00    +0.155 HD
BRANCH  16  20
ATOM     19  N   UNL     1      32.290 -21.511 -19.715  0.00  0.00    -0.242 NA
ATOM     20  C   UNL     1      34.593 -20.905 -20.128  0.00  0.00    +0.046 C 
ATOM     21  C   UNL     1      35.022 -21.958 -19.329  0.00  0.00    +0.005 C 
ATOM     22  C   UNL     1      33.228 -20.725 -20.288  0.00  0.00    +0.101 C 
ATOM     23  C   UNL     1      34.087 -22.789 -18.722  0.00  0.00    +0.021 C 
ATOM     24  C   UNL     1      32.745 -22.525 -18.945  0.00  0.00    +0.099 C 
ENDBRANCH  16  20
ENDBRANCH   6  13
ENDBRANCH   2   5
BRANCH   3  30
ATOM     25  C   UNL     1      31.888  -9.033 -22.632  0.00  0.00    -0.043 C 
ATOM     26  C   UNL     1      32.740  -9.559 -23.593  0.00  0.00    -0.006 C 
ATOM     27  C   UNL     1      31.294  -9.849 -21.679  0.00  0.00    -0.006 C 
ATOM     28  C   UNL     1      33.004 -10.929 -23.601  0.00  0.00    +0.004 C 
ATOM     29  C   UNL     1      31.557 -11.219 -21.687  0.00  0.00    +0.004 C 
ATOM     30  C   UNL     1      32.412 -11.758 -22.648  0.00  0.00    +0.054 C 
BRANCH  25  31
ATOM     31  C   UNL     1      31.602  -7.555 -22.624  0.00  0.00    -0.050 C 
BRANCH  31  32
ATOM     32  N   UNL     1      32.177  -6.884 -23.789  0.00  0.00    +0.387 N 
ATOM     33  N   UNL     1      33.076  -4.545 -25.232  0.00  0.00    +0.383 N 
ATOM     34  C   UNL     1      31.221  -5.932 -24.367  0.00  0.00    -0.100 C 
ATOM     35  C   UNL     1      33.427  -6.201 -23.432  0.00  0.00    -0.100 C 
ATOM     36  C   UNL     1      31.825  -5.227 -25.587  0.00  0.00    -0.101 C 
ATOM     37  C   UNL     1      34.031  -5.498 -24.652  0.00  0.00    -0.101 C 
ATOM     38  C   UNL     1      33.652  -3.877 -26.397  0.00  0.00    -0.101 C 
ATOM     39  H   UNL     1      32.387  -7.595 -24.489  0.00  0.00    -0.079 HD
ATOM     40  H   UNL     1      32.866  -3.833 -24.532  0.00  0.00    -0.080 HD
ENDBRANCH  31  32
ENDBRANCH  25  31
ENDBRANCH   3  30
TORSDOF 6
ENDMDL
MODEL 3
REMARK VINA RESULT:      -9.7      6.637     15.459
REMARK  Name = 10074640
REMARK  6 active torsions:
REMARK  status: ('A' for Active; 'I' for Inactive)
REMARK    1  A    between atoms: N_2  and  C_5
REMARK    2  A    between atoms: C_3  and  C_30
REMARK    3  A    between atoms: C_6  and  N_13
REMARK    4  A    between atoms: C_16  and  C_20
REMARK    5  A    between atoms: C_25  and  C_31
REMARK    6  A    between atoms: C_31  and  N_32
REMARK                            x       y       z     vdW  Elec       q    Type
REMARK                         _______ _______ _______ _____ _____    ______ ____
ROOT
ATOM      1  O   UNL     1      33.112 -15.727 -25.388  0.00  0.00    -0.270 OA
ATOM      2  N   UNL     1      34.367 -14.173 -24.157  0.00  0.00    -0.280 N 
ATOM      3  C   UNL     1      33.947 -15.464 -24.508  0.00  0.00    +0.249 C 
ATOM      4  H   UNL     1      35.038 -14.123 -23.438  0.00  0.00    +0.155 HD
ENDROOT
BRANCH   2   5
ATOM      5  C   UNL     1      33.952 -12.933 -24.700  0.00  0.00    +0.052 C 
ATOM      6  C   UNL     1      33.164 -10.691 -24.382  0.00  0.00    +0.048 C 
ATOM      7  C   UNL     1      33.571 -11.913 -23.846  0.00  0.00    +0.029 C 
ATOM      8  C   UNL     1      33.145 -10.508 -25.764  0.00  0.00    -0.008 C 
ATOM      9  C   UNL     1      33.939 -12.768 -26.075  0.00  0.00    +0.014 C 
ATOM     10  C   UNL     1      33.532 -11.547 -26.612  0.00  0.00    -0.002 C 
ATOM     11  C   UNL     1      32.713  -9.211 -26.365  0.00  0.00    +0.032 C 
BRANCH   6  13
ATOM     12  S   UNL     1      32.549  -7.300 -22.285  0.00  0.00    -0.059 S 
ATOM     13  N   UNL     1      32.775  -9.651 -23.511  0.00  0.00    -0.283 N 
ATOM     14  N   UNL     1      33.531  -7.716 -24.640  0.00  0.00    -0.384 NA
ATOM     15  C   UNL     1      32.994  -8.304 -23.600  0.00  0.00    +0.211 C 
ATOM     16  C   UNL     1      33.603  -6.358 -24.391  0.00  0.00    +0.124 C 
ATOM     17  C   UNL     1      33.119  -5.945 -23.168  0.00  0.00    +0.125 C 
ATOM     18  H   UNL     1      32.269  -9.939 -22.717  0.00  0.00    +0.155 HD
BRANCH  16  20
ATOM     19  N   UNL     1      33.968  -3.349 -26.541  0.00  0.00    -0.242 NA
ATOM     20  C   UNL     1      34.148  -5.446 -25.353  0.00  0.00    +0.046 C 
ATOM     21  C   UNL     1      35.333  -5.732 -26.020  0.00  0.00    +0.005 C 
ATOM     22  C   UNL     1      33.509  -4.252 -25.646  0.00  0.00    +0.101 C 
ATOM     23  C   UNL     1      35.838  -4.828 -26.948  0.00  0.00    +0.021 C 
ATOM     24  C   UNL     1      35.123  -3.661 -27.171  0.00  0.00    +0.099 C 
ENDBRANCH  16  20
ENDBRANCH   6  13
ENDBRANCH   2   5
BRANCH   3  30
ATOM     25  C   UNL     1      35.661 -18.635 -22.295  0.00  0.00    -0.043 C 
ATOM     26  C   UNL     1      35.242 -18.860 -23.599  0.00  0.00    -0.006 C 
ATOM     27  C   UNL     1      35.526 -17.385 -21.706  0.00  0.00    -0.006 C 
ATOM     28  C   UNL     1      34.677 -17.813 -24.329  0.00  0.00    +0.004 C 
ATOM     29  C   UNL     1      34.962 -16.340 -22.436  0.00  0.00    +0.004 C 
ATOM     30  C   UNL     1      34.538 -16.554 -23.747  0.00  0.00    +0.054 C 
BRANCH  25  31
ATOM     31  C   UNL     1      36.272 -19.764 -21.507  0.00  0.00    -0.050 C 
BRANCH  31  32
ATOM     32  N   UNL     1      35.363 -20.263 -20.477  0.00  0.00    +0.387 N 
ATOM     33  N   UNL     1      33.620 -22.264 -19.329  0.00  0.00    +0.383 N 
ATOM     34  C   UNL     1      34.033 -20.528 -21.039  0.00  0.00    -0.100 C 
ATOM     35  C   UNL     1      35.903 -21.474 -19.847  0.00  0.00    -0.100 C 
ATOM     36  C   UNL     1      33.079 -21.054 -19.961  0.00  0.00    -0.101 C 
ATOM     37  C   UNL     1      34.950 -21.998 -18.768  0.00  0.00    -0.101 C 
ATOM     38  C   UNL     1      32.712 -22.761 -18.298  0.00  0.00    -0.101 C 
ATOM     39  H   UNL     1      35.271 -19.541 -19.762  0.00  0.00    -0.079 HD
ATOM     40  H   UNL     1      33.710 -22.986 -20.043  0.00  0.00    -0.080 HD
ENDBRANCH  31  32
ENDBRANCH  25  31
ENDBRANCH   3  30
TORSDOF 6
ENDMDL
