MODEL 1
REMARK VINA RESULT:     -12.0      0.000      0.000
REMARK  Name = 5326929
REMARK  3 active torsions:
REMARK  status: ('A' for Active; 'I' for Inactive)
REMARK    1  A    between atoms: C_7  and  C_21
REMARK    2  A    between atoms: C_21  and  C_22
REMARK    3  A    between atoms: C_22  and  C_23
REMARK                            x       y       z     vdW  Elec       q    Type
REMARK                         _______ _______ _______ _____ _____    ______ ____
ROOT
ATOM      1  O   UNL     1      34.552 -25.010 -12.172  0.00  0.00    -0.209 OA
ATOM      2  N   UNL     1      34.488 -23.038 -15.658  0.00  0.00    -0.275 N 
ATOM      3  N   UNL     1      29.728 -25.392 -14.219  0.00  0.00    -0.315 N 
ATOM      4  N   UNL     1      29.724 -24.289 -16.148  0.00  0.00    -0.316 N 
ATOM      5  N   UNL     1      35.677 -23.760 -13.727  0.00  0.00    -0.302 NA
ATOM      6  N   UNL     1      36.696 -22.475 -15.400  0.00  0.00    -0.320 N 
ATOM      7  C   UNL     1      32.140 -23.581 -16.032  0.00  0.00    +0.007 C 
ATOM      8  C   UNL     1      33.302 -23.655 -15.248  0.00  0.00    +0.060 C 
ATOM      9  C   UNL     1      30.973 -24.217 -15.574  0.00  0.00    +0.056 C 
ATOM     10  C   UNL     1      31.001 -24.901 -14.363  0.00  0.00    +0.060 C 
ATOM     11  C   UNL     1      33.291 -24.354 -14.031  0.00  0.00    +0.109 C 
ATOM     12  C   UNL     1      32.137 -24.997 -13.557  0.00  0.00    +0.029 C 
ATOM     13  C   UNL     1      34.553 -24.401 -13.238  0.00  0.00    +0.208 C 
ATOM     14  C   UNL     1      29.004 -25.001 -15.311  0.00  0.00    +0.182 C 
ATOM     15  C   UNL     1      35.611 -23.128 -14.869  0.00  0.00    +0.248 C 
ATOM     16  H   UNL     1      34.518 -22.543 -16.508  0.00  0.00    +0.156 HD
ATOM     17  H   UNL     1      29.396 -25.931 -13.466  0.00  0.00    +0.148 HD
ATOM     18  H   UNL     1      29.434 -23.894 -17.002  0.00  0.00    +0.148 HD
ATOM     19  H   UNL     1      36.615 -22.007 -16.263  0.00  0.00    +0.146 HD
ATOM     20  H   UNL     1      37.554 -22.474 -14.919  0.00  0.00    +0.146 HD
ENDROOT
BRANCH   7  21
ATOM     21  C   UNL     1      32.144 -22.836 -17.330  0.00  0.00    +0.034 C 
BRANCH  21  22
ATOM     22  C   UNL     1      33.226 -23.312 -18.317  0.00  0.00    +0.031 C 
BRANCH  22  23
ATOM     23  C   UNL     1      33.717 -22.220 -19.235  0.00  0.00    -0.022 C 
ATOM     24  C   UNL     1      32.796 -21.406 -19.879  0.00  0.00    -0.005 C 
ATOM     25  C   UNL     1      35.079 -22.047 -19.418  0.00  0.00    -0.005 C 
ATOM     26  C   UNL     1      34.620 -20.213 -20.922  0.00  0.00    -0.022 C 
ATOM     27  C   UNL     1      33.251 -20.397 -20.727  0.00  0.00    -0.005 C 
ATOM     28  C   UNL     1      35.534 -21.038 -20.267  0.00  0.00    -0.005 C 
ATOM     29  C   UNL     1      35.106 -19.134 -21.827  0.00  0.00    +0.031 C 
ENDBRANCH  22  23
ENDBRANCH  21  22
ENDBRANCH   7  21
TORSDOF 3
ENDMDL
MODEL 2
REMARK VINA RESULT:     -11.6      1.773      4.299
REMARK  Name = 5326929
REMARK  3 active torsions:
REMARK  status: ('A' for Active; 'I' for Inactive)
REMARK    1  A    between atoms: C_7  and  C_21
REMARK    2  A    between atoms: C_21  and  C_22
REMARK    3  A    between atoms: C_22  and  C_23
REMARK                            x       y       z     vdW  Elec       q    Type
REMARK                         _______ _______ _______ _____ _____    ______ ____
ROOT
ATOM      1  O   UNL     1      28.462 -25.736 -14.212  0.00  0.00    -0.209 OA
ATOM      2  N   UNL     1      29.606 -23.189 -17.085  0.00  0.00    -0.275 N 
ATOM      3  N   UNL     1      33.665 -25.078 -13.888  0.00  0.00    -0.315 N 
ATOM      4  N   UNL     1      34.268 -23.664 -15.492  0.00  0.00    -0.316 N 
ATOM      5  N   UNL     1      27.880 -24.398 -15.977  0.00  0.00    -0.302 NA
ATOM      6  N   UNL     1      27.435 -22.992 -17.798  0.00  0.00    -0.320 N 
ATOM      7  C   UNL     1      31.945 -23.326 -16.408  0.00  0.00    +0.007 C 
ATOM      8  C   UNL     1      30.601 -23.698 -16.245  0.00  0.00    +0.060 C 
ATOM      9  C   UNL     1      32.908 -23.867 -15.538  0.00  0.00    +0.056 C 
ATOM     10  C   UNL     1      32.505 -24.750 -14.542  0.00  0.00    +0.060 C 
ATOM     11  C   UNL     1      30.234 -24.593 -15.227  0.00  0.00    +0.109 C 
ATOM     12  C   UNL     1      31.179 -25.142 -14.348  0.00  0.00    +0.029 C 
ATOM     13  C   UNL     1      28.792 -24.953 -15.098  0.00  0.00    +0.208 C 
ATOM     14  C   UNL     1      34.690 -24.404 -14.492  0.00  0.00    +0.182 C 
ATOM     15  C   UNL     1      28.297 -23.571 -16.901  0.00  0.00    +0.248 C 
ATOM     16  H   UNL     1      29.841 -22.560 -17.804  0.00  0.00    +0.156 HD
ATOM     17  H   UNL     1      33.746 -25.689 -13.120  0.00  0.00    +0.148 HD
ATOM     18  H   UNL     1      34.808 -23.089 -16.081  0.00  0.00    +0.148 HD
ATOM     19  H   UNL     1      27.780 -22.373 -18.483  0.00  0.00    +0.146 HD
ATOM     20  H   UNL     1      26.474 -23.195 -17.759  0.00  0.00    +0.146 HD
ENDROOT
BRANCH   7  21
ATOM     21  C   UNL     1      32.344 -22.373 -17.491  0.00  0.00    +0.034 C 
BRANCH  21  22
ATOM     22  C   UNL     1      33.297 -22.983 -18.537  0.00  0.00    +0.031 C 
BRANCH  22  23
ATOM     23  C   UNL     1      33.926 -21.952 -19.441  0.00  0.00    -0.022 C 
ATOM     24  C   UNL     1      35.308 -21.880 -19.532  0.00  0.00    -0.005 C 
ATOM     25  C   UNL     1      33.113 -21.096 -20.166  0.00  0.00    -0.005 C 
ATOM     26  C   UNL     1      35.083 -20.058 -21.103  0.00  0.00    -0.022 C 
ATOM     27  C   UNL     1      35.889 -20.927 -20.369  0.00  0.00    -0.005 C 
ATOM     28  C   UNL     1      33.694 -20.143 -21.003  0.00  0.00    -0.005 C 
ATOM     29  C   UNL     1      35.704 -19.041 -21.998  0.00  0.00    +0.031 C 
ENDBRANCH  22  23
ENDBRANCH  21  22
ENDBRANCH   7  21
TORSDOF 3
ENDMDL
MODEL 3
REMARK VINA RESULT:     -11.5      1.779      2.584
REMARK  Name = 5326929
REMARK  3 active torsions:
REMARK  status: ('A' for Active; 'I' for Inactive)
REMARK    1  A    between atoms: C_7  and  C_21
REMARK    2  A    between atoms: C_21  and  C_22
REMARK    3  A    between atoms: C_22  and  C_23
REMARK                            x       y       z     vdW  Elec       q    Type
REMARK                         _______ _______ _______ _____ _____    ______ ____
ROOT
ATOM      1  O   UNL     1      36.499 -26.204 -11.974  0.00  0.00    -0.209 OA
ATOM      2  N   UNL     1      37.221 -24.349 -15.449  0.00  0.00    -0.275 N 
ATOM      3  N   UNL     1      32.081 -23.838 -13.555  0.00  0.00    -0.315 N 
ATOM      4  N   UNL     1      32.514 -22.819 -15.481  0.00  0.00    -0.316 N 
ATOM      5  N   UNL     1      37.987 -25.685 -13.635  0.00  0.00    -0.302 NA
ATOM      6  N   UNL     1      39.396 -25.074 -15.404  0.00  0.00    -0.320 N 
ATOM      7  C   UNL     1      34.930 -23.526 -15.597  0.00  0.00    +0.007 C 
ATOM      8  C   UNL     1      35.928 -24.250 -14.925  0.00  0.00    +0.060 C 
ATOM      9  C   UNL     1      33.646 -23.456 -15.027  0.00  0.00    +0.056 C 
ATOM     10  C   UNL     1      33.401 -24.102 -13.820  0.00  0.00    +0.060 C 
ATOM     11  C   UNL     1      35.642 -24.888 -13.708  0.00  0.00    +0.109 C 
ATOM     12  C   UNL     1      34.367 -24.830 -13.125  0.00  0.00    +0.029 C 
ATOM     13  C   UNL     1      36.740 -25.643 -13.038  0.00  0.00    +0.208 C 
ATOM     14  C   UNL     1      31.596 -23.069 -14.576  0.00  0.00    +0.182 C 
ATOM     15  C   UNL     1      38.179 -25.065 -14.769  0.00  0.00    +0.248 C 
ATOM     16  H   UNL     1      37.443 -23.910 -16.301  0.00  0.00    +0.156 HD
ATOM     17  H   UNL     1      31.575 -24.147 -12.770  0.00  0.00    +0.148 HD
ATOM     18  H   UNL     1      32.414 -22.291 -16.306  0.00  0.00    +0.148 HD
ATOM     19  H   UNL     1      39.509 -24.597 -16.259  0.00  0.00    +0.146 HD
ATOM     20  H   UNL     1      40.155 -25.557 -15.006  0.00  0.00    +0.146 HD
ENDROOT
BRANCH   7  21
ATOM     21  C   UNL     1      35.228 -22.842 -16.894  0.00  0.00    +0.034 C 
BRANCH  21  22
ATOM     22  C   UNL     1      34.162 -23.076 -17.981  0.00  0.00    +0.031 C 
BRANCH  22  23
ATOM     23  C   UNL     1      34.217 -22.061 -19.096  0.00  0.00    -0.022 C 
ATOM     24  C   UNL     1      35.447 -21.675 -19.606  0.00  0.00    -0.005 C 
ATOM     25  C   UNL     1      33.036 -21.533 -19.593  0.00  0.00    -0.005 C 
ATOM     26  C   UNL     1      34.315 -20.197 -21.146  0.00  0.00    -0.022 C 
ATOM     27  C   UNL     1      35.496 -20.737 -20.637  0.00  0.00    -0.005 C 
ATOM     28  C   UNL     1      33.085 -20.596 -20.624  0.00  0.00    -0.005 C 
ATOM     29  C   UNL     1      34.368 -19.195 -22.249  0.00  0.00    +0.031 C 
ENDBRANCH  22  23
ENDBRANCH  21  22
ENDBRANCH   7  21
TORSDOF 3
ENDMDL
MODEL 4
REMARK VINA RESULT:     -11.3      1.274      4.062
REMARK  Name = 5326929
REMARK  3 active torsions:
REMARK  status: ('A' for Active; 'I' for Inactive)
REMARK    1  A    between atoms: C_7  and  C_21
REMARK    2  A    between atoms: C_21  and  C_22
REMARK    3  A    between atoms: C_22  and  C_23
REMARK                            x       y       z     vdW  Elec       q    Type
REMARK                         _______ _______ _______ _____ _____    ______ ____
ROOT
ATOM      1  O   UNL     1      30.826 -25.419 -13.057  0.00  0.00    -0.209 OA
ATOM      2  N   UNL     1      30.425 -23.633 -16.620  0.00  0.00    -0.275 N 
ATOM      3  N   UNL     1      35.570 -23.857 -14.686  0.00  0.00    -0.315 N 
ATOM      4  N   UNL     1      35.316 -22.873 -16.661  0.00  0.00    -0.316 N 
ATOM      5  N   UNL     1      29.447 -24.746 -14.757  0.00  0.00    -0.302 NA
ATOM      6  N   UNL     1      28.162 -24.002 -16.570  0.00  0.00    -0.320 N 
ATOM      7  C   UNL     1      32.818 -23.190 -16.775  0.00  0.00    +0.007 C 
ATOM      8  C   UNL     1      31.714 -23.715 -16.084  0.00  0.00    +0.060 C 
ATOM      9  C   UNL     1      34.094 -23.299 -16.193  0.00  0.00    +0.056 C 
ATOM     10  C   UNL     1      34.227 -23.920 -14.956  0.00  0.00    +0.060 C 
ATOM     11  C   UNL     1      31.889 -24.335 -14.837  0.00  0.00    +0.109 C 
ATOM     12  C   UNL     1      33.154 -24.452 -14.240  0.00  0.00    +0.029 C 
ATOM     13  C   UNL     1      30.682 -24.875 -14.148  0.00  0.00    +0.208 C 
ATOM     14  C   UNL     1      36.177 -23.222 -15.734  0.00  0.00    +0.182 C 
ATOM     15  C   UNL     1      29.362 -24.156 -15.921  0.00  0.00    +0.248 C 
ATOM     16  H   UNL     1      30.279 -23.202 -17.492  0.00  0.00    +0.156 HD
ATOM     17  H   UNL     1      36.017 -24.205 -13.881  0.00  0.00    +0.148 HD
ATOM     18  H   UNL     1      35.503 -22.406 -17.508  0.00  0.00    +0.148 HD
ATOM     19  H   UNL     1      28.131 -23.552 -17.446  0.00  0.00    +0.146 HD
ATOM     20  H   UNL     1      27.334 -24.339 -16.160  0.00  0.00    +0.146 HD
ENDROOT
BRANCH   7  21
ATOM     21  C   UNL     1      32.640 -22.528 -18.105  0.00  0.00    +0.034 C 
BRANCH  21  22
ATOM     22  C   UNL     1      33.703 -22.925 -19.145  0.00  0.00    +0.031 C 
BRANCH  22  23
ATOM     23  C   UNL     1      34.270 -21.746 -19.897  0.00  0.00    -0.022 C 
ATOM     24  C   UNL     1      35.645 -21.571 -19.953  0.00  0.00    -0.005 C 
ATOM     25  C   UNL     1      33.407 -20.859 -20.520  0.00  0.00    -0.005 C 
ATOM     26  C   UNL     1      35.311 -19.579 -21.279  0.00  0.00    -0.022 C 
ATOM     27  C   UNL     1      36.168 -20.481 -20.648  0.00  0.00    -0.005 C 
ATOM     28  C   UNL     1      33.930 -19.769 -21.216  0.00  0.00    -0.005 C 
ATOM     29  C   UNL     1      35.870 -18.415 -22.023  0.00  0.00    +0.031 C 
ENDBRANCH  22  23
ENDBRANCH  21  22
ENDBRANCH   7  21
TORSDOF 3
ENDMDL
MODEL 5
REMARK VINA RESULT:     -10.4      3.835      7.234
REMARK  Name = 5326929
REMARK  3 active torsions:
REMARK  status: ('A' for Active; 'I' for Inactive)
REMARK    1  A    between atoms: C_7  and  C_21
REMARK    2  A    between atoms: C_21  and  C_22
REMARK    3  A    between atoms: C_22  and  C_23
REMARK                            x       y       z     vdW  Elec       q    Type
REMARK                         _______ _______ _______ _____ _____    ______ ____
ROOT
ATOM      1  O   UNL     1      33.325 -19.367 -22.367  0.00  0.00    -0.209 OA
ATOM      2  N   UNL     1      36.684 -20.230 -20.364  0.00  0.00    -0.275 N 
ATOM      3  N   UNL     1      32.163 -22.784 -18.548  0.00  0.00    -0.315 N 
ATOM      4  N   UNL     1      34.044 -23.244 -17.458  0.00  0.00    -0.316 N 
ATOM      5  N   UNL     1      35.578 -19.050 -22.110  0.00  0.00    -0.302 NA
ATOM      6  N   UNL     1      37.879 -18.827 -21.729  0.00  0.00    -0.320 N 
ATOM      7  C   UNL     1      35.511 -21.746 -18.856  0.00  0.00    +0.007 C 
ATOM      8  C   UNL     1      35.507 -20.854 -19.941  0.00  0.00    +0.060 C 
ATOM      9  C   UNL     1      34.300 -22.348 -18.471  0.00  0.00    +0.056 C 
ATOM     10  C   UNL     1      33.137 -22.045 -19.170  0.00  0.00    +0.060 C 
ATOM     11  C   UNL     1      34.312 -20.573 -20.621  0.00  0.00    +0.109 C 
ATOM     12  C   UNL     1      33.094 -21.163 -20.251  0.00  0.00    +0.029 C 
ATOM     13  C   UNL     1      34.365 -19.618 -21.765  0.00  0.00    +0.208 C 
ATOM     14  C   UNL     1      32.755 -23.483 -17.532  0.00  0.00    +0.182 C 
ATOM     15  C   UNL     1      36.650 -19.360 -21.429  0.00  0.00    +0.248 C 
ATOM     16  H   UNL     1      37.533 -20.412 -19.901  0.00  0.00    +0.156 HD
ATOM     17  H   UNL     1      31.209 -22.808 -18.789  0.00  0.00    +0.148 HD
ATOM     18  H   UNL     1      34.687 -23.622 -16.816  0.00  0.00    +0.148 HD
ATOM     19  H   UNL     1      38.669 -19.080 -21.197  0.00  0.00    +0.146 HD
ATOM     20  H   UNL     1      37.971 -18.191 -22.474  0.00  0.00    +0.146 HD
ENDROOT
BRANCH   7  21
ATOM     21  C   UNL     1      36.782 -22.051 -18.127  0.00  0.00    +0.034 C 
BRANCH  21  22
ATOM     22  C   UNL     1      36.783 -21.587 -16.658  0.00  0.00    +0.031 C 
BRANCH  22  23
ATOM     23  C   UNL     1      36.940 -22.721 -15.676  0.00  0.00    -0.022 C 
ATOM     24  C   UNL     1      37.998 -23.606 -15.820  0.00  0.00    -0.005 C 
ATOM     25  C   UNL     1      36.025 -22.859 -14.645  0.00  0.00    -0.005 C 
ATOM     26  C   UNL     1      37.228 -24.805 -13.869  0.00  0.00    -0.022 C 
ATOM     27  C   UNL     1      38.142 -24.654 -14.911  0.00  0.00    -0.005 C 
ATOM     28  C   UNL     1      36.169 -23.906 -13.736  0.00  0.00    -0.005 C 
ATOM     29  C   UNL     1      37.383 -25.924 -12.897  0.00  0.00    +0.031 C 
ENDBRANCH  22  23
ENDBRANCH  21  22
ENDBRANCH   7  21
TORSDOF 3
ENDMDL
MODEL 6
REMARK VINA RESULT:     -10.4      2.926      5.854
REMARK  Name = 5326929
REMARK  3 active torsions:
REMARK  status: ('A' for Active; 'I' for Inactive)
REMARK    1  A    between atoms: C_7  and  C_21
REMARK    2  A    between atoms: C_21  and  C_22
REMARK    3  A    between atoms: C_22  and  C_23
REMARK                            x       y       z     vdW  Elec       q    Type
REMARK                         _______ _______ _______ _____ _____    ______ ____
ROOT
ATOM      1  O   UNL     1      37.233 -21.845 -17.147  0.00  0.00    -0.209 OA
ATOM      2  N   UNL     1      33.690 -23.672 -16.750  0.00  0.00    -0.275 N 
ATOM      3  N   UNL     1      36.949 -23.911 -12.324  0.00  0.00    -0.315 N 
ATOM      4  N   UNL     1      34.976 -24.915 -12.134  0.00  0.00    -0.316 N 
ATOM      5  N   UNL     1      35.220 -22.421 -18.076  0.00  0.00    -0.302 NA
ATOM      6  N   UNL     1      33.125 -23.079 -18.892  0.00  0.00    -0.320 N 
ATOM      7  C   UNL     1      34.190 -24.354 -14.462  0.00  0.00    +0.007 C 
ATOM      8  C   UNL     1      34.556 -23.705 -15.652  0.00  0.00    +0.060 C 
ATOM      9  C   UNL     1      35.096 -24.358 -13.387  0.00  0.00    +0.056 C 
ATOM     10  C   UNL     1      36.324 -23.722 -13.530  0.00  0.00    +0.060 C 
ATOM     11  C   UNL     1      35.805 -23.074 -15.758  0.00  0.00    +0.109 C 
ATOM     12  C   UNL     1      36.723 -23.068 -14.697  0.00  0.00    +0.029 C 
ATOM     13  C   UNL     1      36.143 -22.400 -17.045  0.00  0.00    +0.208 C 
ATOM     14  C   UNL     1      36.103 -24.629 -11.525  0.00  0.00    +0.182 C 
ATOM     15  C   UNL     1      34.076 -23.029 -17.903  0.00  0.00    +0.248 C 
ATOM     16  H   UNL     1      32.810 -24.108 -16.698  0.00  0.00    +0.156 HD
ATOM     17  H   UNL     1      37.846 -23.589 -12.078  0.00  0.00    +0.148 HD
ATOM     18  H   UNL     1      34.211 -25.419 -11.774  0.00  0.00    +0.148 HD
ATOM     19  H   UNL     1      32.272 -23.545 -18.731  0.00  0.00    +0.146 HD
ATOM     20  H   UNL     1      33.295 -22.651 -19.761  0.00  0.00    +0.146 HD
ENDROOT
BRANCH   7  21
ATOM     21  C   UNL     1      32.859 -25.028 -14.341  0.00  0.00    +0.034 C 
BRANCH  21  22
ATOM     22  C   UNL     1      31.745 -24.113 -13.800  0.00  0.00    +0.031 C 
BRANCH  22  23
ATOM     23  C   UNL     1      30.614 -23.909 -14.777  0.00  0.00    -0.022 C 
ATOM     24  C   UNL     1      30.598 -22.773 -15.573  0.00  0.00    -0.005 C 
ATOM     25  C   UNL     1      29.610 -24.860 -14.863  0.00  0.00    -0.005 C 
ATOM     26  C   UNL     1      28.534 -23.534 -16.572  0.00  0.00    -0.022 C 
ATOM     27  C   UNL     1      29.552 -22.586 -16.476  0.00  0.00    -0.005 C 
ATOM     28  C   UNL     1      28.563 -24.672 -15.766  0.00  0.00    -0.005 C 
ATOM     29  C   UNL     1      27.417 -23.334 -17.538  0.00  0.00    +0.031 C 
ENDBRANCH  22  23
ENDBRANCH  21  22
ENDBRANCH   7  21
TORSDOF 3
ENDMDL
MODEL 7
REMARK VINA RESULT:     -10.2      2.079      4.707
REMARK  Name = 5326929
REMARK  3 active torsions:
REMARK  status: ('A' for Active; 'I' for Inactive)
REMARK    1  A    between atoms: C_7  and  C_21
REMARK    2  A    between atoms: C_21  and  C_22
REMARK    3  A    between atoms: C_22  and  C_23
REMARK                            x       y       z     vdW  Elec       q    Type
REMARK                         _______ _______ _______ _____ _____    ______ ____
ROOT
ATOM      1  O   UNL     1      34.671 -25.406 -11.399  0.00  0.00    -0.209 OA
ATOM      2  N   UNL     1      34.294 -23.199 -14.721  0.00  0.00    -0.275 N 
ATOM      3  N   UNL     1      39.224 -25.537 -14.017  0.00  0.00    -0.315 N 
ATOM      4  N   UNL     1      38.984 -24.307 -15.852  0.00  0.00    -0.316 N 
ATOM      5  N   UNL     1      33.353 -24.078 -12.719  0.00  0.00    -0.302 NA
ATOM      6  N   UNL     1      32.124 -22.706 -14.168  0.00  0.00    -0.320 N 
ATOM      7  C   UNL     1      36.590 -23.661 -15.403  0.00  0.00    +0.007 C 
ATOM      8  C   UNL     1      35.529 -23.815 -14.496  0.00  0.00    +0.060 C 
ATOM      9  C   UNL     1      37.811 -24.301 -15.131  0.00  0.00    +0.056 C 
ATOM     10  C   UNL     1      37.937 -25.066 -13.977  0.00  0.00    +0.060 C 
ATOM     11  C   UNL     1      35.694 -24.595 -13.341  0.00  0.00    +0.109 C 
ATOM     12  C   UNL     1      36.906 -25.241 -13.052  0.00  0.00    +0.029 C 
ATOM     13  C   UNL     1      34.535 -24.725 -12.411  0.00  0.00    +0.208 C 
ATOM     14  C   UNL     1      39.808 -25.056 -15.157  0.00  0.00    +0.182 C 
ATOM     15  C   UNL     1      33.273 -23.368 -13.814  0.00  0.00    +0.248 C 
ATOM     16  H   UNL     1      34.157 -22.647 -15.523  0.00  0.00    +0.156 HD
ATOM     17  H   UNL     1      39.651 -26.117 -13.347  0.00  0.00    +0.148 HD
ATOM     18  H   UNL     1      39.165 -23.849 -16.704  0.00  0.00    +0.148 HD
ATOM     19  H   UNL     1      32.096 -22.179 -15.000  0.00  0.00    +0.146 HD
ATOM     20  H   UNL     1      31.329 -22.757 -13.591  0.00  0.00    +0.146 HD
ENDROOT
BRANCH   7  21
ATOM     21  C   UNL     1      36.421 -22.831 -16.637  0.00  0.00    +0.034 C 
BRANCH  21  22
ATOM     22  C   UNL     1      35.076 -23.050 -17.356  0.00  0.00    +0.031 C 
BRANCH  22  23
ATOM     23  C   UNL     1      34.895 -22.165 -18.564  0.00  0.00    -0.022 C 
ATOM     24  C   UNL     1      36.004 -21.564 -19.140  0.00  0.00    -0.005 C 
ATOM     25  C   UNL     1      33.623 -21.969 -19.078  0.00  0.00    -0.005 C 
ATOM     26  C   UNL     1      34.561 -20.538 -20.784  0.00  0.00    -0.022 C 
ATOM     27  C   UNL     1      35.835 -20.746 -20.256  0.00  0.00    -0.005 C 
ATOM     28  C   UNL     1      33.455 -21.151 -20.195  0.00  0.00    -0.005 C 
ATOM     29  C   UNL     1      34.381 -19.665 -21.978  0.00  0.00    +0.031 C 
ENDBRANCH  22  23
ENDBRANCH  21  22
ENDBRANCH   7  21
TORSDOF 3
ENDMDL
MODEL 8
REMARK VINA RESULT:     -10.0      2.789      5.712
REMARK  Name = 5326929
REMARK  3 active torsions:
REMARK  status: ('A' for Active; 'I' for Inactive)
REMARK    1  A    between atoms: C_7  and  C_21
REMARK    2  A    between atoms: C_21  and  C_22
REMARK    3  A    between atoms: C_22  and  C_23
REMARK                            x       y       z     vdW  Elec       q    Type
REMARK                         _______ _______ _______ _____ _____    ______ ____
ROOT
ATOM      1  O   UNL     1      33.193 -22.785 -19.443  0.00  0.00    -0.209 OA
ATOM      2  N   UNL     1      35.335 -22.816 -16.060  0.00  0.00    -0.275 N 
ATOM      3  N   UNL     1      30.093 -24.394 -15.518  0.00  0.00    -0.315 N 
ATOM      4  N   UNL     1      31.309 -24.402 -13.658  0.00  0.00    -0.316 N 
ATOM      5  N   UNL     1      35.198 -22.414 -18.401  0.00  0.00    -0.302 NA
ATOM      6  N   UNL     1      37.183 -22.081 -17.203  0.00  0.00    -0.320 N 
ATOM      7  C   UNL     1      33.434 -23.597 -14.748  0.00  0.00    +0.007 C 
ATOM      8  C   UNL     1      33.996 -23.208 -15.975  0.00  0.00    +0.060 C 
ATOM      9  C   UNL     1      32.082 -23.984 -14.717  0.00  0.00    +0.056 C 
ATOM     10  C   UNL     1      31.343 -23.971 -15.895  0.00  0.00    +0.060 C 
ATOM     11  C   UNL     1      33.217 -23.209 -17.143  0.00  0.00    +0.109 C 
ATOM     12  C   UNL     1      31.867 -23.591 -17.131  0.00  0.00    +0.029 C 
ATOM     13  C   UNL     1      33.866 -22.786 -18.417  0.00  0.00    +0.208 C 
ATOM     14  C   UNL     1      30.124 -24.638 -14.172  0.00  0.00    +0.182 C 
ATOM     15  C   UNL     1      35.860 -22.440 -17.275  0.00  0.00    +0.248 C 
ATOM     16  H   UNL     1      35.900 -22.807 -15.254  0.00  0.00    +0.156 HD
ATOM     17  H   UNL     1      29.314 -24.502 -16.109  0.00  0.00    +0.148 HD
ATOM     18  H   UNL     1      31.584 -24.501 -12.718  0.00  0.00    +0.148 HD
ATOM     19  H   UNL     1      37.655 -22.110 -16.338  0.00  0.00    +0.146 HD
ATOM     20  H   UNL     1      37.660 -21.794 -18.014  0.00  0.00    +0.146 HD
ENDROOT
BRANCH   7  21
ATOM     21  C   UNL     1      34.258 -23.600 -13.500  0.00  0.00    +0.034 C 
BRANCH  21  22
ATOM     22  C   UNL     1      34.763 -24.996 -13.091  0.00  0.00    +0.031 C 
BRANCH  22  23
ATOM     23  C   UNL     1      36.196 -25.252 -13.489  0.00  0.00    -0.022 C 
ATOM     24  C   UNL     1      37.221 -24.769 -12.689  0.00  0.00    -0.005 C 
ATOM     25  C   UNL     1      36.463 -25.965 -14.647  0.00  0.00    -0.005 C 
ATOM     26  C   UNL     1      38.828 -25.721 -14.222  0.00  0.00    -0.022 C 
ATOM     27  C   UNL     1      38.545 -25.006 -13.059  0.00  0.00    -0.005 C 
ATOM     28  C   UNL     1      37.787 -26.202 -15.016  0.00  0.00    -0.005 C 
ATOM     29  C   UNL     1      40.244 -25.975 -14.615  0.00  0.00    +0.031 C 
ENDBRANCH  22  23
ENDBRANCH  21  22
ENDBRANCH   7  21
TORSDOF 3
ENDMDL
MODEL 9
REMARK VINA RESULT:     -10.0     10.529     14.020
REMARK  Name = 5326929
REMARK  3 active torsions:
REMARK  status: ('A' for Active; 'I' for Inactive)
REMARK    1  A    between atoms: C_7  and  C_21
REMARK    2  A    between atoms: C_21  and  C_22
REMARK    3  A    between atoms: C_22  and  C_23
REMARK                            x       y       z     vdW  Elec       q    Type
REMARK                         _______ _______ _______ _____ _____    ______ ____
ROOT
ATOM      1  O   UNL     1      33.613  -7.585 -24.987  0.00  0.00    -0.209 OA
ATOM      2  N   UNL     1      34.124 -11.517 -25.553  0.00  0.00    -0.275 N 
ATOM      3  N   UNL     1      31.164 -10.161 -21.118  0.00  0.00    -0.315 N 
ATOM      4  N   UNL     1      31.463 -12.336 -21.460  0.00  0.00    -0.316 N 
ATOM      5  N   UNL     1      34.504  -9.274 -26.251  0.00  0.00    -0.302 NA
ATOM      6  N   UNL     1      35.351 -11.103 -27.445  0.00  0.00    -0.320 N 
ATOM      7  C   UNL     1      32.834 -12.069 -23.558  0.00  0.00    +0.007 C 
ATOM      8  C   UNL     1      33.378 -11.121 -24.438  0.00  0.00    +0.060 C 
ATOM      9  C   UNL     1      32.091 -11.618 -22.452  0.00  0.00    +0.056 C 
ATOM     10  C   UNL     1      31.917 -10.252 -22.261  0.00  0.00    +0.060 C 
ATOM     11  C   UNL     1      33.181  -9.749 -24.211  0.00  0.00    +0.109 C 
ATOM     12  C   UNL     1      32.444  -9.280 -23.113  0.00  0.00    +0.029 C 
ATOM     13  C   UNL     1      33.782  -8.786 -25.178  0.00  0.00    +0.208 C 
ATOM     14  C   UNL     1      30.919 -11.433 -20.678  0.00  0.00    +0.182 C 
ATOM     15  C   UNL     1      34.645 -10.565 -26.398  0.00  0.00    +0.248 C 
ATOM     16  H   UNL     1      34.275 -12.473 -25.731  0.00  0.00    +0.156 HD
ATOM     17  H   UNL     1      30.855  -9.330 -20.691  0.00  0.00    +0.148 HD
ATOM     18  H   UNL     1      31.431 -13.315 -21.358  0.00  0.00    +0.148 HD
ATOM     19  H   UNL     1      35.440 -12.081 -27.529  0.00  0.00    +0.146 HD
ATOM     20  H   UNL     1      35.769 -10.513 -28.113  0.00  0.00    +0.146 HD
ENDROOT
BRANCH   7  21
ATOM     21  C   UNL     1      33.039 -13.532 -23.795  0.00  0.00    +0.034 C 
BRANCH  21  22
ATOM     22  C   UNL     1      34.304 -14.100 -23.124  0.00  0.00    +0.031 C 
BRANCH  22  23
ATOM     23  C   UNL     1      34.480 -15.583 -23.341  0.00  0.00    -0.022 C 
ATOM     24  C   UNL     1      34.180 -16.129 -24.580  0.00  0.00    -0.005 C 
ATOM     25  C   UNL     1      34.938 -16.373 -22.299  0.00  0.00    -0.005 C 
ATOM     26  C   UNL     1      34.802 -18.307 -23.740  0.00  0.00    -0.022 C 
ATOM     27  C   UNL     1      34.342 -17.500 -24.780  0.00  0.00    -0.005 C 
ATOM     28  C   UNL     1      35.101 -17.744 -22.499  0.00  0.00    -0.005 C 
ATOM     29  C   UNL     1      34.977 -19.772 -23.954  0.00  0.00    +0.031 C 
ENDBRANCH  22  23
ENDBRANCH  21  22
ENDBRANCH   7  21
TORSDOF 3
ENDMDL
