MODEL 1
REMARK VINA RESULT:     -11.2      0.000      0.000
REMARK  Name = 118513932
REMARK  2 active torsions:
REMARK  status: ('A' for Active; 'I' for Inactive)
REMARK    1  A    between atoms: C_4  and  N_24
REMARK    2  A    between atoms: C_10  and  C_15
REMARK                            x       y       z     vdW  Elec       q    Type
REMARK                         _______ _______ _______ _____ _____    ______ ____
ROOT
ATOM      1  O   UNL     1      32.259 -22.779 -18.717  0.00  0.00    -0.274 OA
ATOM      2  N   UNL     1      34.508 -22.364 -18.174  0.00  0.00    -0.209 N 
ATOM      3  N   UNL     1      35.743 -20.816 -19.508  0.00  0.00    -0.389 NA
ATOM      4  C   UNL     1      35.588 -23.453 -16.321  0.00  0.00    +0.063 C 
ATOM      5  C   UNL     1      34.508 -23.238 -17.093  0.00  0.00    +0.089 C 
ATOM      6  C   UNL     1      36.803 -22.734 -16.641  0.00  0.00    +0.020 C 
ATOM      7  C   UNL     1      36.867 -21.880 -17.668  0.00  0.00    +0.050 C 
ATOM      8  C   UNL     1      35.665 -21.649 -18.515  0.00  0.00    +0.193 C 
ATOM      9  C   UNL     1      33.330 -22.211 -18.917  0.00  0.00    +0.242 C 
ATOM     10  C   UNL     1      34.609 -20.646 -20.251  0.00  0.00    +0.139 C 
ATOM     11  C   UNL     1      33.437 -21.256 -20.045  0.00  0.00    +0.146 C 
ENDROOT
BRANCH  10  15
ATOM     12  N   UNL     1      34.739 -17.693 -22.322  0.00  0.00    -0.178 N 
ATOM     13  N   UNL     1      34.675 -18.423 -21.179  0.00  0.00    -0.173 NA
ATOM     14  N   UNL     1      34.848 -17.177 -24.486  0.00  0.00    -0.392 NA
ATOM     15  C   UNL     1      34.672 -19.711 -21.378  0.00  0.00    +0.124 C 
ATOM     16  C   UNL     1      34.730 -20.363 -22.721  0.00  0.00    +0.023 C 
ATOM     17  C   UNL     1      34.791 -19.583 -23.817  0.00  0.00    +0.025 C 
ATOM     18  C   UNL     1      34.796 -18.170 -23.619  0.00  0.00    +0.198 C 
ATOM     19  C   UNL     1      34.756 -16.325 -22.392  0.00  0.00    +0.173 C 
ATOM     20  C   UNL     1      34.824 -16.033 -23.732  0.00  0.00    +0.111 C 
ATOM     21  C   UNL     1      34.850 -20.218 -25.182  0.00  0.00    +0.035 C 
ATOM     22  C   UNL     1      34.870 -14.712 -24.376  0.00  0.00    +0.063 C 
ENDBRANCH  10  15
BRANCH   4  24
ATOM     23  N   UNL     1      35.843 -25.470 -12.646  0.00  0.00    +0.389 N 
ATOM     24  N   UNL     1      35.604 -24.307 -15.257  0.00  0.00    -0.311 N 
ATOM     25  C   UNL     1      37.034 -25.224 -13.500  0.00  0.00    -0.027 C 
ATOM     26  C   UNL     1      38.356 -25.811 -13.061  0.00  0.00    -0.020 C 
ATOM     27  C   UNL     1      38.133 -24.331 -12.963  0.00  0.00    -0.020 C 
ATOM     28  C   UNL     1      36.744 -25.188 -14.987  0.00  0.00    +0.071 C 
ATOM     29  C   UNL     1      34.797 -24.490 -12.945  0.00  0.00    -0.060 C 
ATOM     30  C   UNL     1      34.417 -24.531 -14.426  0.00  0.00    +0.067 C 
ATOM     31  H   UNL     1      36.109 -25.390 -11.665  0.00  0.00    -0.084 HD
ATOM     32  H   UNL     1      35.487 -26.407 -12.834  0.00  0.00    -0.084 HD
ENDBRANCH   4  24
TORSDOF 2
ENDMDL
MODEL 2
REMARK VINA RESULT:     -10.8      6.435     11.480
REMARK  Name = 118513932
REMARK  2 active torsions:
REMARK  status: ('A' for Active; 'I' for Inactive)
REMARK    1  A    between atoms: C_4  and  N_24
REMARK    2  A    between atoms: C_10  and  C_15
REMARK                            x       y       z     vdW  Elec       q    Type
REMARK                         _______ _______ _______ _____ _____    ______ ____
ROOT
ATOM      1  O   UNL     1      33.875 -12.946 -27.051  0.00  0.00    -0.274 OA
ATOM      2  N   UNL     1      33.876 -13.343 -24.734  0.00  0.00    -0.209 N 
ATOM      3  N   UNL     1      33.375 -11.533 -23.260  0.00  0.00    -0.389 NA
ATOM      4  C   UNL     1      34.366 -15.513 -23.819  0.00  0.00    +0.063 C 
ATOM      5  C   UNL     1      34.208 -14.687 -24.868  0.00  0.00    +0.089 C 
ATOM      6  C   UNL     1      34.179 -14.966 -22.492  0.00  0.00    +0.020 C 
ATOM      7  C   UNL     1      33.859 -13.683 -22.297  0.00  0.00    +0.050 C 
ATOM      8  C   UNL     1      33.686 -12.778 -23.466  0.00  0.00    +0.193 C 
ATOM      9  C   UNL     1      33.735 -12.565 -25.891  0.00  0.00    +0.242 C 
ATOM     10  C   UNL     1      33.230 -10.750 -24.370  0.00  0.00    +0.139 C 
ATOM     11  C   UNL     1      33.379 -11.149 -25.637  0.00  0.00    +0.146 C 
ENDROOT
BRANCH  10  15
ATOM     12  N   UNL     1      32.211  -7.316 -24.809  0.00  0.00    -0.178 N 
ATOM     13  N   UNL     1      32.502  -8.594 -25.163  0.00  0.00    -0.173 NA
ATOM     14  N   UNL     1      31.924  -5.489 -23.566  0.00  0.00    -0.392 NA
ATOM     15  C   UNL     1      32.879  -9.342 -24.164  0.00  0.00    +0.124 C 
ATOM     16  C   UNL     1      32.995  -8.875 -22.749  0.00  0.00    +0.023 C 
ATOM     17  C   UNL     1      32.692  -7.595 -22.464  0.00  0.00    +0.025 C 
ATOM     18  C   UNL     1      32.277  -6.760 -23.544  0.00  0.00    +0.198 C 
ATOM     19  C   UNL     1      31.793  -6.330 -25.662  0.00  0.00    +0.173 C 
ATOM     20  C   UNL     1      31.623  -5.217 -24.875  0.00  0.00    +0.111 C 
ATOM     21  C   UNL     1      32.802  -7.102 -21.044  0.00  0.00    +0.035 C 
ATOM     22  C   UNL     1      31.183  -3.873 -25.278  0.00  0.00    +0.063 C 
ENDBRANCH  10  15
BRANCH   4  24
ATOM     23  N   UNL     1      34.699 -19.700 -23.832  0.00  0.00    +0.389 N 
ATOM     24  N   UNL     1      34.691 -16.834 -23.934  0.00  0.00    -0.311 N 
ATOM     25  C   UNL     1      35.068 -18.878 -22.651  0.00  0.00    -0.027 C 
ATOM     26  C   UNL     1      35.672 -19.583 -21.457  0.00  0.00    -0.020 C 
ATOM     27  C   UNL     1      34.271 -19.055 -21.375  0.00  0.00    -0.020 C 
ATOM     28  C   UNL     1      35.591 -17.496 -22.984  0.00  0.00    +0.071 C 
ATOM     29  C   UNL     1      33.744 -18.975 -24.673  0.00  0.00    -0.060 C 
ATOM     30  C   UNL     1      34.314 -17.625 -25.109  0.00  0.00    +0.067 C 
ATOM     31  H   UNL     1      34.277 -20.573 -23.519  0.00  0.00    -0.084 HD
ATOM     32  H   UNL     1      35.540 -19.896 -24.377  0.00  0.00    -0.084 HD
ENDBRANCH   4  24
TORSDOF 2
ENDMDL
MODEL 3
REMARK VINA RESULT:      -9.8      8.083     15.407
REMARK  Name = 118513932
REMARK  2 active torsions:
REMARK  status: ('A' for Active; 'I' for Inactive)
REMARK    1  A    between atoms: C_4  and  N_24
REMARK    2  A    between atoms: C_10  and  C_15
REMARK                            x       y       z     vdW  Elec       q    Type
REMARK                         _______ _______ _______ _____ _____    ______ ____
ROOT
ATOM      1  O   UNL     1      34.777  -9.639 -26.638  0.00  0.00    -0.274 OA
ATOM      2  N   UNL     1      33.456  -9.366 -24.713  0.00  0.00    -0.209 N 
ATOM      3  N   UNL     1      33.034 -11.268 -23.331  0.00  0.00    -0.389 NA
ATOM      4  C   UNL     1      32.524  -7.234 -24.105  0.00  0.00    +0.063 C 
ATOM      5  C   UNL     1      33.253  -8.007 -24.927  0.00  0.00    +0.089 C 
ATOM      6  C   UNL     1      31.923  -7.856 -22.944  0.00  0.00    +0.020 C 
ATOM      7  C   UNL     1      32.080  -9.158 -22.683  0.00  0.00    +0.050 C 
ATOM      8  C   UNL     1      32.891 -10.005 -23.599  0.00  0.00    +0.193 C 
ATOM      9  C   UNL     1      34.232 -10.086 -25.630  0.00  0.00    +0.242 C 
ATOM     10  C   UNL     1      33.788 -11.995 -24.209  0.00  0.00    +0.139 C 
ATOM     11  C   UNL     1      34.386 -11.524 -25.308  0.00  0.00    +0.146 C 
ENDROOT
BRANCH  10  15
ATOM     12  N   UNL     1      34.125 -15.579 -24.471  0.00  0.00    -0.178 N 
ATOM     13  N   UNL     1      33.948 -14.300 -24.892  0.00  0.00    -0.173 NA
ATOM     14  N   UNL     1      34.450 -17.326 -23.128  0.00  0.00    -0.392 NA
ATOM     15  C   UNL     1      33.964 -13.423 -23.928  0.00  0.00    +0.124 C 
ATOM     16  C   UNL     1      34.155 -13.751 -22.483  0.00  0.00    +0.023 C 
ATOM     17  C   UNL     1      34.326 -15.040 -22.130  0.00  0.00    +0.025 C 
ATOM     18  C   UNL     1      34.311 -16.015 -23.172  0.00  0.00    +0.198 C 
ATOM     19  C   UNL     1      34.150 -16.686 -25.277  0.00  0.00    +0.173 C 
ATOM     20  C   UNL     1      34.351 -17.747 -24.429  0.00  0.00    +0.111 C 
ATOM     21  C   UNL     1      34.520 -15.395 -20.679  0.00  0.00    +0.035 C 
ATOM     22  C   UNL     1      34.461 -19.174 -24.764  0.00  0.00    +0.063 C 
ENDBRANCH  10  15
BRANCH   4  24
ATOM     23  N   UNL     1      31.626  -3.337 -25.392  0.00  0.00    +0.389 N 
ATOM     24  N   UNL     1      32.317  -5.899 -24.302  0.00  0.00    -0.311 N 
ATOM     25  C   UNL     1      32.897  -4.019 -25.751  0.00  0.00    -0.027 C 
ATOM     26  C   UNL     1      33.930  -3.232 -26.526  0.00  0.00    -0.020 C 
ATOM     27  C   UNL     1      33.162  -4.323 -27.210  0.00  0.00    -0.020 C 
ATOM     28  C   UNL     1      33.401  -4.999 -24.711  0.00  0.00    +0.071 C 
ATOM     29  C   UNL     1      30.595  -4.327 -25.073  0.00  0.00    -0.060 C 
ATOM     30  C   UNL     1      31.053  -5.249 -23.942  0.00  0.00    +0.067 C 
ATOM     31  H   UNL     1      31.315  -2.767 -26.178  0.00  0.00    -0.084 HD
ATOM     32  H   UNL     1      31.785  -2.747 -24.575  0.00  0.00    -0.084 HD
ENDBRANCH   4  24
TORSDOF 2
ENDMDL
MODEL 4
REMARK VINA RESULT:      -9.6      1.348      1.829
REMARK  Name = 118513932
REMARK  2 active torsions:
REMARK  status: ('A' for Active; 'I' for Inactive)
REMARK    1  A    between atoms: C_4  and  N_24
REMARK    2  A    between atoms: C_10  and  C_15
REMARK                            x       y       z     vdW  Elec       q    Type
REMARK                         _______ _______ _______ _____ _____    ______ ____
ROOT
ATOM      1  O   UNL     1      37.648 -21.116 -17.930  0.00  0.00    -0.274 OA
ATOM      2  N   UNL     1      35.464 -21.958 -18.146  0.00  0.00    -0.209 N 
ATOM      3  N   UNL     1      34.122 -21.210 -19.974  0.00  0.00    -0.389 NA
ATOM      4  C   UNL     1      34.554 -23.542 -16.582  0.00  0.00    +0.063 C 
ATOM      5  C   UNL     1      35.558 -22.759 -17.014  0.00  0.00    +0.089 C 
ATOM      6  C   UNL     1      33.320 -23.542 -17.339  0.00  0.00    +0.020 C 
ATOM      7  C   UNL     1      33.167 -22.793 -18.437  0.00  0.00    +0.050 C 
ATOM      8  C   UNL     1      34.286 -21.931 -18.906  0.00  0.00    +0.193 C 
ATOM      9  C   UNL     1      36.567 -21.177 -18.513  0.00  0.00    +0.242 C 
ATOM     10  C   UNL     1      35.182 -20.438 -20.357  0.00  0.00    +0.139 C 
ATOM     11  C   UNL     1      36.362 -20.362 -19.734  0.00  0.00    +0.146 C 
ENDROOT
BRANCH  10  15
ATOM     12  N   UNL     1      34.814 -17.697 -22.675  0.00  0.00    -0.178 N 
ATOM     13  N   UNL     1      34.962 -18.315 -21.476  0.00  0.00    -0.173 NA
ATOM     14  N   UNL     1      34.583 -17.388 -24.869  0.00  0.00    -0.392 NA
ATOM     15  C   UNL     1      35.021 -19.615 -21.559  0.00  0.00    +0.124 C 
ATOM     16  C   UNL     1      34.937 -20.390 -22.834  0.00  0.00    +0.023 C 
ATOM     17  C   UNL     1      34.789 -19.717 -23.991  0.00  0.00    +0.025 C 
ATOM     18  C   UNL     1      34.723 -18.293 -23.920  0.00  0.00    +0.198 C 
ATOM     19  C   UNL     1      34.725 -16.344 -22.867  0.00  0.00    +0.173 C 
ATOM     20  C   UNL     1      34.585 -16.179 -24.223  0.00  0.00    +0.111 C 
ATOM     21  C   UNL     1      34.701 -20.476 -25.289  0.00  0.00    +0.035 C 
ATOM     22  C   UNL     1      34.447 -14.926 -24.980  0.00  0.00    +0.063 C 
ENDBRANCH  10  15
BRANCH   4  24
ATOM     23  N   UNL     1      35.159 -25.392 -12.860  0.00  0.00    +0.389 N 
ATOM     24  N   UNL     1      34.631 -24.334 -15.473  0.00  0.00    -0.311 N 
ATOM     25  C   UNL     1      36.199 -25.386 -13.921  0.00  0.00    -0.027 C 
ATOM     26  C   UNL     1      37.474 -26.159 -13.671  0.00  0.00    -0.020 C 
ATOM     27  C   UNL     1      37.500 -24.660 -13.650  0.00  0.00    -0.020 C 
ATOM     28  C   UNL     1      35.654 -25.376 -15.335  0.00  0.00    +0.071 C 
ATOM     29  C   UNL     1      34.237 -24.270 -13.050  0.00  0.00    -0.060 C 
ATOM     30  C   UNL     1      33.594 -24.321 -14.437  0.00  0.00    +0.067 C 
ATOM     31  H   UNL     1      35.607 -25.308 -11.948  0.00  0.00    -0.084 HD
ATOM     32  H   UNL     1      34.636 -26.266 -12.911  0.00  0.00    -0.084 HD
ENDBRANCH   4  24
TORSDOF 2
ENDMDL
MODEL 5
REMARK VINA RESULT:      -9.5      6.094     14.010
REMARK  Name = 118513932
REMARK  2 active torsions:
REMARK  status: ('A' for Active; 'I' for Inactive)
REMARK    1  A    between atoms: C_4  and  N_24
REMARK    2  A    between atoms: C_10  and  C_15
REMARK                            x       y       z     vdW  Elec       q    Type
REMARK                         _______ _______ _______ _____ _____    ______ ____
ROOT
ATOM      1  O   UNL     1      31.826 -11.227 -22.043  0.00  0.00    -0.274 OA
ATOM      2  N   UNL     1      33.273 -11.113 -23.892  0.00  0.00    -0.209 N 
ATOM      3  N   UNL     1      34.433 -13.089 -24.564  0.00  0.00    -0.389 NA
ATOM      4  C   UNL     1      33.613  -9.069 -25.114  0.00  0.00    +0.063 C 
ATOM      5  C   UNL     1      33.032  -9.763 -24.119  0.00  0.00    +0.089 C 
ATOM      6  C   UNL     1      34.532  -9.772 -25.983  0.00  0.00    +0.020 C 
ATOM      7  C   UNL     1      34.807 -11.070 -25.816  0.00  0.00    +0.050 C 
ATOM      8  C   UNL     1      34.157 -11.828 -24.713  0.00  0.00    +0.193 C 
ATOM      9  C   UNL     1      32.618 -11.746 -22.828  0.00  0.00    +0.242 C 
ATOM     10  C   UNL     1      33.808 -13.732 -23.534  0.00  0.00    +0.139 C 
ATOM     11  C   UNL     1      32.944 -13.183 -22.674  0.00  0.00    +0.146 C 
ENDROOT
BRANCH  10  15
ATOM     12  N   UNL     1      34.874 -16.923 -22.227  0.00  0.00    -0.178 N 
ATOM     13  N   UNL     1      34.667 -15.581 -22.250  0.00  0.00    -0.173 NA
ATOM     14  N   UNL     1      34.900 -19.060 -22.859  0.00  0.00    -0.392 NA
ATOM     15  C   UNL     1      34.104 -15.156 -23.345  0.00  0.00    +0.124 C 
ATOM     16  C   UNL     1      33.708 -16.028 -24.492  0.00  0.00    +0.023 C 
ATOM     17  C   UNL     1      33.941 -17.351 -24.408  0.00  0.00    +0.025 C 
ATOM     18  C   UNL     1      34.557 -17.837 -23.216  0.00  0.00    +0.198 C 
ATOM     19  C   UNL     1      35.446 -17.623 -21.198  0.00  0.00    +0.173 C 
ATOM     20  C   UNL     1      35.451 -18.933 -21.610  0.00  0.00    +0.111 C 
ATOM     21  C   UNL     1      33.551 -18.251 -25.552  0.00  0.00    +0.035 C 
ATOM     22  C   UNL     1      35.952 -20.113 -20.890  0.00  0.00    +0.063 C 
ENDBRANCH  10  15
BRANCH   4  24
ATOM     23  N   UNL     1      33.040  -4.908 -25.095  0.00  0.00    +0.389 N 
ATOM     24  N   UNL     1      33.385  -7.744 -25.349  0.00  0.00    -0.311 N 
ATOM     25  C   UNL     1      31.959  -5.860 -24.729  0.00  0.00    -0.027 C 
ATOM     26  C   UNL     1      30.586  -5.296 -24.437  0.00  0.00    -0.020 C 
ATOM     27  C   UNL     1      31.423  -5.830 -23.313  0.00  0.00    -0.020 C 
ATOM     28  C   UNL     1      32.028  -7.195 -25.442  0.00  0.00    +0.071 C 
ATOM     29  C   UNL     1      34.350  -5.532 -24.896  0.00  0.00    -0.060 C 
ATOM     30  C   UNL     1      34.469  -6.823 -25.706  0.00  0.00    +0.067 C 
ATOM     31  H   UNL     1      32.970  -4.076 -24.510  0.00  0.00    -0.084 HD
ATOM     32  H   UNL     1      32.939  -4.651 -26.077  0.00  0.00    -0.084 HD
ENDBRANCH   4  24
TORSDOF 2
ENDMDL
MODEL 6
REMARK VINA RESULT:      -9.4      6.025     13.515
REMARK  Name = 118513932
REMARK  2 active torsions:
REMARK  status: ('A' for Active; 'I' for Inactive)
REMARK    1  A    between atoms: C_4  and  N_24
REMARK    2  A    between atoms: C_10  and  C_15
REMARK                            x       y       z     vdW  Elec       q    Type
REMARK                         _______ _______ _______ _____ _____    ______ ____
ROOT
ATOM      1  O   UNL     1      34.558 -11.717 -25.938  0.00  0.00    -0.274 OA
ATOM      2  N   UNL     1      33.327 -11.593 -23.939  0.00  0.00    -0.209 N 
ATOM      3  N   UNL     1      33.139 -13.551 -22.584  0.00  0.00    -0.389 NA
ATOM      4  C   UNL     1      32.259  -9.558 -23.230  0.00  0.00    +0.063 C 
ATOM      5  C   UNL     1      33.004 -10.252 -24.108  0.00  0.00    +0.089 C 
ATOM      6  C   UNL     1      31.777 -10.252 -22.054  0.00  0.00    +0.020 C 
ATOM      7  C   UNL     1      32.053 -11.541 -21.834  0.00  0.00    +0.050 C 
ATOM      8  C   UNL     1      32.879 -12.299 -22.813  0.00  0.00    +0.193 C 
ATOM      9  C   UNL     1      34.109 -12.227 -24.913  0.00  0.00    +0.242 C 
ATOM     10  C   UNL     1      33.901 -14.195 -23.518  0.00  0.00    +0.139 C 
ATOM     11  C   UNL     1      34.397 -13.654 -24.636  0.00  0.00    +0.146 C 
ENDROOT
BRANCH  10  15
ATOM     12  N   UNL     1      35.011 -17.330 -22.117  0.00  0.00    -0.178 N 
ATOM     13  N   UNL     1      34.798 -15.991 -22.186  0.00  0.00    -0.173 NA
ATOM     14  N   UNL     1      35.031 -19.489 -22.668  0.00  0.00    -0.392 NA
ATOM     15  C   UNL     1      34.208 -15.609 -23.283  0.00  0.00    +0.124 C 
ATOM     16  C   UNL     1      33.788 -16.526 -24.386  0.00  0.00    +0.023 C 
ATOM     17  C   UNL     1      34.029 -17.844 -24.258  0.00  0.00    +0.025 C 
ATOM     18  C   UNL     1      34.675 -18.282 -23.063  0.00  0.00    +0.198 C 
ATOM     19  C   UNL     1      35.611 -17.988 -21.077  0.00  0.00    +0.173 C 
ATOM     20  C   UNL     1      35.611 -19.313 -21.438  0.00  0.00    +0.111 C 
ATOM     21  C   UNL     1      33.615 -18.788 -25.357  0.00  0.00    +0.035 C 
ATOM     22  C   UNL     1      36.134 -20.464 -20.686  0.00  0.00    +0.063 C 
ENDBRANCH  10  15
BRANCH   4  24
ATOM     23  N   UNL     1      31.306  -5.651 -24.443  0.00  0.00    +0.389 N 
ATOM     24  N   UNL     1      31.934  -8.241 -23.382  0.00  0.00    -0.311 N 
ATOM     25  C   UNL     1      32.709  -6.129 -24.334  0.00  0.00    -0.027 C 
ATOM     26  C   UNL     1      33.819  -5.131 -24.580  0.00  0.00    -0.020 C 
ATOM     27  C   UNL     1      33.544  -6.200 -25.595  0.00  0.00    -0.020 C 
ATOM     28  C   UNL     1      32.936  -7.177 -23.264  0.00  0.00    +0.071 C 
ATOM     29  C   UNL     1      30.400  -6.786 -24.632  0.00  0.00    -0.060 C 
ATOM     30  C   UNL     1      30.542  -7.794 -23.491  0.00  0.00    +0.067 C 
ATOM     31  H   UNL     1      31.225  -5.020 -25.239  0.00  0.00    -0.084 HD
ATOM     32  H   UNL     1      31.053  -5.163 -23.584  0.00  0.00    -0.084 HD
ENDBRANCH   4  24
TORSDOF 2
ENDMDL
MODEL 7
REMARK VINA RESULT:      -9.3      8.084     15.661
REMARK  Name = 118513932
REMARK  2 active torsions:
REMARK  status: ('A' for Active; 'I' for Inactive)
REMARK    1  A    between atoms: C_4  and  N_24
REMARK    2  A    between atoms: C_10  and  C_15
REMARK                            x       y       z     vdW  Elec       q    Type
REMARK                         _______ _______ _______ _____ _____    ______ ____
ROOT
ATOM      1  O   UNL     1      31.174  -9.279 -22.356  0.00  0.00    -0.274 OA
ATOM      2  N   UNL     1      32.996  -8.975 -23.810  0.00  0.00    -0.209 N 
ATOM      3  N   UNL     1      34.302 -10.876 -24.427  0.00  0.00    -0.389 NA
ATOM      4  C   UNL     1      33.573  -6.810 -24.685  0.00  0.00    +0.063 C 
ATOM      5  C   UNL     1      32.794  -7.604 -23.931  0.00  0.00    +0.089 C 
ATOM      6  C   UNL     1      34.672  -7.422 -25.402  0.00  0.00    +0.020 C 
ATOM      7  C   UNL     1      34.919  -8.734 -25.327  0.00  0.00    +0.050 C 
ATOM      8  C   UNL     1      34.049  -9.603 -24.489  0.00  0.00    +0.193 C 
ATOM      9  C   UNL     1      32.128  -9.715 -22.997  0.00  0.00    +0.242 C 
ATOM     10  C   UNL     1      33.470 -11.624 -23.641  0.00  0.00    +0.139 C 
ATOM     11  C   UNL     1      32.430 -11.165 -22.939  0.00  0.00    +0.146 C 
ENDROOT
BRANCH  10  15
ATOM     12  N   UNL     1      33.998 -15.118 -24.378  0.00  0.00    -0.178 N 
ATOM     13  N   UNL     1      33.734 -13.809 -24.624  0.00  0.00    -0.173 NA
ATOM     14  N   UNL     1      34.467 -17.001 -23.283  0.00  0.00    -0.392 NA
ATOM     15  C   UNL     1      33.735 -13.064 -23.554  0.00  0.00    +0.124 C 
ATOM     16  C   UNL     1      33.996 -13.563 -22.170  0.00  0.00    +0.023 C 
ATOM     17  C   UNL     1      34.251 -14.873 -21.993  0.00  0.00    +0.025 C 
ATOM     18  C   UNL     1      34.254 -15.706 -23.152  0.00  0.00    +0.198 C 
ATOM     19  C   UNL     1      34.056 -16.109 -25.321  0.00  0.00    +0.173 C 
ATOM     20  C   UNL     1      34.347 -17.256 -24.624  0.00  0.00    +0.111 C 
ATOM     21  C   UNL     1      34.516 -15.399 -20.606  0.00  0.00    +0.035 C 
ATOM     22  C   UNL     1      34.524 -18.619 -25.145  0.00  0.00    +0.063 C 
ENDBRANCH  10  15
BRANCH   4  24
ATOM     23  N   UNL     1      32.411  -2.861 -25.520  0.00  0.00    +0.389 N 
ATOM     24  N   UNL     1      33.387  -5.464 -24.814  0.00  0.00    -0.311 N 
ATOM     25  C   UNL     1      33.265  -3.649 -26.446  0.00  0.00    -0.027 C 
ATOM     26  C   UNL     1      33.803  -2.957 -27.679  0.00  0.00    -0.020 C 
ATOM     27  C   UNL     1      32.719  -3.985 -27.818  0.00  0.00    -0.020 C 
ATOM     28  C   UNL     1      34.163  -4.662 -25.765  0.00  0.00    +0.071 C 
ATOM     29  C   UNL     1      31.626  -3.758 -24.670  0.00  0.00    -0.060 C 
ATOM     30  C   UNL     1      32.537  -4.707 -23.890  0.00  0.00    +0.067 C 
ATOM     31  H   UNL     1      31.780  -2.272 -26.062  0.00  0.00    -0.084 HD
ATOM     32  H   UNL     1      33.008  -2.280 -24.931  0.00  0.00    -0.084 HD
ENDBRANCH   4  24
TORSDOF 2
ENDMDL
MODEL 8
REMARK VINA RESULT:      -8.5      4.809      8.846
REMARK  Name = 118513932
REMARK  2 active torsions:
REMARK  status: ('A' for Active; 'I' for Inactive)
REMARK    1  A    between atoms: C_4  and  N_24
REMARK    2  A    between atoms: C_10  and  C_15
REMARK                            x       y       z     vdW  Elec       q    Type
REMARK                         _______ _______ _______ _____ _____    ______ ____
ROOT
ATOM      1  O   UNL     1      33.631 -16.089 -25.973  0.00  0.00    -0.274 OA
ATOM      2  N   UNL     1      34.104 -15.741 -23.697  0.00  0.00    -0.209 N 
ATOM      3  N   UNL     1      34.207 -13.501 -22.876  0.00  0.00    -0.389 NA
ATOM      4  C   UNL     1      34.487 -17.573 -22.186  0.00  0.00    +0.063 C 
ATOM      5  C   UNL     1      34.209 -17.098 -23.413  0.00  0.00    +0.089 C 
ATOM      6  C   UNL     1      34.684 -16.617 -21.118  0.00  0.00    +0.020 C 
ATOM      7  C   UNL     1      34.597 -15.299 -21.327  0.00  0.00    +0.050 C 
ATOM      8  C   UNL     1      34.288 -14.785 -22.689  0.00  0.00    +0.193 C 
ATOM      9  C   UNL     1      33.812 -15.348 -25.009  0.00  0.00    +0.242 C 
ATOM     10  C   UNL     1      33.922 -13.088 -24.147  0.00  0.00    +0.139 C 
ATOM     11  C   UNL     1      33.722 -13.881 -25.204  0.00  0.00    +0.146 C 
ENDROOT
BRANCH  10  15
ATOM     12  N   UNL     1      33.079  -9.582 -23.984  0.00  0.00    -0.178 N 
ATOM     13  N   UNL     1      33.059 -10.896 -23.641  0.00  0.00    -0.173 NA
ATOM     14  N   UNL     1      33.584  -7.694 -25.054  0.00  0.00    -0.392 NA
ATOM     15  C   UNL     1      33.825 -11.644 -24.383  0.00  0.00    +0.124 C 
ATOM     16  C   UNL     1      34.663 -11.145 -25.515  0.00  0.00    +0.023 C 
ATOM     17  C   UNL     1      34.639  -9.830 -25.806  0.00  0.00    +0.025 C 
ATOM     18  C   UNL     1      33.805  -8.994 -25.004  0.00  0.00    +0.198 C 
ATOM     19  C   UNL     1      32.368  -8.588 -23.368  0.00  0.00    +0.173 C 
ATOM     20  C   UNL     1      32.695  -7.437 -24.043  0.00  0.00    +0.111 C 
ATOM     21  C   UNL     1      35.475  -9.303 -26.943  0.00  0.00    +0.035 C 
ATOM     22  C   UNL     1      32.217  -6.069 -23.798  0.00  0.00    +0.063 C 
ENDBRANCH  10  15
BRANCH   4  24
ATOM     23  N   UNL     1      34.768 -21.434 -20.557  0.00  0.00    +0.389 N 
ATOM     24  N   UNL     1      34.592 -18.902 -21.892  0.00  0.00    -0.311 N 
ATOM     25  C   UNL     1      35.948 -20.541 -20.690  0.00  0.00    -0.027 C 
ATOM     26  C   UNL     1      37.303 -21.095 -20.310  0.00  0.00    -0.020 C 
ATOM     27  C   UNL     1      36.645 -20.076 -19.429  0.00  0.00    -0.020 C 
ATOM     28  C   UNL     1      35.887 -19.590 -21.868  0.00  0.00    +0.071 C 
ATOM     29  C   UNL     1      33.538 -20.642 -20.517  0.00  0.00    -0.060 C 
ATOM     30  C   UNL     1      33.413 -19.763 -21.762  0.00  0.00    +0.067 C 
ATOM     31  H   UNL     1      34.849 -21.975 -19.696  0.00  0.00    -0.084 HD
ATOM     32  H   UNL     1      34.734 -22.063 -21.360  0.00  0.00    -0.084 HD
ENDBRANCH   4  24
TORSDOF 2
ENDMDL
MODEL 9
REMARK VINA RESULT:      -8.5      6.973     14.114
REMARK  Name = 118513932
REMARK  2 active torsions:
REMARK  status: ('A' for Active; 'I' for Inactive)
REMARK    1  A    between atoms: C_4  and  N_24
REMARK    2  A    between atoms: C_10  and  C_15
REMARK                            x       y       z     vdW  Elec       q    Type
REMARK                         _______ _______ _______ _____ _____    ______ ____
ROOT
ATOM      1  O   UNL     1      31.089 -11.517 -21.545  0.00  0.00    -0.274 OA
ATOM      2  N   UNL     1      32.729 -10.915 -23.118  0.00  0.00    -0.209 N 
ATOM      3  N   UNL     1      34.119 -12.625 -24.037  0.00  0.00    -0.389 NA
ATOM      4  C   UNL     1      33.040  -8.635 -23.818  0.00  0.00    +0.063 C 
ATOM      5  C   UNL     1      32.405  -9.563 -23.081  0.00  0.00    +0.089 C 
ATOM      6  C   UNL     1      34.110  -9.075 -24.688  0.00  0.00    +0.020 C 
ATOM      7  C   UNL     1      34.469 -10.361 -24.768  0.00  0.00    +0.050 C 
ATOM      8  C   UNL     1      33.758 -11.380 -23.948  0.00  0.00    +0.193 C 
ATOM      9  C   UNL     1      32.008 -11.803 -22.310  0.00  0.00    +0.242 C 
ATOM     10  C   UNL     1      33.432 -13.515 -23.261  0.00  0.00    +0.139 C 
ATOM     11  C   UNL     1      32.431 -13.219 -22.425  0.00  0.00    +0.146 C 
ENDROOT
BRANCH  10  15
ATOM     12  N   UNL     1      34.014 -16.908 -24.344  0.00  0.00    -0.178 N 
ATOM     13  N   UNL     1      33.596 -15.619 -24.424  0.00  0.00    -0.173 NA
ATOM     14  N   UNL     1      34.899 -18.787 -23.539  0.00  0.00    -0.392 NA
ATOM     15  C   UNL     1      33.820 -14.926 -23.343  0.00  0.00    +0.124 C 
ATOM     16  C   UNL     1      34.474 -15.462 -22.111  0.00  0.00    +0.023 C 
ATOM     17  C   UNL     1      34.866 -16.750 -22.095  0.00  0.00    +0.025 C 
ATOM     18  C   UNL     1      34.628 -17.525 -23.269  0.00  0.00    +0.198 C 
ATOM     19  C   UNL     1      33.899 -17.845 -25.336  0.00  0.00    +0.173 C 
ATOM     20  C   UNL     1      34.449 -18.991 -24.818  0.00  0.00    +0.111 C 
ATOM     21  C   UNL     1      35.526 -17.312 -20.863  0.00  0.00    +0.035 C 
ATOM     22  C   UNL     1      34.588 -20.307 -25.459  0.00  0.00    +0.063 C 
ENDBRANCH  10  15
BRANCH   4  24
ATOM     23  N   UNL     1      31.759  -4.678 -24.408  0.00  0.00    +0.389 N 
ATOM     24  N   UNL     1      32.733  -7.305 -23.793  0.00  0.00    -0.311 N 
ATOM     25  C   UNL     1      33.007  -5.208 -25.016  0.00  0.00    -0.027 C 
ATOM     26  C   UNL     1      33.881  -4.247 -25.791  0.00  0.00    -0.020 C 
ATOM     27  C   UNL     1      33.093  -5.290 -26.526  0.00  0.00    -0.020 C 
ATOM     28  C   UNL     1      33.700  -6.279 -24.200  0.00  0.00    +0.071 C 
ATOM     29  C   UNL     1      30.837  -5.777 -24.111  0.00  0.00    -0.060 C 
ATOM     30  C   UNL     1      31.494  -6.806 -23.190  0.00  0.00    +0.067 C 
ATOM     31  H   UNL     1      31.314  -4.032 -25.059  0.00  0.00    -0.084 HD
ATOM     32  H   UNL     1      31.990  -4.194 -23.541  0.00  0.00    -0.084 HD
ENDBRANCH   4  24
TORSDOF 2
ENDMDL
