MODEL 1
REMARK VINA RESULT:     -12.2      0.000      0.000
REMARK  Name = 24864821
REMARK  5 active torsions:
REMARK  status: ('A' for Active; 'I' for Inactive)
REMARK    1  A    between atoms: C_5  and  C_16
REMARK    2  A    between atoms: C_7  and  C_10
REMARK    3  A    between atoms: C_16  and  O_17
REMARK    4  A    between atoms: O_17  and  C_20
REMARK    5  A    between atoms: C_25  and  O_28
REMARK                            x       y       z     vdW  Elec       q    Type
REMARK                         _______ _______ _______ _____ _____    ______ ____
ROOT
ATOM      1  N   UNL     1      36.059 -23.167 -15.834  0.00  0.00    -0.191 N 
ATOM      2  N   UNL     1      34.726 -22.950 -15.965  0.00  0.00    -0.163 NA
ATOM      3  N   UNL     1      38.226 -22.999 -16.110  0.00  0.00    -0.128 NA
ATOM      4  N   UNL     1      37.986 -23.974 -15.164  0.00  0.00    -0.127 NA
ATOM      5  C   UNL     1      37.064 -22.528 -16.500  0.00  0.00    +0.208 A 
ATOM      6  C   UNL     1      36.684 -24.067 -15.004  0.00  0.00    +0.186 A 
ATOM      7  C   UNL     1      33.993 -23.702 -15.193  0.00  0.00    +0.101 C 
ATOM      8  C   UNL     1      35.865 -24.879 -14.195  0.00  0.00    +0.042 C 
ATOM      9  C   UNL     1      34.535 -24.736 -14.254  0.00  0.00    +0.024 C 
ENDROOT
BRANCH   7  10
ATOM     10  C   UNL     1      32.514 -23.556 -15.241  0.00  0.00    +0.019 C 
ATOM     11  C   UNL     1      31.763 -23.674 -14.072  0.00  0.00    +0.002 C 
ATOM     12  C   UNL     1      31.878 -23.299 -16.455  0.00  0.00    +0.002 C 
ATOM     13  C   UNL     1      30.377 -23.535 -14.117  0.00  0.00    +0.000 C 
ATOM     14  C   UNL     1      30.491 -23.160 -16.500  0.00  0.00    +0.000 C 
ATOM     15  C   UNL     1      29.739 -23.279 -15.332  0.00  0.00    +0.000 C 
ENDBRANCH   7  10
BRANCH   5  16
ATOM     16  C   UNL     1      36.819 -21.452 -17.517  0.00  0.00    +0.272 C 
BRANCH  16  17
ATOM     17  O   UNL     1      36.502 -22.058 -18.769  0.00  0.00    -0.467 OA
BRANCH  17  20
ATOM     18  N   UNL     1      33.120 -20.668 -20.723  0.00  0.00    -0.248 NA
ATOM     19  C   UNL     1      35.500 -20.552 -20.367  0.00  0.00    +0.030 C 
ATOM     20  C   UNL     1      35.404 -21.585 -19.424  0.00  0.00    +0.138 C 
ATOM     21  C   UNL     1      34.317 -20.119 -21.000  0.00  0.00    +0.066 C 
ATOM     22  C   UNL     1      36.733 -19.956 -20.681  0.00  0.00    +0.059 C 
ATOM     23  C   UNL     1      34.413 -19.093 -21.937  0.00  0.00    +0.109 C 
ATOM     24  C   UNL     1      34.171 -22.153 -19.135  0.00  0.00    +0.057 C 
ATOM     25  C   UNL     1      35.639 -18.500 -22.250  0.00  0.00    +0.118 C 
ATOM     26  C   UNL     1      36.800 -18.932 -21.621  0.00  0.00    +0.011 C 
ATOM     27  C   UNL     1      33.069 -21.663 -19.807  0.00  0.00    +0.102 C 
BRANCH  25  28
ATOM     28  O   UNL     1      35.694 -17.500 -23.172  0.00  0.00    -0.476 OA
ATOM     29  C   UNL     1      34.627 -17.430 -24.118  0.00  0.00    +0.252 C 
ENDBRANCH  25  28
ENDBRANCH  17  20
ENDBRANCH  16  17
ENDBRANCH   5  16
TORSDOF 5
ENDMDL
MODEL 2
REMARK VINA RESULT:     -11.1      4.618     10.321
REMARK  Name = 24864821
REMARK  5 active torsions:
REMARK  status: ('A' for Active; 'I' for Inactive)
REMARK    1  A    between atoms: C_5  and  C_16
REMARK    2  A    between atoms: C_7  and  C_10
REMARK    3  A    between atoms: C_16  and  O_17
REMARK    4  A    between atoms: O_17  and  C_20
REMARK    5  A    between atoms: C_25  and  O_28
REMARK                            x       y       z     vdW  Elec       q    Type
REMARK                         _______ _______ _______ _____ _____    ______ ____
ROOT
ATOM      1  N   UNL     1      33.884 -15.079 -23.962  0.00  0.00    -0.191 N 
ATOM      2  N   UNL     1      33.468 -14.277 -22.950  0.00  0.00    -0.163 NA
ATOM      3  N   UNL     1      34.788 -16.756 -25.045  0.00  0.00    -0.128 NA
ATOM      4  N   UNL     1      34.257 -15.882 -25.971  0.00  0.00    -0.127 NA
ATOM      5  C   UNL     1      34.556 -16.261 -23.850  0.00  0.00    +0.208 A 
ATOM      6  C   UNL     1      33.717 -14.879 -25.313  0.00  0.00    +0.186 A 
ATOM      7  C   UNL     1      32.838 -13.208 -23.351  0.00  0.00    +0.101 C 
ATOM      8  C   UNL     1      33.048 -13.707 -25.716  0.00  0.00    +0.042 C 
ATOM      9  C   UNL     1      32.599 -12.853 -24.787  0.00  0.00    +0.024 C 
ENDROOT
BRANCH   7  10
ATOM     10  C   UNL     1      32.328 -12.251 -22.335  0.00  0.00    +0.019 C 
ATOM     11  C   UNL     1      32.082 -10.925 -22.687  0.00  0.00    +0.002 C 
ATOM     12  C   UNL     1      32.093 -12.681 -21.028  0.00  0.00    +0.002 C 
ATOM     13  C   UNL     1      31.601 -10.028 -21.734  0.00  0.00    +0.000 C 
ATOM     14  C   UNL     1      31.613 -11.784 -20.075  0.00  0.00    +0.000 C 
ATOM     15  C   UNL     1      31.367 -10.456 -20.427  0.00  0.00    +0.000 C 
ENDBRANCH   7  10
BRANCH   5  16
ATOM     16  C   UNL     1      34.947 -16.861 -22.531  0.00  0.00    +0.272 C 
BRANCH  16  17
ATOM     17  O   UNL     1      34.485 -18.209 -22.479  0.00  0.00    -0.467 OA
BRANCH  17  20
ATOM     18  N   UNL     1      36.589 -20.764 -19.982  0.00  0.00    -0.248 NA
ATOM     19  C   UNL     1      34.486 -20.044 -20.911  0.00  0.00    +0.030 C 
ATOM     20  C   UNL     1      35.156 -19.060 -21.652  0.00  0.00    +0.138 C 
ATOM     21  C   UNL     1      35.252 -20.885 -20.078  0.00  0.00    +0.066 C 
ATOM     22  C   UNL     1      33.092 -20.199 -20.987  0.00  0.00    +0.059 C 
ATOM     23  C   UNL     1      34.586 -21.862 -19.343  0.00  0.00    +0.109 C 
ATOM     24  C   UNL     1      36.535 -18.932 -21.555  0.00  0.00    +0.057 C 
ATOM     25  C   UNL     1      33.199 -22.016 -19.418  0.00  0.00    +0.118 C 
ATOM     26  C   UNL     1      32.451 -21.184 -20.241  0.00  0.00    +0.011 C 
ATOM     27  C   UNL     1      37.199 -19.802 -20.713  0.00  0.00    +0.102 C 
BRANCH  25  28
ATOM     28  O   UNL     1      32.583 -22.984 -18.685  0.00  0.00    -0.476 OA
ATOM     29  C   UNL     1      33.202 -23.361 -17.455  0.00  0.00    +0.252 C 
ENDBRANCH  25  28
ENDBRANCH  17  20
ENDBRANCH  16  17
ENDBRANCH   5  16
TORSDOF 5
ENDMDL
MODEL 3
REMARK VINA RESULT:     -11.1      7.836     13.464
REMARK  Name = 24864821
REMARK  5 active torsions:
REMARK  status: ('A' for Active; 'I' for Inactive)
REMARK    1  A    between atoms: C_5  and  C_16
REMARK    2  A    between atoms: C_7  and  C_10
REMARK    3  A    between atoms: C_16  and  O_17
REMARK    4  A    between atoms: O_17  and  C_20
REMARK    5  A    between atoms: C_25  and  O_28
REMARK                            x       y       z     vdW  Elec       q    Type
REMARK                         _______ _______ _______ _____ _____    ______ ____
ROOT
ATOM      1  N   UNL     1      32.012 -10.189 -21.682  0.00  0.00    -0.191 N 
ATOM      2  N   UNL     1      32.580  -9.438 -22.658  0.00  0.00    -0.163 NA
ATOM      3  N   UNL     1      31.181 -11.903 -20.599  0.00  0.00    -0.128 NA
ATOM      4  N   UNL     1      31.108 -10.798 -19.776  0.00  0.00    -0.127 NA
ATOM      5  C   UNL     1      31.722 -11.521 -21.734  0.00  0.00    +0.208 A 
ATOM      6  C   UNL     1      31.609  -9.775 -20.434  0.00  0.00    +0.186 A 
ATOM      7  C   UNL     1      32.749  -8.188 -22.329  0.00  0.00    +0.101 C 
ATOM      8  C   UNL     1      31.788  -8.415 -20.113  0.00  0.00    +0.042 C 
ATOM      9  C   UNL     1      32.343  -7.595 -21.015  0.00  0.00    +0.024 C 
ENDROOT
BRANCH   7  10
ATOM     10  C   UNL     1      33.368  -7.263 -23.315  0.00  0.00    +0.019 C 
ATOM     11  C   UNL     1      34.526  -7.640 -23.994  0.00  0.00    +0.002 C 
ATOM     12  C   UNL     1      32.789  -6.018 -23.561  0.00  0.00    +0.002 C 
ATOM     13  C   UNL     1      35.105  -6.772 -24.920  0.00  0.00    +0.000 C 
ATOM     14  C   UNL     1      33.368  -5.150 -24.486  0.00  0.00    +0.000 C 
ATOM     15  C   UNL     1      34.526  -5.526 -25.166  0.00  0.00    +0.000 C 
ENDBRANCH   7  10
BRANCH   5  16
ATOM     16  C   UNL     1      32.005 -12.376 -22.934  0.00  0.00    +0.272 C 
BRANCH  16  17
ATOM     17  O   UNL     1      33.267 -13.017 -22.762  0.00  0.00    -0.467 OA
BRANCH  17  20
ATOM     18  N   UNL     1      34.191 -16.000 -25.489  0.00  0.00    -0.248 NA
ATOM     19  C   UNL     1      34.153 -15.216 -23.211  0.00  0.00    +0.030 C 
ATOM     20  C   UNL     1      33.579 -14.012 -23.641  0.00  0.00    +0.138 C 
ATOM     21  C   UNL     1      34.447 -16.196 -24.182  0.00  0.00    +0.066 C 
ATOM     22  C   UNL     1      34.434 -15.455 -21.855  0.00  0.00    +0.059 C 
ATOM     23  C   UNL     1      35.018 -17.392 -23.755  0.00  0.00    +0.109 C 
ATOM     24  C   UNL     1      33.314 -13.807 -24.987  0.00  0.00    +0.057 C 
ATOM     25  C   UNL     1      35.297 -17.630 -22.407  0.00  0.00    +0.118 C 
ATOM     26  C   UNL     1      35.005 -16.660 -21.456  0.00  0.00    +0.011 C 
ATOM     27  C   UNL     1      33.636 -14.825 -25.863  0.00  0.00    +0.102 C 
BRANCH  25  28
ATOM     28  O   UNL     1      35.853 -18.812 -22.026  0.00  0.00    -0.476 OA
ATOM     29  C   UNL     1      35.005 -19.743 -21.355  0.00  0.00    +0.252 C 
ENDBRANCH  25  28
ENDBRANCH  17  20
ENDBRANCH  16  17
ENDBRANCH   5  16
TORSDOF 5
ENDMDL
MODEL 4
REMARK VINA RESULT:     -11.0      1.827      4.339
REMARK  Name = 24864821
REMARK  5 active torsions:
REMARK  status: ('A' for Active; 'I' for Inactive)
REMARK    1  A    between atoms: C_5  and  C_16
REMARK    2  A    between atoms: C_7  and  C_10
REMARK    3  A    between atoms: C_16  and  O_17
REMARK    4  A    between atoms: O_17  and  C_20
REMARK    5  A    between atoms: C_25  and  O_28
REMARK                            x       y       z     vdW  Elec       q    Type
REMARK                         _______ _______ _______ _____ _____    ______ ____
ROOT
ATOM      1  N   UNL     1      33.457 -23.341 -17.138  0.00  0.00    -0.191 N 
ATOM      2  N   UNL     1      34.634 -23.827 -16.670  0.00  0.00    -0.163 NA
ATOM      3  N   UNL     1      31.962 -22.446 -18.467  0.00  0.00    -0.128 NA
ATOM      4  N   UNL     1      31.347 -22.750 -17.270  0.00  0.00    -0.127 NA
ATOM      5  C   UNL     1      33.222 -22.805 -18.371  0.00  0.00    +0.208 A 
ATOM      6  C   UNL     1      32.251 -23.287 -16.479  0.00  0.00    +0.186 A 
ATOM      7  C   UNL     1      34.565 -24.289 -15.453  0.00  0.00    +0.101 C 
ATOM      8  C   UNL     1      32.212 -23.777 -15.159  0.00  0.00    +0.042 C 
ATOM      9  C   UNL     1      33.326 -24.278 -14.611  0.00  0.00    +0.024 C 
ENDROOT
BRANCH   7  10
ATOM     10  C   UNL     1      35.790 -24.854 -14.828  0.00  0.00    +0.019 C 
ATOM     11  C   UNL     1      36.223 -26.133 -15.174  0.00  0.00    +0.002 C 
ATOM     12  C   UNL     1      36.507 -24.102 -13.898  0.00  0.00    +0.002 C 
ATOM     13  C   UNL     1      37.373 -26.662 -14.589  0.00  0.00    +0.000 C 
ATOM     14  C   UNL     1      37.658 -24.631 -13.313  0.00  0.00    +0.000 C 
ATOM     15  C   UNL     1      38.091 -25.911 -13.657  0.00  0.00    +0.000 C 
ENDBRANCH   7  10
BRANCH   5  16
ATOM     16  C   UNL     1      34.283 -22.671 -19.423  0.00  0.00    +0.272 C 
BRANCH  16  17
ATOM     17  O   UNL     1      34.011 -21.515 -20.214  0.00  0.00    -0.467 OA
BRANCH  17  20
ATOM     18  N   UNL     1      37.242 -19.029 -20.966  0.00  0.00    -0.248 NA
ATOM     19  C   UNL     1      35.037 -19.795 -21.560  0.00  0.00    +0.030 C 
ATOM     20  C   UNL     1      35.062 -20.688 -20.480  0.00  0.00    +0.138 C 
ATOM     21  C   UNL     1      36.163 -18.973 -21.769  0.00  0.00    +0.066 C 
ATOM     22  C   UNL     1      33.927 -19.710 -22.419  0.00  0.00    +0.059 C 
ATOM     23  C   UNL     1      36.137 -18.086 -22.842  0.00  0.00    +0.109 C 
ATOM     24  C   UNL     1      36.172 -20.748 -19.651  0.00  0.00    +0.057 C 
ATOM     25  C   UNL     1      35.035 -18.002 -23.696  0.00  0.00    +0.118 C 
ATOM     26  C   UNL     1      33.928 -18.815 -23.484  0.00  0.00    +0.011 C 
ATOM     27  C   UNL     1      37.227 -19.903 -19.935  0.00  0.00    +0.102 C 
BRANCH  25  28
ATOM     28  O   UNL     1      35.045 -17.122 -24.734  0.00  0.00    -0.476 OA
ATOM     29  C   UNL     1      34.055 -16.093 -24.723  0.00  0.00    +0.252 C 
ENDBRANCH  25  28
ENDBRANCH  17  20
ENDBRANCH  16  17
ENDBRANCH   5  16
TORSDOF 5
ENDMDL
MODEL 5
REMARK VINA RESULT:     -10.9      7.101     13.086
REMARK  Name = 24864821
REMARK  5 active torsions:
REMARK  status: ('A' for Active; 'I' for Inactive)
REMARK    1  A    between atoms: C_5  and  C_16
REMARK    2  A    between atoms: C_7  and  C_10
REMARK    3  A    between atoms: C_16  and  O_17
REMARK    4  A    between atoms: O_17  and  C_20
REMARK    5  A    between atoms: C_25  and  O_28
REMARK                            x       y       z     vdW  Elec       q    Type
REMARK                         _______ _______ _______ _____ _____    ______ ____
ROOT
ATOM      1  N   UNL     1      33.982 -11.336 -25.971  0.00  0.00    -0.191 N 
ATOM      2  N   UNL     1      33.433 -10.822 -24.842  0.00  0.00    -0.163 NA
ATOM      3  N   UNL     1      34.503 -12.734 -27.576  0.00  0.00    -0.128 NA
ATOM      4  N   UNL     1      35.128 -11.531 -27.833  0.00  0.00    -0.127 NA
ATOM      5  C   UNL     1      33.824 -12.600 -26.460  0.00  0.00    +0.208 A 
ATOM      6  C   UNL     1      34.809 -10.699 -26.866  0.00  0.00    +0.186 A 
ATOM      7  C   UNL     1      33.750  -9.577 -24.623  0.00  0.00    +0.101 C 
ATOM      8  C   UNL     1      35.149  -9.359 -26.593  0.00  0.00    +0.042 C 
ATOM      9  C   UNL     1      34.653  -8.765 -25.500  0.00  0.00    +0.024 C 
ENDROOT
BRANCH   7  10
ATOM     10  C   UNL     1      33.207  -8.898 -23.417  0.00  0.00    +0.019 C 
ATOM     11  C   UNL     1      33.678  -7.636 -23.055  0.00  0.00    +0.002 C 
ATOM     12  C   UNL     1      32.224  -9.523 -22.649  0.00  0.00    +0.002 C 
ATOM     13  C   UNL     1      33.166  -6.999 -21.925  0.00  0.00    +0.000 C 
ATOM     14  C   UNL     1      31.713  -8.886 -21.519  0.00  0.00    +0.000 C 
ATOM     15  C   UNL     1      32.184  -7.624 -21.156  0.00  0.00    +0.000 C 
ENDBRANCH   7  10
BRANCH   5  16
ATOM     16  C   UNL     1      32.983 -13.642 -25.781  0.00  0.00    +0.272 C 
BRANCH  16  17
ATOM     17  O   UNL     1      33.829 -14.697 -25.328  0.00  0.00    -0.467 OA
BRANCH  17  20
ATOM     18  N   UNL     1      34.316 -14.994 -21.221  0.00  0.00    -0.248 NA
ATOM     19  C   UNL     1      34.501 -15.993 -23.405  0.00  0.00    +0.030 C 
ATOM     20  C   UNL     1      33.998 -14.817 -23.980  0.00  0.00    +0.138 C 
ATOM     21  C   UNL     1      34.646 -16.038 -22.003  0.00  0.00    +0.066 C 
ATOM     22  C   UNL     1      34.856 -17.103 -24.191  0.00  0.00    +0.059 C 
ATOM     23  C   UNL     1      35.146 -17.206 -21.433  0.00  0.00    +0.109 C 
ATOM     24  C   UNL     1      33.657 -13.739 -23.176  0.00  0.00    +0.057 C 
ATOM     25  C   UNL     1      35.498 -18.309 -22.214  0.00  0.00    +0.118 C 
ATOM     26  C   UNL     1      35.353 -18.257 -23.596  0.00  0.00    +0.011 C 
ATOM     27  C   UNL     1      33.834 -13.877 -21.813  0.00  0.00    +0.102 C 
BRANCH  25  28
ATOM     28  O   UNL     1      35.985 -19.433 -21.622  0.00  0.00    -0.476 OA
ATOM     29  C   UNL     1      35.041 -20.289 -20.978  0.00  0.00    +0.252 C 
ENDBRANCH  25  28
ENDBRANCH  17  20
ENDBRANCH  16  17
ENDBRANCH   5  16
TORSDOF 5
ENDMDL
MODEL 6
REMARK VINA RESULT:     -10.9      5.926     10.210
REMARK  Name = 24864821
REMARK  5 active torsions:
REMARK  status: ('A' for Active; 'I' for Inactive)
REMARK    1  A    between atoms: C_5  and  C_16
REMARK    2  A    between atoms: C_7  and  C_10
REMARK    3  A    between atoms: C_16  and  O_17
REMARK    4  A    between atoms: O_17  and  C_20
REMARK    5  A    between atoms: C_25  and  O_28
REMARK                            x       y       z     vdW  Elec       q    Type
REMARK                         _______ _______ _______ _____ _____    ______ ____
ROOT
ATOM      1  N   UNL     1      34.263 -16.763 -23.770  0.00  0.00    -0.191 N 
ATOM      2  N   UNL     1      34.741 -17.397 -22.670  0.00  0.00    -0.163 NA
ATOM      3  N   UNL     1      33.617 -15.175 -25.134  0.00  0.00    -0.128 NA
ATOM      4  N   UNL     1      33.456 -16.386 -25.776  0.00  0.00    -0.127 NA
ATOM      5  C   UNL     1      34.099 -15.419 -23.937  0.00  0.00    +0.208 A 
ATOM      6  C   UNL     1      33.847 -17.333 -24.950  0.00  0.00    +0.186 A 
ATOM      7  C   UNL     1      34.798 -18.694 -22.793  0.00  0.00    +0.101 C 
ATOM      8  C   UNL     1      33.903 -18.737 -25.048  0.00  0.00    +0.042 C 
ATOM      9  C   UNL     1      34.362 -19.450 -24.011  0.00  0.00    +0.024 C 
ENDROOT
BRANCH   7  10
ATOM     10  C   UNL     1      35.309 -19.503 -21.655  0.00  0.00    +0.019 C 
ATOM     11  C   UNL     1      36.610 -19.311 -21.192  0.00  0.00    +0.002 C 
ATOM     12  C   UNL     1      34.486 -20.452 -21.050  0.00  0.00    +0.002 C 
ATOM     13  C   UNL     1      37.088 -20.069 -20.124  0.00  0.00    +0.000 C 
ATOM     14  C   UNL     1      34.964 -21.210 -19.981  0.00  0.00    +0.000 C 
ATOM     15  C   UNL     1      36.266 -21.019 -19.517  0.00  0.00    +0.000 C 
ENDBRANCH   7  10
BRANCH   5  16
ATOM     16  C   UNL     1      34.439 -14.414 -22.876  0.00  0.00    +0.272 C 
BRANCH  16  17
ATOM     17  O   UNL     1      34.100 -13.110 -23.346  0.00  0.00    -0.467 OA
BRANCH  17  20
ATOM     18  N   UNL     1      31.007 -11.209 -21.342  0.00  0.00    -0.248 NA
ATOM     19  C   UNL     1      32.709 -11.160 -23.046  0.00  0.00    +0.030 C 
ATOM     20  C   UNL     1      33.086 -12.466 -22.700  0.00  0.00    +0.138 C 
ATOM     21  C   UNL     1      31.651 -10.562 -22.331  0.00  0.00    +0.066 C 
ATOM     22  C   UNL     1      33.359 -10.454 -24.073  0.00  0.00    +0.059 C 
ATOM     23  C   UNL     1      31.278  -9.266 -22.674  0.00  0.00    +0.109 C 
ATOM     24  C   UNL     1      32.424 -13.135 -21.681  0.00  0.00    +0.057 C 
ATOM     25  C   UNL     1      31.924  -8.564 -23.695  0.00  0.00    +0.118 C 
ATOM     26  C   UNL     1      32.966  -9.159 -24.395  0.00  0.00    +0.011 C 
ATOM     27  C   UNL     1      31.400 -12.468 -21.039  0.00  0.00    +0.102 C 
BRANCH  25  28
ATOM     28  O   UNL     1      31.531  -7.298 -24.004  0.00  0.00    -0.476 OA
ATOM     29  C   UNL     1      31.240  -7.025 -25.375  0.00  0.00    +0.252 C 
ENDBRANCH  25  28
ENDBRANCH  17  20
ENDBRANCH  16  17
ENDBRANCH   5  16
TORSDOF 5
ENDMDL
MODEL 7
REMARK VINA RESULT:     -10.3      2.943      8.542
REMARK  Name = 24864821
REMARK  5 active torsions:
REMARK  status: ('A' for Active; 'I' for Inactive)
REMARK    1  A    between atoms: C_5  and  C_16
REMARK    2  A    between atoms: C_7  and  C_10
REMARK    3  A    between atoms: C_16  and  O_17
REMARK    4  A    between atoms: O_17  and  C_20
REMARK    5  A    between atoms: C_25  and  O_28
REMARK                            x       y       z     vdW  Elec       q    Type
REMARK                         _______ _______ _______ _____ _____    ______ ____
ROOT
ATOM      1  N   UNL     1      35.034 -22.103 -18.474  0.00  0.00    -0.191 N 
ATOM      2  N   UNL     1      35.513 -21.245 -19.409  0.00  0.00    -0.163 NA
ATOM      3  N   UNL     1      34.939 -23.455 -16.752  0.00  0.00    -0.128 NA
ATOM      4  N   UNL     1      33.679 -23.378 -17.310  0.00  0.00    -0.127 NA
ATOM      5  C   UNL     1      35.736 -22.687 -17.460  0.00  0.00    +0.208 A 
ATOM      6  C   UNL     1      33.746 -22.565 -18.341  0.00  0.00    +0.186 A 
ATOM      7  C   UNL     1      34.611 -20.834 -20.256  0.00  0.00    +0.101 C 
ATOM      8  C   UNL     1      32.797 -22.118 -19.282  0.00  0.00    +0.042 C 
ATOM      9  C   UNL     1      33.176 -21.267 -20.244  0.00  0.00    +0.024 C 
ENDROOT
BRANCH   7  10
ATOM     10  C   UNL     1      35.011 -19.885 -21.329  0.00  0.00    +0.019 C 
ATOM     11  C   UNL     1      34.149 -19.637 -22.397  0.00  0.00    +0.002 C 
ATOM     12  C   UNL     1      36.247 -19.242 -21.265  0.00  0.00    +0.002 C 
ATOM     13  C   UNL     1      34.524 -18.745 -23.401  0.00  0.00    +0.000 C 
ATOM     14  C   UNL     1      36.621 -18.351 -22.269  0.00  0.00    +0.000 C 
ATOM     15  C   UNL     1      35.761 -18.102 -23.339  0.00  0.00    +0.000 C 
ENDBRANCH   7  10
BRANCH   5  16
ATOM     16  C   UNL     1      37.200 -22.450 -17.233  0.00  0.00    +0.272 C 
BRANCH  16  17
ATOM     17  O   UNL     1      37.454 -22.420 -15.830  0.00  0.00    -0.467 OA
BRANCH  17  20
ATOM     18  N   UNL     1      38.591 -26.009 -14.093  0.00  0.00    -0.248 NA
ATOM     19  C   UNL     1      37.152 -24.078 -14.102  0.00  0.00    +0.030 C 
ATOM     20  C   UNL     1      37.811 -23.598 -15.242  0.00  0.00    +0.138 C 
ATOM     21  C   UNL     1      37.580 -25.304 -13.553  0.00  0.00    +0.066 C 
ATOM     22  C   UNL     1      36.092 -23.368 -13.511  0.00  0.00    +0.059 C 
ATOM     23  C   UNL     1      36.925 -25.780 -12.420  0.00  0.00    +0.109 C 
ATOM     24  C   UNL     1      38.854 -24.323 -15.801  0.00  0.00    +0.057 C 
ATOM     25  C   UNL     1      35.872 -25.075 -11.833  0.00  0.00    +0.118 C 
ATOM     26  C   UNL     1      35.455 -23.867 -12.379  0.00  0.00    +0.011 C 
ATOM     27  C   UNL     1      39.202 -25.513 -15.193  0.00  0.00    +0.102 C 
BRANCH  25  28
ATOM     28  O   UNL     1      35.254 -25.572 -10.727  0.00  0.00    -0.476 OA
ATOM     29  C   UNL     1      35.069 -24.678  -9.629  0.00  0.00    +0.252 C 
ENDBRANCH  25  28
ENDBRANCH  17  20
ENDBRANCH  16  17
ENDBRANCH   5  16
TORSDOF 5
ENDMDL
MODEL 8
REMARK VINA RESULT:     -10.2     10.913     14.589
REMARK  Name = 24864821
REMARK  5 active torsions:
REMARK  status: ('A' for Active; 'I' for Inactive)
REMARK    1  A    between atoms: C_5  and  C_16
REMARK    2  A    between atoms: C_7  and  C_10
REMARK    3  A    between atoms: C_16  and  O_17
REMARK    4  A    between atoms: O_17  and  C_20
REMARK    5  A    between atoms: C_25  and  O_28
REMARK                            x       y       z     vdW  Elec       q    Type
REMARK                         _______ _______ _______ _____ _____    ______ ____
ROOT
ATOM      1  N   UNL     1      33.553 -12.484 -24.731  0.00  0.00    -0.191 N 
ATOM      2  N   UNL     1      33.846 -11.199 -24.413  0.00  0.00    -0.163 NA
ATOM      3  N   UNL     1      32.908 -14.572 -24.554  0.00  0.00    -0.128 NA
ATOM      4  N   UNL     1      33.279 -14.344 -25.864  0.00  0.00    -0.127 NA
ATOM      5  C   UNL     1      33.079 -13.450 -23.891  0.00  0.00    +0.208 A 
ATOM      6  C   UNL     1      33.663 -13.090 -25.960  0.00  0.00    +0.186 A 
ATOM      7  C   UNL     1      34.275 -10.493 -25.421  0.00  0.00    +0.101 C 
ATOM      8  C   UNL     1      34.146 -12.307 -27.027  0.00  0.00    +0.042 C 
ATOM      9  C   UNL     1      34.462 -11.024 -26.810  0.00  0.00    +0.024 C 
ENDROOT
BRANCH   7  10
ATOM     10  C   UNL     1      34.627  -9.065 -25.202  0.00  0.00    +0.019 C 
ATOM     11  C   UNL     1      34.659  -8.181 -26.280  0.00  0.00    +0.002 C 
ATOM     12  C   UNL     1      34.923  -8.610 -23.917  0.00  0.00    +0.002 C 
ATOM     13  C   UNL     1      34.987  -6.841 -26.072  0.00  0.00    +0.000 C 
ATOM     14  C   UNL     1      35.251  -7.271 -23.710  0.00  0.00    +0.000 C 
ATOM     15  C   UNL     1      35.284  -6.385 -24.788  0.00  0.00    +0.000 C 
ENDBRANCH   7  10
BRANCH   5  16
ATOM     16  C   UNL     1      32.808 -13.210 -22.435  0.00  0.00    +0.272 C 
BRANCH  16  17
ATOM     17  O   UNL     1      31.615 -12.441 -22.304  0.00  0.00    -0.467 OA
BRANCH  17  20
ATOM     18  N   UNL     1      31.712  -9.319 -19.577  0.00  0.00    -0.248 NA
ATOM     19  C   UNL     1      31.585 -10.068 -21.863  0.00  0.00    +0.030 C 
ATOM     20  C   UNL     1      31.645 -11.398 -21.426  0.00  0.00    +0.138 C 
ATOM     21  C   UNL     1      31.622  -9.046 -20.892  0.00  0.00    +0.066 C 
ATOM     22  C   UNL     1      31.491  -9.746 -23.228  0.00  0.00    +0.059 C 
ATOM     23  C   UNL     1      31.563  -7.725 -21.328  0.00  0.00    +0.109 C 
ATOM     24  C   UNL     1      31.738 -11.683 -20.071  0.00  0.00    +0.057 C 
ATOM     25  C   UNL     1      31.469  -7.405 -22.684  0.00  0.00    +0.118 C 
ATOM     26  C   UNL     1      31.433  -8.417 -23.636  0.00  0.00    +0.011 C 
ATOM     27  C   UNL     1      31.767 -10.616 -19.195  0.00  0.00    +0.102 C 
BRANCH  25  28
ATOM     28  O   UNL     1      31.411  -6.102 -23.073  0.00  0.00    -0.476 OA
ATOM     29  C   UNL     1      31.338  -5.845 -24.475  0.00  0.00    +0.252 C 
ENDBRANCH  25  28
ENDBRANCH  17  20
ENDBRANCH  16  17
ENDBRANCH   5  16
TORSDOF 5
ENDMDL
MODEL 9
REMARK VINA RESULT:     -10.1      2.765      6.711
REMARK  Name = 24864821
REMARK  5 active torsions:
REMARK  status: ('A' for Active; 'I' for Inactive)
REMARK    1  A    between atoms: C_5  and  C_16
REMARK    2  A    between atoms: C_7  and  C_10
REMARK    3  A    between atoms: C_16  and  O_17
REMARK    4  A    between atoms: O_17  and  C_20
REMARK    5  A    between atoms: C_25  and  O_28
REMARK                            x       y       z     vdW  Elec       q    Type
REMARK                         _______ _______ _______ _____ _____    ______ ____
ROOT
ATOM      1  N   UNL     1      35.973 -23.524 -16.010  0.00  0.00    -0.191 N 
ATOM      2  N   UNL     1      35.162 -23.068 -16.997  0.00  0.00    -0.163 NA
ATOM      3  N   UNL     1      36.688 -24.612 -14.248  0.00  0.00    -0.128 NA
ATOM      4  N   UNL     1      37.732 -23.856 -14.740  0.00  0.00    -0.127 NA
ATOM      5  C   UNL     1      35.645 -24.401 -15.018  0.00  0.00    +0.208 A 
ATOM      6  C   UNL     1      37.294 -23.208 -15.797  0.00  0.00    +0.186 A 
ATOM      7  C   UNL     1      35.746 -22.241 -17.818  0.00  0.00    +0.101 C 
ATOM      8  C   UNL     1      37.893 -22.297 -16.689  0.00  0.00    +0.042 C 
ATOM      9  C   UNL     1      37.171 -21.793 -17.698  0.00  0.00    +0.024 C 
ENDROOT
BRANCH   7  10
ATOM     10  C   UNL     1      34.963 -21.674 -18.947  0.00  0.00    +0.019 C 
ATOM     11  C   UNL     1      33.588 -21.896 -19.023  0.00  0.00    +0.002 C 
ATOM     12  C   UNL     1      35.602 -20.917 -19.929  0.00  0.00    +0.002 C 
ATOM     13  C   UNL     1      32.854 -21.363 -20.081  0.00  0.00    +0.000 C 
ATOM     14  C   UNL     1      34.868 -20.384 -20.987  0.00  0.00    +0.000 C 
ATOM     15  C   UNL     1      33.493 -20.606 -21.064  0.00  0.00    +0.000 C 
ENDBRANCH   7  10
BRANCH   5  16
ATOM     16  C   UNL     1      34.279 -25.007 -14.876  0.00  0.00    +0.272 C 
BRANCH  16  17
ATOM     17  O   UNL     1      33.302 -23.970 -14.947  0.00  0.00    -0.467 OA
BRANCH  17  20
ATOM     18  N   UNL     1      29.411 -25.060 -14.017  0.00  0.00    -0.248 NA
ATOM     19  C   UNL     1      30.940 -23.846 -15.428  0.00  0.00    +0.030 C 
ATOM     20  C   UNL     1      32.014 -24.315 -14.659  0.00  0.00    +0.138 C 
ATOM     21  C   UNL     1      29.638 -24.248 -15.066  0.00  0.00    +0.066 C 
ATOM     22  C   UNL     1      31.140 -22.997 -16.530  0.00  0.00    +0.059 C 
ATOM     23  C   UNL     1      28.572 -23.781 -15.830  0.00  0.00    +0.109 C 
ATOM     24  C   UNL     1      31.784 -25.152 -13.577  0.00  0.00    +0.057 C 
ATOM     25  C   UNL     1      28.770 -22.937 -16.925  0.00  0.00    +0.118 C 
ATOM     26  C   UNL     1      30.056 -22.544 -17.276  0.00  0.00    +0.011 C 
ATOM     27  C   UNL     1      30.474 -25.492 -13.300  0.00  0.00    +0.102 C 
BRANCH  25  28
ATOM     28  O   UNL     1      27.703 -22.502 -17.649  0.00  0.00    -0.476 OA
ATOM     29  C   UNL     1      26.527 -22.145 -16.922  0.00  0.00    +0.252 C 
ENDBRANCH  25  28
ENDBRANCH  17  20
ENDBRANCH  16  17
ENDBRANCH   5  16
TORSDOF 5
ENDMDL
