MODEL 1
REMARK VINA RESULT:     -11.9      0.000      0.000
REMARK  Name = 9810927
REMARK  6 active torsions:
REMARK  status: ('A' for Active; 'I' for Inactive)
REMARK    1  A    between atoms: N_1  and  C_13
REMARK    2  A    between atoms: C_11  and  O_24
REMARK    3  A    between atoms: C_12  and  O_26
REMARK    4  A    between atoms: C_14  and  C_18
REMARK    5  A    between atoms: C_19  and  C_20
REMARK    6  A    between atoms: N_28  and  C_32
REMARK                            x       y       z     vdW  Elec       q    Type
REMARK                         _______ _______ _______ _____ _____    ______ ____
ROOT
ATOM      1  N   UNL     1      36.039 -23.421 -16.207  0.00  0.00    -0.247 N 
ATOM      2  N   UNL     1      37.123 -21.784 -17.267  0.00  0.00    -0.242 NA
ATOM      3  N   UNL     1      34.091 -23.626 -17.644  0.00  0.00    -0.228 NA
ATOM      4  N   UNL     1      34.186 -22.044 -19.500  0.00  0.00    -0.228 NA
ATOM      5  C   UNL     1      35.266 -23.088 -17.284  0.00  0.00    +0.152 C 
ATOM      6  C   UNL     1      37.143 -22.609 -16.240  0.00  0.00    +0.223 C 
ATOM      7  C   UNL     1      35.956 -22.073 -17.928  0.00  0.00    +0.140 C 
ATOM      8  C   UNL     1      35.374 -21.548 -19.077  0.00  0.00    +0.150 C 
ATOM      9  C   UNL     1      33.626 -23.038 -18.767  0.00  0.00    +0.253 C 
ATOM     10  N   UNL     1      36.004 -20.516 -19.794  0.00  0.00    -0.295 N 
ATOM     11  H   UNL     1      36.862 -20.230 -19.403  0.00  0.00    +0.154 HD
ENDROOT
BRANCH  10  14
ATOM     12 CL   UNL     1      34.525 -17.552 -24.701  0.00  0.00    -0.082 Cl
ATOM     13  F   UNL     1      37.751 -18.695 -20.969  0.00  0.00    -0.203 F 
ATOM     14  C   UNL     1      35.654 -19.809 -20.964  0.00  0.00    +0.077 C 
ATOM     15  C   UNL     1      36.551 -18.903 -21.528  0.00  0.00    +0.154 C 
ATOM     16  C   UNL     1      34.408 -20.017 -21.554  0.00  0.00    +0.018 C 
ATOM     17  C   UNL     1      36.202 -18.205 -22.684  0.00  0.00    +0.042 C 
ATOM     18  C   UNL     1      34.058 -19.319 -22.709  0.00  0.00    +0.013 C 
ATOM     19  C   UNL     1      34.955 -18.414 -23.275  0.00  0.00    +0.060 C 
ENDBRANCH  10  14
BRANCH   1  23
ATOM     20  O   UNL     1      34.332 -24.688 -15.140  0.00  0.00    -0.326 OA
ATOM     21  C   UNL     1      36.205 -24.072 -13.794  0.00  0.00    +0.187 C 
ATOM     22  C   UNL     1      34.921 -23.571 -13.160  0.00  0.00    +0.178 C 
ATOM     23  C   UNL     1      35.752 -24.446 -15.201  0.00  0.00    +0.225 C 
ATOM     24  C   UNL     1      33.875 -24.486 -13.783  0.00  0.00    +0.223 C 
BRANCH  24  28
ATOM     25  O   UNL     1      31.832 -24.072 -15.058  0.00  0.00    -0.421 OA
ATOM     26  N   UNL     1      31.718 -23.436 -12.916  0.00  0.00    -0.109 NA
ATOM     27  N   UNL     1      30.505 -23.145 -13.513  0.00  0.00    -0.112 NA
ATOM     28  C   UNL     1      32.452 -23.972 -13.855  0.00  0.00    +0.255 A 
ATOM     29  C   UNL     1      30.618 -23.533 -14.762  0.00  0.00    +0.225 A 
BRANCH  29  30
ATOM     30  C   UNL     1      29.638 -23.469 -15.854  0.00  0.00    +0.070 C 
ATOM     31  C   UNL     1      29.045 -24.880 -16.215  0.00  0.00    +0.009 C 
ATOM     32  C   UNL     1      30.248 -22.887 -17.181  0.00  0.00    +0.009 C 
ATOM     33  C   UNL     1      28.366 -22.573 -15.587  0.00  0.00    +0.009 C 
ENDBRANCH  29  30
ENDBRANCH  24  28
BRANCH  21  34
ATOM     34  O   UNL     1      36.654 -25.262 -13.148  0.00  0.00    -0.378 OA
ATOM     35  H   UNL     1      35.899 -25.704 -12.725  0.00  0.00    +0.211 HD
ENDBRANCH  21  34
BRANCH  22  36
ATOM     36  O   UNL     1      34.940 -23.668 -11.750  0.00  0.00    -0.379 OA
ATOM     37  H   UNL     1      34.050 -23.882 -11.428  0.00  0.00    +0.211 HD
ENDBRANCH  22  36
ENDBRANCH   1  23
TORSDOF 6
ENDMDL
MODEL 2
REMARK VINA RESULT:     -10.9      2.308      3.093
REMARK  Name = 9810927
REMARK  6 active torsions:
REMARK  status: ('A' for Active; 'I' for Inactive)
REMARK    1  A    between atoms: N_1  and  C_13
REMARK    2  A    between atoms: C_11  and  O_24
REMARK    3  A    between atoms: C_12  and  O_26
REMARK    4  A    between atoms: C_14  and  C_18
REMARK    5  A    between atoms: C_19  and  C_20
REMARK    6  A    between atoms: N_28  and  C_32
REMARK                            x       y       z     vdW  Elec       q    Type
REMARK                         _______ _______ _______ _____ _____    ______ ____
ROOT
ATOM      1  N   UNL     1      35.585 -22.094 -18.778  0.00  0.00    -0.247 N 
ATOM      2  N   UNL     1      36.713 -20.454 -19.787  0.00  0.00    -0.242 NA
ATOM      3  N   UNL     1      33.393 -21.759 -19.772  0.00  0.00    -0.228 NA
ATOM      4  N   UNL     1      33.404 -19.889 -21.340  0.00  0.00    -0.228 NA
ATOM      5  C   UNL     1      34.690 -21.464 -19.598  0.00  0.00    +0.152 C 
ATOM      6  C   UNL     1      36.785 -21.449 -18.927  0.00  0.00    +0.223 C 
ATOM      7  C   UNL     1      35.410 -20.453 -20.214  0.00  0.00    +0.140 C 
ATOM      8  C   UNL     1      34.719 -19.648 -21.115  0.00  0.00    +0.150 C 
ATOM      9  C   UNL     1      32.832 -20.915 -20.664  0.00  0.00    +0.253 C 
ATOM     10  N   UNL     1      35.370 -18.599 -21.787  0.00  0.00    -0.295 N 
ATOM     11  H   UNL     1      36.323 -18.511 -21.552  0.00  0.00    +0.154 HD
ENDROOT
BRANCH  10  14
ATOM     12 CL   UNL     1      33.530 -14.595 -25.740  0.00  0.00    -0.082 Cl
ATOM     13  F   UNL     1      34.666 -19.337 -24.376  0.00  0.00    -0.203 F 
ATOM     14  C   UNL     1      34.931 -17.646 -22.730  0.00  0.00    +0.077 C 
ATOM     15  C   UNL     1      34.585 -18.047 -24.020  0.00  0.00    +0.154 C 
ATOM     16  C   UNL     1      34.845 -16.302 -22.370  0.00  0.00    +0.018 C 
ATOM     17  C   UNL     1      34.152 -17.104 -24.951  0.00  0.00    +0.042 C 
ATOM     18  C   UNL     1      34.412 -15.358 -23.301  0.00  0.00    +0.013 C 
ATOM     19  C   UNL     1      34.065 -15.758 -24.591  0.00  0.00    +0.060 C 
ENDBRANCH  10  14
BRANCH   1  23
ATOM     20  O   UNL     1      33.939 -23.631 -18.012  0.00  0.00    -0.326 OA
ATOM     21  C   UNL     1      35.594 -22.959 -16.428  0.00  0.00    +0.187 C 
ATOM     22  C   UNL     1      34.207 -22.660 -15.891  0.00  0.00    +0.178 C 
ATOM     23  C   UNL     1      35.322 -23.238 -17.902  0.00  0.00    +0.225 C 
ATOM     24  C   UNL     1      33.334 -23.612 -16.698  0.00  0.00    +0.223 C 
BRANCH  24  28
ATOM     25  O   UNL     1      30.977 -23.986 -16.179  0.00  0.00    -0.421 OA
ATOM     26  N   UNL     1      31.343 -22.306 -17.610  0.00  0.00    -0.109 NA
ATOM     27  N   UNL     1      29.978 -22.406 -17.408  0.00  0.00    -0.112 NA
ATOM     28  C   UNL     1      31.876 -23.245 -16.874  0.00  0.00    +0.255 A 
ATOM     29  C   UNL     1      29.812 -23.399 -16.567  0.00  0.00    +0.225 A 
BRANCH  29  30
ATOM     30  C   UNL     1      28.573 -23.946 -15.999  0.00  0.00    +0.070 C 
ATOM     31  C   UNL     1      27.713 -24.723 -17.063  0.00  0.00    +0.009 C 
ATOM     32  C   UNL     1      27.639 -22.832 -15.399  0.00  0.00    +0.009 C 
ATOM     33  C   UNL     1      28.752 -24.978 -14.819  0.00  0.00    +0.009 C 
ENDBRANCH  29  30
ENDBRANCH  24  28
BRANCH  21  34
ATOM     34  O   UNL     1      36.111 -24.154 -15.845  0.00  0.00    -0.378 OA
ATOM     35  H   UNL     1      35.624 -24.352 -15.029  0.00  0.00    +0.211 HD
ENDBRANCH  21  34
BRANCH  22  36
ATOM     36  O   UNL     1      34.102 -22.893 -14.501  0.00  0.00    -0.379 OA
ATOM     37  H   UNL     1      33.652 -23.739 -14.348  0.00  0.00    +0.211 HD
ENDBRANCH  22  36
ENDBRANCH   1  23
TORSDOF 6
ENDMDL
MODEL 3
REMARK VINA RESULT:     -10.6     11.389     15.400
REMARK  Name = 9810927
REMARK  6 active torsions:
REMARK  status: ('A' for Active; 'I' for Inactive)
REMARK    1  A    between atoms: N_1  and  C_13
REMARK    2  A    between atoms: C_11  and  O_24
REMARK    3  A    between atoms: C_12  and  O_26
REMARK    4  A    between atoms: C_14  and  C_18
REMARK    5  A    between atoms: C_19  and  C_20
REMARK    6  A    between atoms: N_28  and  C_32
REMARK                            x       y       z     vdW  Elec       q    Type
REMARK                         _______ _______ _______ _____ _____    ______ ____
ROOT
ATOM      1  N   UNL     1      32.151 -10.278 -22.436  0.00  0.00    -0.247 N 
ATOM      2  N   UNL     1      33.296 -11.390 -23.994  0.00  0.00    -0.242 NA
ATOM      3  N   UNL     1      31.625 -12.106 -20.925  0.00  0.00    -0.228 NA
ATOM      4  N   UNL     1      32.533 -14.220 -21.739  0.00  0.00    -0.228 NA
ATOM      5  C   UNL     1      32.175 -11.584 -22.032  0.00  0.00    +0.152 C 
ATOM      6  C   UNL     1      32.838 -10.213 -23.620  0.00  0.00    +0.223 C 
ATOM      7  C   UNL     1      32.890 -12.255 -23.011  0.00  0.00    +0.140 C 
ATOM      8  C   UNL     1      33.062 -13.624 -22.835  0.00  0.00    +0.150 C 
ATOM      9  C   UNL     1      31.857 -13.435 -20.865  0.00  0.00    +0.253 C 
ATOM     10  N   UNL     1      33.775 -14.385 -23.778  0.00  0.00    -0.295 N 
ATOM     11  H   UNL     1      34.117 -13.855 -24.535  0.00  0.00    +0.154 HD
ENDROOT
BRANCH  10  14
ATOM     12 CL   UNL     1      35.127 -20.139 -24.117  0.00  0.00    -0.082 Cl
ATOM     13  F   UNL     1      35.140 -15.676 -21.725  0.00  0.00    -0.203 F 
ATOM     14  C   UNL     1      34.098 -15.756 -23.857  0.00  0.00    +0.077 C 
ATOM     15  C   UNL     1      34.783 -16.375 -22.812  0.00  0.00    +0.154 C 
ATOM     16  C   UNL     1      33.731 -16.492 -24.983  0.00  0.00    +0.018 C 
ATOM     17  C   UNL     1      35.101 -17.730 -22.892  0.00  0.00    +0.042 C 
ATOM     18  C   UNL     1      34.050 -17.847 -25.065  0.00  0.00    +0.013 C 
ATOM     19  C   UNL     1      34.734 -18.467 -24.019  0.00  0.00    +0.060 C 
ENDBRANCH  10  14
BRANCH   1  23
ATOM     20  O   UNL     1      31.410  -8.026 -22.636  0.00  0.00    -0.326 OA
ATOM     21  C   UNL     1      32.276  -8.681 -20.511  0.00  0.00    +0.187 C 
ATOM     22  C   UNL     1      33.043  -7.484 -21.039  0.00  0.00    +0.178 C 
ATOM     23  C   UNL     1      31.516  -9.154 -21.744  0.00  0.00    +0.225 C 
ATOM     24  C   UNL     1      32.060  -6.883 -22.034  0.00  0.00    +0.223 C 
BRANCH  24  28
ATOM     25  O   UNL     1      31.789  -5.134 -23.718  0.00  0.00    -0.421 OA
ATOM     26  N   UNL     1      33.827  -6.054 -23.675  0.00  0.00    -0.109 NA
ATOM     27  N   UNL     1      33.815  -5.090 -24.667  0.00  0.00    -0.112 NA
ATOM     28  C   UNL     1      32.628  -6.040 -23.156  0.00  0.00    +0.255 A 
ATOM     29  C   UNL     1      32.606  -4.580 -24.655  0.00  0.00    +0.225 A 
BRANCH  29  30
ATOM     30  C   UNL     1      32.031  -3.518 -25.491  0.00  0.00    +0.070 C 
ATOM     31  C   UNL     1      30.512  -3.258 -25.177  0.00  0.00    +0.009 C 
ATOM     32  C   UNL     1      32.119  -3.844 -27.028  0.00  0.00    +0.009 C 
ATOM     33  C   UNL     1      32.702  -2.096 -25.359  0.00  0.00    +0.009 C 
ENDBRANCH  29  30
ENDBRANCH  24  28
BRANCH  21  34
ATOM     34  O   UNL     1      31.319  -8.274 -19.535  0.00  0.00    -0.378 OA
ATOM     35  H   UNL     1      31.154  -9.006 -18.919  0.00  0.00    +0.211 HD
ENDBRANCH  21  34
BRANCH  22  36
ATOM     36  O   UNL     1      33.391  -6.570 -20.017  0.00  0.00    -0.379 OA
ATOM     37  H   UNL     1      32.691  -6.554 -19.346  0.00  0.00    +0.211 HD
ENDBRANCH  22  36
ENDBRANCH   1  23
TORSDOF 6
ENDMDL
MODEL 4
REMARK VINA RESULT:     -10.4     11.428     15.439
REMARK  Name = 9810927
REMARK  6 active torsions:
REMARK  status: ('A' for Active; 'I' for Inactive)
REMARK    1  A    between atoms: N_1  and  C_13
REMARK    2  A    between atoms: C_11  and  O_24
REMARK    3  A    between atoms: C_12  and  O_26
REMARK    4  A    between atoms: C_14  and  C_18
REMARK    5  A    between atoms: C_19  and  C_20
REMARK    6  A    between atoms: N_28  and  C_32
REMARK                            x       y       z     vdW  Elec       q    Type
REMARK                         _______ _______ _______ _____ _____    ______ ____
ROOT
ATOM      1  N   UNL     1      32.184 -10.281 -22.418  0.00  0.00    -0.247 N 
ATOM      2  N   UNL     1      33.360 -11.401 -23.949  0.00  0.00    -0.242 NA
ATOM      3  N   UNL     1      31.672 -12.093 -20.883  0.00  0.00    -0.228 NA
ATOM      4  N   UNL     1      32.619 -14.206 -21.654  0.00  0.00    -0.228 NA
ATOM      5  C   UNL     1      32.223 -11.580 -21.993  0.00  0.00    +0.152 C 
ATOM      6  C   UNL     1      32.880 -10.226 -23.598  0.00  0.00    +0.223 C 
ATOM      7  C   UNL     1      32.957 -12.256 -22.955  0.00  0.00    +0.140 C 
ATOM      8  C   UNL     1      33.148 -13.620 -22.756  0.00  0.00    +0.150 C 
ATOM      9  C   UNL     1      31.923 -13.418 -20.799  0.00  0.00    +0.253 C 
ATOM     10  N   UNL     1      33.881 -14.385 -23.680  0.00  0.00    -0.295 N 
ATOM     11  H   UNL     1      34.222 -13.862 -24.442  0.00  0.00    +0.154 HD
ENDROOT
BRANCH  10  14
ATOM     12 CL   UNL     1      35.327 -20.122 -23.897  0.00  0.00    -0.082 Cl
ATOM     13  F   UNL     1      33.177 -15.975 -25.853  0.00  0.00    -0.203 F 
ATOM     14  C   UNL     1      34.225 -15.752 -23.734  0.00  0.00    +0.077 C 
ATOM     15  C   UNL     1      33.858 -16.523 -24.836  0.00  0.00    +0.154 C 
ATOM     16  C   UNL     1      34.932 -16.332 -22.681  0.00  0.00    +0.018 C 
ATOM     17  C   UNL     1      34.199 -17.874 -24.887  0.00  0.00    +0.042 C 
ATOM     18  C   UNL     1      35.272 -17.683 -22.731  0.00  0.00    +0.013 C 
ATOM     19  C   UNL     1      34.907 -18.455 -23.834  0.00  0.00    +0.060 C 
ENDBRANCH  10  14
BRANCH   1  23
ATOM     20  O   UNL     1      31.426  -8.039 -22.656  0.00  0.00    -0.326 OA
ATOM     21  C   UNL     1      32.260  -8.663 -20.509  0.00  0.00    +0.187 C 
ATOM     22  C   UNL     1      33.025  -7.464 -21.036  0.00  0.00    +0.178 C 
ATOM     23  C   UNL     1      31.526  -9.156 -21.750  0.00  0.00    +0.225 C 
ATOM     24  C   UNL     1      32.054  -6.883 -22.055  0.00  0.00    +0.223 C 
BRANCH  24  28
ATOM     25  O   UNL     1      31.804  -5.137 -23.745  0.00  0.00    -0.421 OA
ATOM     26  N   UNL     1      33.836  -6.071 -23.689  0.00  0.00    -0.109 NA
ATOM     27  N   UNL     1      33.836  -5.109 -24.683  0.00  0.00    -0.112 NA
ATOM     28  C   UNL     1      32.634  -6.047 -23.176  0.00  0.00    +0.255 A 
ATOM     29  C   UNL     1      32.630  -4.591 -24.679  0.00  0.00    +0.225 A 
BRANCH  29  30
ATOM     30  C   UNL     1      32.067  -3.527 -25.521  0.00  0.00    +0.070 C 
ATOM     31  C   UNL     1      30.547  -3.259 -25.219  0.00  0.00    +0.009 C 
ATOM     32  C   UNL     1      32.166  -3.855 -27.056  0.00  0.00    +0.009 C 
ATOM     33  C   UNL     1      32.744  -2.108 -25.385  0.00  0.00    +0.009 C 
ENDBRANCH  29  30
ENDBRANCH  24  28
BRANCH  21  34
ATOM     34  O   UNL     1      31.281  -8.254 -19.555  0.00  0.00    -0.378 OA
ATOM     35  H   UNL     1      31.042  -7.327 -19.715  0.00  0.00    +0.211 HD
ENDBRANCH  21  34
BRANCH  22  36
ATOM     36  O   UNL     1      33.346  -6.536 -20.019  0.00  0.00    -0.379 OA
ATOM     37  H   UNL     1      34.189  -6.786 -19.608  0.00  0.00    +0.211 HD
ENDBRANCH  22  36
ENDBRANCH   1  23
TORSDOF 6
ENDMDL
MODEL 5
REMARK VINA RESULT:     -10.4      6.435      9.077
REMARK  Name = 9810927
REMARK  6 active torsions:
REMARK  status: ('A' for Active; 'I' for Inactive)
REMARK    1  A    between atoms: N_1  and  C_13
REMARK    2  A    between atoms: C_11  and  O_24
REMARK    3  A    between atoms: C_12  and  O_26
REMARK    4  A    between atoms: C_14  and  C_18
REMARK    5  A    between atoms: C_19  and  C_20
REMARK    6  A    between atoms: N_28  and  C_32
REMARK                            x       y       z     vdW  Elec       q    Type
REMARK                         _______ _______ _______ _____ _____    ______ ____
ROOT
ATOM      1  N   UNL     1      34.858 -16.553 -22.505  0.00  0.00    -0.247 N 
ATOM      2  N   UNL     1      34.155 -14.899 -21.183  0.00  0.00    -0.242 NA
ATOM      3  N   UNL     1      34.342 -15.594 -24.677  0.00  0.00    -0.228 NA
ATOM      4  N   UNL     1      33.345 -13.377 -24.455  0.00  0.00    -0.228 NA
ATOM      5  C   UNL     1      34.383 -15.576 -23.336  0.00  0.00    +0.152 C 
ATOM      6  C   UNL     1      34.697 -16.098 -21.222  0.00  0.00    +0.223 C 
ATOM      7  C   UNL     1      33.954 -14.561 -22.496  0.00  0.00    +0.140 C 
ATOM      8  C   UNL     1      33.418 -13.429 -23.103  0.00  0.00    +0.150 C 
ATOM      9  C   UNL     1      33.804 -14.448 -25.147  0.00  0.00    +0.253 C 
ATOM     10  N   UNL     1      32.958 -12.349 -22.328  0.00  0.00    -0.295 N 
ATOM     11  H   UNL     1      33.059 -12.488 -21.358  0.00  0.00    +0.154 HD
ENDROOT
BRANCH  10  14
ATOM     12 CL   UNL     1      30.545  -7.131 -23.743  0.00  0.00    -0.082 Cl
ATOM     13  F   UNL     1      30.617 -11.459 -21.115  0.00  0.00    -0.203 F 
ATOM     14  C   UNL     1      32.382 -11.106 -22.664  0.00  0.00    +0.077 C 
ATOM     15  C   UNL     1      31.208 -10.688 -22.038  0.00  0.00    +0.154 C 
ATOM     16  C   UNL     1      32.988 -10.296 -23.624  0.00  0.00    +0.018 C 
ATOM     17  C   UNL     1      30.640  -9.458 -22.372  0.00  0.00    +0.042 C 
ATOM     18  C   UNL     1      32.420  -9.068 -23.958  0.00  0.00    +0.013 C 
ATOM     19  C   UNL     1      31.247  -8.648 -23.332  0.00  0.00    +0.060 C 
ENDBRANCH  10  14
BRANCH   1  23
ATOM     20  O   UNL     1      34.499 -18.903 -22.596  0.00  0.00    -0.326 OA
ATOM     21  C   UNL     1      36.738 -18.177 -22.193  0.00  0.00    +0.187 C 
ATOM     22  C   UNL     1      36.282 -19.102 -21.080  0.00  0.00    +0.178 C 
ATOM     23  C   UNL     1      35.429 -17.843 -22.899  0.00  0.00    +0.225 C 
ATOM     24  C   UNL     1      35.150 -19.874 -21.744  0.00  0.00    +0.223 C 
BRANCH  24  28
ATOM     25  O   UNL     1      34.491 -21.462 -20.008  0.00  0.00    -0.421 OA
ATOM     26  N   UNL     1      32.820 -20.173 -20.750  0.00  0.00    -0.109 NA
ATOM     27  N   UNL     1      32.310 -21.017 -19.780  0.00  0.00    -0.112 NA
ATOM     28  C   UNL     1      34.089 -20.472 -20.844  0.00  0.00    +0.255 A 
ATOM     29  C   UNL     1      33.320 -21.750 -19.376  0.00  0.00    +0.225 A 
BRANCH  29  30
ATOM     30  C   UNL     1      33.360 -22.809 -18.359  0.00  0.00    +0.070 C 
ATOM     31  C   UNL     1      33.535 -24.241 -18.986  0.00  0.00    +0.009 C 
ATOM     32  C   UNL     1      32.051 -22.860 -17.488  0.00  0.00    +0.009 C 
ATOM     33  C   UNL     1      34.525 -22.706 -17.300  0.00  0.00    +0.009 C 
ENDBRANCH  29  30
ENDBRANCH  24  28
BRANCH  21  34
ATOM     34  O   UNL     1      37.568 -18.878 -23.118  0.00  0.00    -0.378 OA
ATOM     35  H   UNL     1      38.352 -18.342 -23.318  0.00  0.00    +0.211 HD
ENDBRANCH  21  34
BRANCH  22  36
ATOM     36  O   UNL     1      37.314 -19.955 -20.627  0.00  0.00    -0.379 OA
ATOM     37  H   UNL     1      37.978 -19.434 -20.148  0.00  0.00    +0.211 HD
ENDBRANCH  22  36
ENDBRANCH   1  23
TORSDOF 6
ENDMDL
MODEL 6
REMARK VINA RESULT:     -10.3      5.768     10.198
REMARK  Name = 9810927
REMARK  6 active torsions:
REMARK  status: ('A' for Active; 'I' for Inactive)
REMARK    1  A    between atoms: N_1  and  C_13
REMARK    2  A    between atoms: C_11  and  O_24
REMARK    3  A    between atoms: C_12  and  O_26
REMARK    4  A    between atoms: C_14  and  C_18
REMARK    5  A    between atoms: C_19  and  C_20
REMARK    6  A    between atoms: N_28  and  C_32
REMARK                            x       y       z     vdW  Elec       q    Type
REMARK                         _______ _______ _______ _____ _____    ______ ____
ROOT
ATOM      1  N   UNL     1      34.126 -20.212 -21.503  0.00  0.00    -0.247 N 
ATOM      2  N   UNL     1      32.165 -20.601 -20.514  0.00  0.00    -0.242 NA
ATOM      3  N   UNL     1      35.591 -21.462 -20.022  0.00  0.00    -0.228 NA
ATOM      4  N   UNL     1      34.335 -22.526 -18.220  0.00  0.00    -0.228 NA
ATOM      5  C   UNL     1      34.396 -21.004 -20.421  0.00  0.00    +0.152 C 
ATOM      6  C   UNL     1      32.773 -19.998 -21.514  0.00  0.00    +0.223 C 
ATOM      7  C   UNL     1      33.167 -21.234 -19.824  0.00  0.00    +0.140 C 
ATOM      8  C   UNL     1      33.162 -22.028 -18.681  0.00  0.00    +0.150 C 
ATOM      9  C   UNL     1      35.461 -22.216 -18.909  0.00  0.00    +0.253 C 
ATOM     10  N   UNL     1      31.960 -22.315 -18.010  0.00  0.00    -0.295 N 
ATOM     11  H   UNL     1      31.168 -21.906 -18.429  0.00  0.00    +0.154 HD
ENDROOT
BRANCH  10  14
ATOM     12 CL   UNL     1      30.723 -25.491 -13.170  0.00  0.00    -0.082 Cl
ATOM     13  F   UNL     1      29.335 -22.754 -17.198  0.00  0.00    -0.203 F 
ATOM     14  C   UNL     1      31.663 -23.071 -16.857  0.00  0.00    +0.077 C 
ATOM     15  C   UNL     1      30.338 -23.274 -16.476  0.00  0.00    +0.154 C 
ATOM     16  C   UNL     1      32.699 -23.616 -16.098  0.00  0.00    +0.018 C 
ATOM     17  C   UNL     1      30.047 -24.022 -15.336  0.00  0.00    +0.042 C 
ATOM     18  C   UNL     1      32.408 -24.363 -14.958  0.00  0.00    +0.013 C 
ATOM     19  C   UNL     1      31.083 -24.568 -14.576  0.00  0.00    +0.060 C 
ENDBRANCH  10  14
BRANCH   1  23
ATOM     20  O   UNL     1      35.399 -18.312 -22.157  0.00  0.00    -0.326 OA
ATOM     21  C   UNL     1      34.598 -19.718 -23.912  0.00  0.00    +0.187 C 
ATOM     22  C   UNL     1      34.119 -18.295 -24.126  0.00  0.00    +0.178 C 
ATOM     23  C   UNL     1      35.092 -19.685 -22.470  0.00  0.00    +0.225 C 
ATOM     24  C   UNL     1      35.126 -17.489 -23.315  0.00  0.00    +0.223 C 
BRANCH  24  28
ATOM     25  O   UNL     1      34.132 -15.296 -23.728  0.00  0.00    -0.421 OA
ATOM     26  N   UNL     1      34.773 -15.626 -21.610  0.00  0.00    -0.109 NA
ATOM     27  N   UNL     1      34.234 -14.355 -21.700  0.00  0.00    -0.112 NA
ATOM     28  C   UNL     1      34.690 -16.129 -22.813  0.00  0.00    +0.255 A 
ATOM     29  C   UNL     1      33.874 -14.207 -22.954  0.00  0.00    +0.225 A 
BRANCH  29  30
ATOM     30  C   UNL     1      33.244 -13.057 -23.616  0.00  0.00    +0.070 C 
ATOM     31  C   UNL     1      32.042 -12.469 -22.790  0.00  0.00    +0.009 C 
ATOM     32  C   UNL     1      32.676 -13.415 -25.038  0.00  0.00    +0.009 C 
ATOM     33  C   UNL     1      34.180 -11.813 -23.876  0.00  0.00    +0.009 C 
ENDBRANCH  29  30
ENDBRANCH  24  28
BRANCH  21  34
ATOM     34  O   UNL     1      35.716 -20.003 -24.751  0.00  0.00    -0.378 OA
ATOM     35  H   UNL     1      35.509 -19.746 -25.664  0.00  0.00    +0.211 HD
ENDBRANCH  21  34
BRANCH  22  36
ATOM     36  O   UNL     1      34.116 -17.924 -25.490  0.00  0.00    -0.379 OA
ATOM     37  H   UNL     1      34.976 -17.537 -25.722  0.00  0.00    +0.211 HD
ENDBRANCH  22  36
ENDBRANCH   1  23
TORSDOF 6
ENDMDL
