MODEL 1
REMARK VINA RESULT:     -12.0      0.000      0.000
REMARK  Name = 23586146
REMARK  5 active torsions:
REMARK  status: ('A' for Active; 'I' for Inactive)
REMARK    1  A    between atoms: N_1  and  C_12
REMARK    2  A    between atoms: C_8  and  N_18
REMARK    3  A    between atoms: N_18  and  C_20
REMARK    4  A    between atoms: C_23  and  S_26
REMARK    5  A    between atoms: S_26  and  N_29
REMARK                            x       y       z     vdW  Elec       q    Type
REMARK                         _______ _______ _______ _____ _____    ______ ____
ROOT
ATOM      1  N   UNL     1      35.380 -24.472 -14.564  0.00  0.00    -0.309 N 
ATOM      2  N   UNL     1      33.141 -23.967 -14.520  0.00  0.00    -0.321 NA
ATOM      3  N   UNL     1      32.053 -23.341 -16.568  0.00  0.00    -0.106 N 
ATOM      4  N   UNL     1      30.809 -22.980 -16.983  0.00  0.00    -0.139 NA
ATOM      5  N   UNL     1      30.798 -23.389 -14.743  0.00  0.00    -0.145 NA
ATOM      6  C   UNL     1      34.256 -24.098 -15.199  0.00  0.00    +0.196 C 
ATOM      7  C   UNL     1      34.344 -23.845 -16.680  0.00  0.00    +0.081 C 
ATOM      8  C   UNL     1      33.225 -23.472 -17.317  0.00  0.00    +0.140 C 
ATOM      9  C   UNL     1      32.022 -23.587 -15.194  0.00  0.00    +0.176 C 
ATOM     10  C   UNL     1      30.108 -23.027 -15.854  0.00  0.00    +0.230 C 
ATOM     11  H   UNL     1      36.211 -24.550 -15.085  0.00  0.00    +0.149 HD
ENDROOT
BRANCH   1  12
ATOM     12  C   UNL     1      35.420 -24.765 -13.144  0.00  0.00    +0.071 C 
ATOM     13  C   UNL     1      36.460 -25.854 -12.860  0.00  0.00    +0.020 C 
ATOM     14  C   UNL     1      35.714 -23.487 -12.352  0.00  0.00    +0.020 C 
ATOM     15  C   UNL     1      37.897 -25.359 -13.032  0.00  0.00    +0.002 C 
ATOM     16  C   UNL     1      37.153 -23.002 -12.525  0.00  0.00    +0.002 C 
ATOM     17  C   UNL     1      38.161 -24.103 -12.211  0.00  0.00    +0.000 C 
ENDBRANCH   1  12
BRANCH   8  18
ATOM     18  N   UNL     1      33.155 -23.209 -18.655  0.00  0.00    -0.299 N 
ATOM     19  H   UNL     1      32.605 -23.829 -19.186  0.00  0.00    +0.153 HD
BRANCH  18  20
ATOM     20  C   UNL     1      33.763 -22.169 -19.368  0.00  0.00    +0.049 C 
ATOM     21  C   UNL     1      32.978 -21.233 -20.042  0.00  0.00    +0.016 C 
ATOM     22  C   UNL     1      35.153 -22.069 -19.405  0.00  0.00    +0.016 C 
ATOM     23  C   UNL     1      34.976 -20.097 -20.789  0.00  0.00    +0.122 C 
ATOM     24  C   UNL     1      33.584 -20.196 -20.752  0.00  0.00    +0.021 C 
ATOM     25  C   UNL     1      35.759 -21.033 -20.115  0.00  0.00    +0.021 C 
BRANCH  23  26
ATOM     26  S   UNL     1      35.733 -18.800 -21.678  0.00  0.00    +0.057 S 
ATOM     27  O   UNL     1      35.584 -19.070 -23.101  0.00  0.00    -0.153 OA
ATOM     28  O   UNL     1      35.272 -17.531 -21.130  0.00  0.00    -0.153 OA
BRANCH  26  29
ATOM     29  N   UNL     1      37.372 -19.021 -21.245  0.00  0.00    -0.203 NA
ATOM     30  H   UNL     1      37.960 -18.906 -22.068  0.00  0.00    +0.144 HD
ATOM     31  H   UNL     1      37.499 -19.959 -20.864  0.00  0.00    +0.144 HD
ENDBRANCH  26  29
ENDBRANCH  23  26
ENDBRANCH  18  20
ENDBRANCH   8  18
TORSDOF 5
ENDMDL
MODEL 2
REMARK VINA RESULT:     -10.1      1.696      5.004
REMARK  Name = 23586146
REMARK  5 active torsions:
REMARK  status: ('A' for Active; 'I' for Inactive)
REMARK    1  A    between atoms: N_1  and  C_12
REMARK    2  A    between atoms: C_8  and  N_18
REMARK    3  A    between atoms: N_18  and  C_20
REMARK    4  A    between atoms: C_23  and  S_26
REMARK    5  A    between atoms: S_26  and  N_29
REMARK                            x       y       z     vdW  Elec       q    Type
REMARK                         _______ _______ _______ _____ _____    ______ ____
ROOT
ATOM      1  N   UNL     1      31.085 -23.667 -16.530  0.00  0.00    -0.309 N 
ATOM      2  N   UNL     1      32.986 -23.573 -15.247  0.00  0.00    -0.321 NA
ATOM      3  N   UNL     1      35.085 -23.106 -16.317  0.00  0.00    -0.106 N 
ATOM      4  N   UNL     1      36.391 -22.964 -15.963  0.00  0.00    -0.139 NA
ATOM      5  N   UNL     1      35.128 -23.421 -14.125  0.00  0.00    -0.145 NA
ATOM      6  C   UNL     1      32.411 -23.486 -16.423  0.00  0.00    +0.196 C 
ATOM      7  C   UNL     1      33.177 -23.188 -17.684  0.00  0.00    +0.081 C 
ATOM      8  C   UNL     1      34.502 -23.007 -17.583  0.00  0.00    +0.140 C 
ATOM      9  C   UNL     1      34.331 -23.385 -15.175  0.00  0.00    +0.176 C 
ATOM     10  C   UNL     1      36.352 -23.162 -14.649  0.00  0.00    +0.230 C 
ATOM     11  H   UNL     1      30.672 -23.614 -17.422  0.00  0.00    +0.149 HD
ENDROOT
BRANCH   1  12
ATOM     12  C   UNL     1      30.234 -23.939 -15.386  0.00  0.00    +0.071 C 
ATOM     13  C   UNL     1      29.510 -22.660 -14.954  0.00  0.00    +0.020 C 
ATOM     14  C   UNL     1      29.244 -25.059 -15.722  0.00  0.00    +0.020 C 
ATOM     15  C   UNL     1      28.429 -22.228 -15.946  0.00  0.00    +0.002 C 
ATOM     16  C   UNL     1      28.164 -24.619 -16.710  0.00  0.00    +0.002 C 
ATOM     17  C   UNL     1      27.447 -23.358 -16.237  0.00  0.00    +0.000 C 
ENDBRANCH   1  12
BRANCH   8  18
ATOM     18  N   UNL     1      35.323 -22.731 -18.638  0.00  0.00    -0.299 N 
ATOM     19  H   UNL     1      36.051 -23.374 -18.795  0.00  0.00    +0.153 HD
BRANCH  18  20
ATOM     20  C   UNL     1      35.261 -21.652 -19.527  0.00  0.00    +0.049 C 
ATOM     21  C   UNL     1      36.427 -20.972 -19.882  0.00  0.00    +0.016 C 
ATOM     22  C   UNL     1      34.034 -21.254 -20.057  0.00  0.00    +0.016 C 
ATOM     23  C   UNL     1      35.136 -19.499 -21.298  0.00  0.00    +0.122 C 
ATOM     24  C   UNL     1      36.365 -19.897 -20.768  0.00  0.00    +0.021 C 
ATOM     25  C   UNL     1      33.972 -20.179 -20.943  0.00  0.00    +0.021 C 
BRANCH  23  26
ATOM     26  S   UNL     1      35.060 -18.153 -22.406  0.00  0.00    +0.057 S 
ATOM     27  O   UNL     1      34.101 -18.475 -23.454  0.00  0.00    -0.153 OA
ATOM     28  O   UNL     1      34.905 -16.927 -21.636  0.00  0.00    -0.153 OA
BRANCH  26  29
ATOM     29  N   UNL     1      36.634 -18.188 -23.071  0.00  0.00    -0.203 NA
ATOM     30  H   UNL     1      37.293 -17.787 -22.406  0.00  0.00    +0.144 HD
ATOM     31  H   UNL     1      36.650 -17.646 -23.936  0.00  0.00    +0.144 HD
ENDBRANCH  26  29
ENDBRANCH  23  26
ENDBRANCH  18  20
ENDBRANCH   8  18
TORSDOF 5
ENDMDL
MODEL 3
REMARK VINA RESULT:      -9.2      9.118     14.299
REMARK  Name = 23586146
REMARK  5 active torsions:
REMARK  status: ('A' for Active; 'I' for Inactive)
REMARK    1  A    between atoms: N_1  and  C_12
REMARK    2  A    between atoms: C_8  and  N_18
REMARK    3  A    between atoms: N_18  and  C_20
REMARK    4  A    between atoms: C_23  and  S_26
REMARK    5  A    between atoms: S_26  and  N_29
REMARK                            x       y       z     vdW  Elec       q    Type
REMARK                         _______ _______ _______ _____ _____    ______ ____
ROOT
ATOM      1  N   UNL     1      33.077  -9.726 -23.265  0.00  0.00    -0.309 N 
ATOM      2  N   UNL     1      34.079 -10.077 -25.301  0.00  0.00    -0.321 NA
ATOM      3  N   UNL     1      34.063 -12.290 -26.235  0.00  0.00    -0.106 N 
ATOM      4  N   UNL     1      34.513 -12.918 -27.354  0.00  0.00    -0.139 NA
ATOM      5  N   UNL     1      35.062 -10.709 -27.423  0.00  0.00    -0.145 NA
ATOM      6  C   UNL     1      33.420 -10.550 -24.269  0.00  0.00    +0.196 C 
ATOM      7  C   UNL     1      33.022 -11.996 -24.150  0.00  0.00    +0.081 C 
ATOM      8  C   UNL     1      33.363 -12.823 -25.150  0.00  0.00    +0.140 C 
ATOM      9  C   UNL     1      34.410 -10.939 -26.300  0.00  0.00    +0.176 C 
ATOM     10  C   UNL     1      35.097 -11.927 -28.020  0.00  0.00    +0.230 C 
ATOM     11  H   UNL     1      32.597 -10.100 -22.492  0.00  0.00    +0.149 HD
ENDROOT
BRANCH   1  12
ATOM     12  C   UNL     1      33.384  -8.308 -23.272  0.00  0.00    +0.071 C 
ATOM     13  C   UNL     1      32.624  -7.611 -24.405  0.00  0.00    +0.020 C 
ATOM     14  C   UNL     1      33.051  -7.692 -21.910  0.00  0.00    +0.020 C 
ATOM     15  C   UNL     1      31.121  -7.518 -24.141  0.00  0.00    +0.002 C 
ATOM     16  C   UNL     1      31.547  -7.598 -21.654  0.00  0.00    +0.002 C 
ATOM     17  C   UNL     1      30.826  -6.877 -22.789  0.00  0.00    +0.000 C 
ENDBRANCH   1  12
BRANCH   8  18
ATOM     18  N   UNL     1      33.069 -14.156 -25.178  0.00  0.00    -0.299 N 
ATOM     19  H   UNL     1      32.324 -14.419 -25.764  0.00  0.00    +0.153 HD
BRANCH  18  20
ATOM     20  C   UNL     1      33.694 -15.196 -24.480  0.00  0.00    +0.049 C 
ATOM     21  C   UNL     1      33.834 -16.450 -25.076  0.00  0.00    +0.016 C 
ATOM     22  C   UNL     1      34.176 -14.980 -23.190  0.00  0.00    +0.016 C 
ATOM     23  C   UNL     1      34.939 -17.270 -23.090  0.00  0.00    +0.122 C 
ATOM     24  C   UNL     1      34.457 -17.487 -24.381  0.00  0.00    +0.021 C 
ATOM     25  C   UNL     1      34.798 -16.017 -22.495  0.00  0.00    +0.021 C 
BRANCH  23  26
ATOM     26  S   UNL     1      35.718 -18.568 -22.221  0.00  0.00    +0.057 S 
ATOM     27  O   UNL     1      35.860 -18.168 -20.828  0.00  0.00    -0.153 OA
ATOM     28  O   UNL     1      35.044 -19.816 -22.550  0.00  0.00    -0.153 OA
BRANCH  26  29
ATOM     29  N   UNL     1      37.262 -18.570 -22.953  0.00  0.00    -0.203 NA
ATOM     30  H   UNL     1      37.981 -18.601 -22.232  0.00  0.00    +0.144 HD
ATOM     31  H   UNL     1      37.376 -17.722 -23.510  0.00  0.00    +0.144 HD
ENDBRANCH  26  29
ENDBRANCH  23  26
ENDBRANCH  18  20
ENDBRANCH   8  18
TORSDOF 5
ENDMDL
MODEL 4
REMARK VINA RESULT:      -9.1      4.648      8.580
REMARK  Name = 23586146
REMARK  5 active torsions:
REMARK  status: ('A' for Active; 'I' for Inactive)
REMARK    1  A    between atoms: N_1  and  C_12
REMARK    2  A    between atoms: C_8  and  N_18
REMARK    3  A    between atoms: N_18  and  C_20
REMARK    4  A    between atoms: C_23  and  S_26
REMARK    5  A    between atoms: S_26  and  N_29
REMARK                            x       y       z     vdW  Elec       q    Type
REMARK                         _______ _______ _______ _____ _____    ______ ____
ROOT
ATOM      1  N   UNL     1      35.560 -20.168 -20.880  0.00  0.00    -0.309 N 
ATOM      2  N   UNL     1      34.112 -21.530 -19.731  0.00  0.00    -0.321 NA
ATOM      3  N   UNL     1      34.931 -22.752 -17.832  0.00  0.00    -0.106 N 
ATOM      4  N   UNL     1      34.450 -23.627 -16.909  0.00  0.00    -0.139 NA
ATOM      5  N   UNL     1      32.796 -23.028 -18.355  0.00  0.00    -0.145 NA
ATOM      6  C   UNL     1      35.316 -21.028 -19.879  0.00  0.00    +0.196 C 
ATOM      7  C   UNL     1      36.461 -21.376 -18.966  0.00  0.00    +0.081 C 
ATOM      8  C   UNL     1      36.222 -22.236 -17.964  0.00  0.00    +0.140 C 
ATOM      9  C   UNL     1      33.901 -22.399 -18.706  0.00  0.00    +0.176 C 
ATOM     10  C   UNL     1      33.177 -23.752 -17.273  0.00  0.00    +0.230 C 
ATOM     11  H   UNL     1      36.471 -19.813 -20.986  0.00  0.00    +0.149 HD
ENDROOT
BRANCH   1  12
ATOM     12  C   UNL     1      34.535 -19.738 -21.814  0.00  0.00    +0.071 C 
ATOM     13  C   UNL     1      33.965 -18.383 -21.382  0.00  0.00    +0.020 C 
ATOM     14  C   UNL     1      35.109 -19.679 -23.233  0.00  0.00    +0.020 C 
ATOM     15  C   UNL     1      34.954 -17.234 -21.582  0.00  0.00    +0.002 C 
ATOM     16  C   UNL     1      36.093 -18.525 -23.427  0.00  0.00    +0.002 C 
ATOM     17  C   UNL     1      35.484 -17.190 -23.011  0.00  0.00    +0.000 C 
ENDBRANCH   1  12
BRANCH   8  18
ATOM     18  N   UNL     1      37.162 -22.642 -17.060  0.00  0.00    -0.299 N 
ATOM     19  H   UNL     1      38.100 -22.503 -17.325  0.00  0.00    +0.153 HD
BRANCH  18  20
ATOM     20  C   UNL     1      36.963 -23.229 -15.806  0.00  0.00    +0.049 C 
ATOM     21  C   UNL     1      37.495 -24.490 -15.534  0.00  0.00    +0.016 C 
ATOM     22  C   UNL     1      36.233 -22.555 -14.828  0.00  0.00    +0.016 C 
ATOM     23  C   UNL     1      36.566 -24.400 -13.305  0.00  0.00    +0.122 C 
ATOM     24  C   UNL     1      37.297 -25.075 -14.283  0.00  0.00    +0.021 C 
ATOM     25  C   UNL     1      36.035 -23.140 -13.578  0.00  0.00    +0.021 C 
BRANCH  23  26
ATOM     26  S   UNL     1      36.318 -25.133 -11.740  0.00  0.00    +0.057 S 
ATOM     27  O   UNL     1      36.795 -26.508 -11.797  0.00  0.00    -0.153 OA
ATOM     28  O   UNL     1      36.832 -24.231 -10.719  0.00  0.00    -0.153 OA
BRANCH  26  29
ATOM     29  N   UNL     1      34.611 -25.146 -11.652  0.00  0.00    -0.203 NA
ATOM     30  H   UNL     1      34.242 -25.841 -12.299  0.00  0.00    +0.144 HD
ATOM     31  H   UNL     1      34.251 -24.224 -11.902  0.00  0.00    +0.144 HD
ENDBRANCH  26  29
ENDBRANCH  23  26
ENDBRANCH  18  20
ENDBRANCH   8  18
TORSDOF 5
ENDMDL
