MODEL 1
REMARK VINA RESULT:     -13.1      0.000      0.000
REMARK  Name = 24755471
REMARK  13 active torsions:
REMARK  status: ('A' for Active; 'I' for Inactive)
REMARK    1  A    between atoms: C_1  and  S_11
REMARK    2  A    between atoms: C_9  and  O_27
REMARK    3  A    between atoms: S_11  and  N_14
REMARK    4  A    between atoms: N_14  and  C_16
REMARK    5  A    between atoms: C_16  and  C_18
REMARK    6  A    between atoms: C_16  and  C_21
REMARK    7  A    between atoms: C_18  and  O_19
REMARK    8  A    between atoms: C_21  and  C_22
REMARK    9  A    between atoms: C_22  and  C_24
REMARK   10  A    between atoms: C_24  and  O_25
REMARK   11  A    between atoms: O_27  and  C_28
REMARK   12  A    between atoms: C_28  and  C_29
REMARK   13  A    between atoms: C_34  and  C_36
REMARK                            x       y       z     vdW  Elec       q    Type
REMARK                         _______ _______ _______ _____ _____    ______ ____
ROOT
ATOM      1  C   UNL     1      35.934 -23.313 -15.743  0.00  0.00    +0.122 C 
ATOM      2  C   UNL     1      34.867 -22.509 -17.777  0.00  0.00    +0.002 C 
ATOM      3  C   UNL     1      34.806 -23.203 -16.558  0.00  0.00    +0.020 C 
ATOM      4  C   UNL     1      36.089 -21.916 -18.176  0.00  0.00    +0.003 C 
ATOM      5  C   UNL     1      37.135 -22.731 -16.136  0.00  0.00    +0.020 C 
ATOM      6  C   UNL     1      37.215 -22.037 -17.344  0.00  0.00    +0.001 C 
ATOM      7  C   UNL     1      36.151 -21.222 -19.395  0.00  0.00    +0.037 C 
ATOM      8  C   UNL     1      33.742 -22.389 -18.610  0.00  0.00    +0.003 C 
ATOM      9  C   UNL     1      35.023 -21.113 -20.209  0.00  0.00    +0.139 C 
ATOM     10  C   UNL     1      33.821 -21.695 -19.818  0.00  0.00    +0.037 C 
ENDROOT
BRANCH   1  11
ATOM     11  S   UNL     1      35.835 -24.192 -14.213  0.00  0.00    +0.061 S 
ATOM     12  O   UNL     1      34.558 -23.881 -13.602  0.00  0.00    -0.153 OA
ATOM     13  O   UNL     1      36.196 -25.568 -14.492  0.00  0.00    -0.153 OA
BRANCH  11  14
ATOM     14  N   UNL     1      37.083 -23.467 -13.313  0.00  0.00    -0.170 NA
ATOM     15  H   UNL     1      36.685 -22.637 -12.876  0.00  0.00    +0.149 HD
BRANCH  14  16
ATOM     16  C   UNL     1      37.761 -24.232 -12.243  0.00  0.00    +0.174 C 
BRANCH  16  18
ATOM     17  O   UNL     1      36.474 -23.943 -10.200  0.00  0.00    -0.249 OA
ATOM     18  C   UNL     1      36.729 -24.598 -11.203  0.00  0.00    +0.330 C 
BRANCH  18  19
ATOM     19  O   UNL     1      36.077 -25.749 -11.511  0.00  0.00    -0.479 OA
ATOM     20  H   UNL     1      36.299 -26.545 -11.071  0.00  0.00    +0.295 HD
ENDBRANCH  18  19
ENDBRANCH  16  18
BRANCH  16  21
ATOM     21  C   UNL     1      38.519 -25.425 -12.837  0.00  0.00    +0.040 C 
BRANCH  21  22
ATOM     22  C   UNL     1      39.769 -25.097 -13.659  0.00  0.00    +0.111 C 
BRANCH  22  24
ATOM     23  O   UNL     1      40.954 -26.182 -15.463  0.00  0.00    -0.250 OA
ATOM     24  C   UNL     1      39.888 -25.895 -14.933  0.00  0.00    +0.314 C 
BRANCH  24  25
ATOM     25  O   UNL     1      38.683 -26.252 -15.445  0.00  0.00    -0.480 OA
ATOM     26  H   UNL     1      37.937 -25.701 -15.310  0.00  0.00    +0.295 HD
ENDBRANCH  24  25
ENDBRANCH  22  24
ENDBRANCH  21  22
ENDBRANCH  16  21
ENDBRANCH  14  16
ENDBRANCH  11  14
ENDBRANCH   1  11
BRANCH   9  27
ATOM     27  O   UNL     1      35.098 -20.434 -21.387  0.00  0.00    -0.471 OA
BRANCH  27  28
ATOM     28  C   UNL     1      35.853 -19.224 -21.392  0.00  0.00    +0.232 C 
BRANCH  28  29
ATOM     29  C   UNL     1      35.390 -18.362 -22.530  0.00  0.00    +0.021 C 
ATOM     30  C   UNL     1      34.973 -18.950 -23.724  0.00  0.00    -0.000 C 
ATOM     31  C   UNL     1      35.378 -16.974 -22.395  0.00  0.00    -0.000 C 
ATOM     32  C   UNL     1      34.544 -18.150 -24.782  0.00  0.00    +0.010 C 
ATOM     33  C   UNL     1      34.949 -16.174 -23.453  0.00  0.00    +0.010 C 
ATOM     34  C   UNL     1      34.532 -16.762 -24.647  0.00  0.00    +0.068 C 
BRANCH  34  36
ATOM     35  N   UNL     1      33.733 -15.276 -26.613  0.00  0.00    -0.191 NA
ATOM     36  C   UNL     1      34.091 -15.942 -25.732  0.00  0.00    +0.100 C 
ENDBRANCH  34  36
ENDBRANCH  28  29
ENDBRANCH  27  28
ENDBRANCH   9  27
TORSDOF 13
ENDMDL
MODEL 2
REMARK VINA RESULT:     -13.0      0.908      2.644
REMARK  Name = 24755471
REMARK  13 active torsions:
REMARK  status: ('A' for Active; 'I' for Inactive)
REMARK    1  A    between atoms: C_1  and  S_11
REMARK    2  A    between atoms: C_9  and  O_27
REMARK    3  A    between atoms: S_11  and  N_14
REMARK    4  A    between atoms: N_14  and  C_16
REMARK    5  A    between atoms: C_16  and  C_18
REMARK    6  A    between atoms: C_16  and  C_21
REMARK    7  A    between atoms: C_18  and  O_19
REMARK    8  A    between atoms: C_21  and  C_22
REMARK    9  A    between atoms: C_22  and  C_24
REMARK   10  A    between atoms: C_24  and  O_25
REMARK   11  A    between atoms: O_27  and  C_28
REMARK   12  A    between atoms: C_28  and  C_29
REMARK   13  A    between atoms: C_34  and  C_36
REMARK                            x       y       z     vdW  Elec       q    Type
REMARK                         _______ _______ _______ _____ _____    ______ ____
ROOT
ATOM      1  C   UNL     1      35.648 -23.241 -16.451  0.00  0.00    +0.122 C 
ATOM      2  C   UNL     1      34.533 -22.235 -18.366  0.00  0.00    +0.002 C 
ATOM      3  C   UNL     1      34.494 -23.026 -17.207  0.00  0.00    +0.020 C 
ATOM      4  C   UNL     1      35.760 -21.652 -18.765  0.00  0.00    +0.003 C 
ATOM      5  C   UNL     1      36.854 -22.669 -16.845  0.00  0.00    +0.020 C 
ATOM      6  C   UNL     1      36.911 -21.880 -17.994  0.00  0.00    +0.001 C 
ATOM      7  C   UNL     1      35.799 -20.861 -19.925  0.00  0.00    +0.037 C 
ATOM      8  C   UNL     1      33.381 -22.008 -19.138  0.00  0.00    +0.003 C 
ATOM      9  C   UNL     1      34.645 -20.646 -20.679  0.00  0.00    +0.139 C 
ATOM     10  C   UNL     1      33.439 -21.218 -20.287  0.00  0.00    +0.037 C 
ENDROOT
BRANCH   1  11
ATOM     11  S   UNL     1      35.576 -24.241 -14.995  0.00  0.00    +0.061 S 
ATOM     12  O   UNL     1      34.483 -23.758 -14.175  0.00  0.00    -0.153 OA
ATOM     13  O   UNL     1      35.607 -25.624 -15.431  0.00  0.00    -0.153 OA
BRANCH  11  14
ATOM     14  N   UNL     1      37.054 -23.868 -14.243  0.00  0.00    -0.170 NA
ATOM     15  H   UNL     1      36.860 -23.135 -13.562  0.00  0.00    +0.149 HD
BRANCH  14  16
ATOM     16  C   UNL     1      37.808 -24.924 -13.532  0.00  0.00    +0.174 C 
BRANCH  16  18
ATOM     17  O   UNL     1      40.206 -24.840 -13.927  0.00  0.00    -0.249 OA
ATOM     18  C   UNL     1      39.087 -25.178 -14.293  0.00  0.00    +0.330 C 
BRANCH  18  19
ATOM     19  O   UNL     1      38.870 -25.858 -15.448  0.00  0.00    -0.479 OA
ATOM     20  H   UNL     1      38.908 -26.794 -15.455  0.00  0.00    +0.295 HD
ENDBRANCH  18  19
ENDBRANCH  16  18
BRANCH  16  21
ATOM     21  C   UNL     1      38.005 -24.543 -12.060  0.00  0.00    +0.040 C 
BRANCH  21  22
ATOM     22  C   UNL     1      36.906 -23.685 -11.426  0.00  0.00    +0.111 C 
BRANCH  22  24
ATOM     23  O   UNL     1      35.564 -24.585  -9.630  0.00  0.00    -0.250 OA
ATOM     24  C   UNL     1      35.774 -24.485 -10.832  0.00  0.00    +0.314 C 
BRANCH  24  25
ATOM     25  O   UNL     1      35.016 -25.101 -11.774  0.00  0.00    -0.480 OA
ATOM     26  H   UNL     1      34.838 -26.019 -11.705  0.00  0.00    +0.295 HD
ENDBRANCH  24  25
ENDBRANCH  22  24
ENDBRANCH  21  22
ENDBRANCH  16  21
ENDBRANCH  14  16
ENDBRANCH  11  14
ENDBRANCH   1  11
BRANCH   9  27
ATOM     27  O   UNL     1      34.699 -19.875 -21.799  0.00  0.00    -0.471 OA
BRANCH  27  28
ATOM     28  C   UNL     1      35.450 -18.664 -21.719  0.00  0.00    +0.232 C 
BRANCH  28  29
ATOM     29  C   UNL     1      35.072 -17.775 -22.867  0.00  0.00    +0.021 C 
ATOM     30  C   UNL     1      34.794 -18.330 -24.116  0.00  0.00    -0.000 C 
ATOM     31  C   UNL     1      34.999 -16.394 -22.685  0.00  0.00    -0.000 C 
ATOM     32  C   UNL     1      34.443 -17.504 -25.183  0.00  0.00    +0.010 C 
ATOM     33  C   UNL     1      34.648 -15.568 -23.752  0.00  0.00    +0.010 C 
ATOM     34  C   UNL     1      34.370 -16.123 -25.001  0.00  0.00    +0.068 C 
BRANCH  34  36
ATOM     35  N   UNL     1      33.717 -14.589 -26.983  0.00  0.00    -0.191 NA
ATOM     36  C   UNL     1      34.010 -15.276 -26.095  0.00  0.00    +0.100 C 
ENDBRANCH  34  36
ENDBRANCH  28  29
ENDBRANCH  27  28
ENDBRANCH   9  27
TORSDOF 13
ENDMDL
MODEL 3
REMARK VINA RESULT:     -12.2      3.570     11.243
REMARK  Name = 24755471
REMARK  13 active torsions:
REMARK  status: ('A' for Active; 'I' for Inactive)
REMARK    1  A    between atoms: C_1  and  S_11
REMARK    2  A    between atoms: C_9  and  O_27
REMARK    3  A    between atoms: S_11  and  N_14
REMARK    4  A    between atoms: N_14  and  C_16
REMARK    5  A    between atoms: C_16  and  C_18
REMARK    6  A    between atoms: C_16  and  C_21
REMARK    7  A    between atoms: C_18  and  O_19
REMARK    8  A    between atoms: C_21  and  C_22
REMARK    9  A    between atoms: C_22  and  C_24
REMARK   10  A    between atoms: C_24  and  O_25
REMARK   11  A    between atoms: O_27  and  C_28
REMARK   12  A    between atoms: C_28  and  C_29
REMARK   13  A    between atoms: C_34  and  C_36
REMARK                            x       y       z     vdW  Elec       q    Type
REMARK                         _______ _______ _______ _____ _____    ______ ____
ROOT
ATOM      1  C   UNL     1      35.440 -19.540 -21.361  0.00  0.00    +0.122 C 
ATOM      2  C   UNL     1      34.218 -21.026 -19.871  0.00  0.00    +0.002 C 
ATOM      3  C   UNL     1      34.233 -20.058 -20.888  0.00  0.00    +0.020 C 
ATOM      4  C   UNL     1      35.444 -21.476 -19.325  0.00  0.00    +0.003 C 
ATOM      5  C   UNL     1      36.645 -19.982 -20.823  0.00  0.00    +0.020 C 
ATOM      6  C   UNL     1      36.649 -20.943 -19.812  0.00  0.00    +0.001 C 
ATOM      7  C   UNL     1      35.429 -22.444 -18.308  0.00  0.00    +0.037 C 
ATOM      8  C   UNL     1      33.012 -21.558 -19.383  0.00  0.00    +0.003 C 
ATOM      9  C   UNL     1      34.222 -22.961 -17.836  0.00  0.00    +0.139 C 
ATOM     10  C   UNL     1      33.017 -22.519 -18.372  0.00  0.00    +0.037 C 
ENDROOT
BRANCH   1  11
ATOM     11  S   UNL     1      35.437 -18.322 -22.642  0.00  0.00    +0.061 S 
ATOM     12  O   UNL     1      36.771 -18.264 -23.206  0.00  0.00    -0.153 OA
ATOM     13  O   UNL     1      34.296 -18.606 -23.491  0.00  0.00    -0.153 OA
BRANCH  11  14
ATOM     14  N   UNL     1      35.131 -16.896 -21.768  0.00  0.00    -0.170 NA
ATOM     15  H   UNL     1      36.034 -16.455 -21.601  0.00  0.00    +0.149 HD
BRANCH  14  16
ATOM     16  C   UNL     1      34.245 -15.858 -22.337  0.00  0.00    +0.174 C 
BRANCH  16  18
ATOM     17  O   UNL     1      34.759 -14.260 -20.576  0.00  0.00    -0.249 OA
ATOM     18  C   UNL     1      33.928 -14.863 -21.245  0.00  0.00    +0.330 C 
BRANCH  18  19
ATOM     19  O   UNL     1      32.591 -14.684 -21.088  0.00  0.00    -0.479 OA
ATOM     20  H   UNL     1      32.256 -14.342 -20.283  0.00  0.00    +0.295 HD
ENDBRANCH  18  19
ENDBRANCH  16  18
BRANCH  16  21
ATOM     21  C   UNL     1      34.875 -15.247 -23.594  0.00  0.00    +0.040 C 
BRANCH  21  22
ATOM     22  C   UNL     1      33.915 -14.889 -24.732  0.00  0.00    +0.111 C 
BRANCH  22  24
ATOM     23  O   UNL     1      32.961 -16.004 -26.651  0.00  0.00    -0.250 OA
ATOM     24  C   UNL     1      33.873 -15.912 -25.839  0.00  0.00    +0.314 C 
BRANCH  24  25
ATOM     25  O   UNL     1      34.950 -16.737 -25.833  0.00  0.00    -0.480 OA
ATOM     26  H   UNL     1      35.493 -16.792 -25.071  0.00  0.00    +0.295 HD
ENDBRANCH  24  25
ENDBRANCH  22  24
ENDBRANCH  21  22
ENDBRANCH  16  21
ENDBRANCH  14  16
ENDBRANCH  11  14
ENDBRANCH   1  11
BRANCH   9  27
ATOM     27  O   UNL     1      34.225 -23.900 -16.850  0.00  0.00    -0.471 OA
BRANCH  27  28
ATOM     28  C   UNL     1      34.744 -23.508 -15.581  0.00  0.00    +0.232 C 
BRANCH  28  29
ATOM     29  C   UNL     1      36.072 -24.173 -15.368  0.00  0.00    +0.021 C 
ATOM     30  C   UNL     1      37.244 -23.418 -15.407  0.00  0.00    -0.000 C 
ATOM     31  C   UNL     1      36.135 -25.547 -15.134  0.00  0.00    -0.000 C 
ATOM     32  C   UNL     1      38.479 -24.036 -15.210  0.00  0.00    +0.010 C 
ATOM     33  C   UNL     1      37.370 -26.165 -14.937  0.00  0.00    +0.010 C 
ATOM     34  C   UNL     1      38.542 -25.409 -14.976  0.00  0.00    +0.068 C 
BRANCH  34  36
ATOM     35  N   UNL     1      40.835 -26.557 -14.610  0.00  0.00    -0.191 NA
ATOM     36  C   UNL     1      39.807 -26.042 -14.773  0.00  0.00    +0.100 C 
ENDBRANCH  34  36
ENDBRANCH  28  29
ENDBRANCH  27  28
ENDBRANCH   9  27
TORSDOF 13
ENDMDL
MODEL 4
REMARK VINA RESULT:     -12.2      3.848     11.455
REMARK  Name = 24755471
REMARK  13 active torsions:
REMARK  status: ('A' for Active; 'I' for Inactive)
REMARK    1  A    between atoms: C_1  and  S_11
REMARK    2  A    between atoms: C_9  and  O_27
REMARK    3  A    between atoms: S_11  and  N_14
REMARK    4  A    between atoms: N_14  and  C_16
REMARK    5  A    between atoms: C_16  and  C_18
REMARK    6  A    between atoms: C_16  and  C_21
REMARK    7  A    between atoms: C_18  and  O_19
REMARK    8  A    between atoms: C_21  and  C_22
REMARK    9  A    between atoms: C_22  and  C_24
REMARK   10  A    between atoms: C_24  and  O_25
REMARK   11  A    between atoms: O_27  and  C_28
REMARK   12  A    between atoms: C_28  and  C_29
REMARK   13  A    between atoms: C_34  and  C_36
REMARK                            x       y       z     vdW  Elec       q    Type
REMARK                         _______ _______ _______ _____ _____    ______ ____
ROOT
ATOM      1  C   UNL     1      35.381 -19.430 -21.531  0.00  0.00    +0.122 C 
ATOM      2  C   UNL     1      34.239 -20.952 -20.014  0.00  0.00    +0.002 C 
ATOM      3  C   UNL     1      34.203 -20.002 -21.047  0.00  0.00    +0.020 C 
ATOM      4  C   UNL     1      35.487 -21.328 -19.462  0.00  0.00    +0.003 C 
ATOM      5  C   UNL     1      36.607 -19.800 -20.988  0.00  0.00    +0.020 C 
ATOM      6  C   UNL     1      36.662 -20.742 -19.961  0.00  0.00    +0.001 C 
ATOM      7  C   UNL     1      35.523 -22.278 -18.429  0.00  0.00    +0.037 C 
ATOM      8  C   UNL     1      33.063 -21.537 -19.515  0.00  0.00    +0.003 C 
ATOM      9  C   UNL     1      34.345 -22.849 -17.946  0.00  0.00    +0.139 C 
ATOM     10  C   UNL     1      33.118 -22.480 -18.487  0.00  0.00    +0.037 C 
ENDROOT
BRANCH   1  11
ATOM     11  S   UNL     1      35.313 -18.236 -22.832  0.00  0.00    +0.061 S 
ATOM     12  O   UNL     1      36.654 -17.724 -23.039  0.00  0.00    -0.153 OA
ATOM     13  O   UNL     1      34.587 -18.847 -23.929  0.00  0.00    -0.153 OA
BRANCH  11  14
ATOM     14  N   UNL     1      34.345 -17.020 -22.141  0.00  0.00    -0.170 NA
ATOM     15  H   UNL     1      34.180 -17.291 -21.172  0.00  0.00    +0.149 HD
BRANCH  14  16
ATOM     16  C   UNL     1      34.822 -15.620 -22.120  0.00  0.00    +0.174 C 
BRANCH  16  18
ATOM     17  O   UNL     1      33.925 -15.560 -24.380  0.00  0.00    -0.249 OA
ATOM     18  C   UNL     1      34.501 -14.996 -23.457  0.00  0.00    +0.330 C 
BRANCH  18  19
ATOM     19  O   UNL     1      34.908 -13.703 -23.529  0.00  0.00    -0.479 OA
ATOM     20  H   UNL     1      35.711 -13.488 -23.961  0.00  0.00    +0.295 HD
ENDBRANCH  18  19
ENDBRANCH  16  18
BRANCH  16  21
ATOM     21  C   UNL     1      34.241 -14.876 -20.912  0.00  0.00    +0.040 C 
BRANCH  21  22
ATOM     22  C   UNL     1      32.723 -14.675 -20.902  0.00  0.00    +0.111 C 
BRANCH  22  24
ATOM     23  O   UNL     1      32.270 -12.358 -20.388  0.00  0.00    -0.250 OA
ATOM     24  C   UNL     1      32.292 -13.263 -21.212  0.00  0.00    +0.314 C 
BRANCH  24  25
ATOM     25  O   UNL     1      31.911 -13.103 -22.505  0.00  0.00    -0.480 OA
ATOM     26  H   UNL     1      31.800 -12.241 -22.856  0.00  0.00    +0.295 HD
ENDBRANCH  24  25
ENDBRANCH  22  24
ENDBRANCH  21  22
ENDBRANCH  16  21
ENDBRANCH  14  16
ENDBRANCH  11  14
ENDBRANCH   1  11
BRANCH   9  27
ATOM     27  O   UNL     1      34.397 -23.770 -16.945  0.00  0.00    -0.471 OA
BRANCH  27  28
ATOM     28  C   UNL     1      34.935 -23.341 -15.695  0.00  0.00    +0.232 C 
BRANCH  28  29
ATOM     29  C   UNL     1      36.239 -24.045 -15.456  0.00  0.00    +0.021 C 
ATOM     30  C   UNL     1      37.441 -23.350 -15.592  0.00  0.00    -0.000 C 
ATOM     31  C   UNL     1      36.249 -25.393 -15.099  0.00  0.00    -0.000 C 
ATOM     32  C   UNL     1      38.652 -24.003 -15.371  0.00  0.00    +0.010 C 
ATOM     33  C   UNL     1      37.461 -26.046 -14.877  0.00  0.00    +0.010 C 
ATOM     34  C   UNL     1      38.663 -25.352 -15.014  0.00  0.00    +0.068 C 
BRANCH  34  36
ATOM     35  N   UNL     1      40.914 -26.564 -14.600  0.00  0.00    -0.191 NA
ATOM     36  C   UNL     1      39.905 -26.021 -14.785  0.00  0.00    +0.100 C 
ENDBRANCH  34  36
ENDBRANCH  28  29
ENDBRANCH  27  28
ENDBRANCH   9  27
TORSDOF 13
ENDMDL
MODEL 5
REMARK VINA RESULT:     -12.2      2.986      5.010
REMARK  Name = 24755471
REMARK  13 active torsions:
REMARK  status: ('A' for Active; 'I' for Inactive)
REMARK    1  A    between atoms: C_1  and  S_11
REMARK    2  A    between atoms: C_9  and  O_27
REMARK    3  A    between atoms: S_11  and  N_14
REMARK    4  A    between atoms: N_14  and  C_16
REMARK    5  A    between atoms: C_16  and  C_18
REMARK    6  A    between atoms: C_16  and  C_21
REMARK    7  A    between atoms: C_18  and  O_19
REMARK    8  A    between atoms: C_21  and  C_22
REMARK    9  A    between atoms: C_22  and  C_24
REMARK   10  A    between atoms: C_24  and  O_25
REMARK   11  A    between atoms: O_27  and  C_28
REMARK   12  A    between atoms: C_28  and  C_29
REMARK   13  A    between atoms: C_34  and  C_36
REMARK                            x       y       z     vdW  Elec       q    Type
REMARK                         _______ _______ _______ _____ _____    ______ ____
ROOT
ATOM      1  C   UNL     1      35.159 -22.736 -16.971  0.00  0.00    +0.122 C 
ATOM      2  C   UNL     1      34.445 -21.652 -19.029  0.00  0.00    +0.002 C 
ATOM      3  C   UNL     1      34.146 -22.367 -17.858  0.00  0.00    +0.020 C 
ATOM      4  C   UNL     1      35.789 -21.305 -19.305  0.00  0.00    +0.003 C 
ATOM      5  C   UNL     1      36.480 -22.395 -17.243  0.00  0.00    +0.020 C 
ATOM      6  C   UNL     1      36.795 -21.684 -18.401  0.00  0.00    +0.001 C 
ATOM      7  C   UNL     1      36.087 -20.590 -20.475  0.00  0.00    +0.037 C 
ATOM      8  C   UNL     1      33.438 -21.273 -19.933  0.00  0.00    +0.003 C 
ATOM      9  C   UNL     1      35.074 -20.221 -21.362  0.00  0.00    +0.139 C 
ATOM     10  C   UNL     1      33.753 -20.562 -21.092  0.00  0.00    +0.037 C 
ENDROOT
BRANCH   1  11
ATOM     11  S   UNL     1      34.761 -23.636 -15.502  0.00  0.00    +0.061 S 
ATOM     12  O   UNL     1      34.644 -25.038 -15.856  0.00  0.00    -0.153 OA
ATOM     13  O   UNL     1      35.703 -23.217 -14.482  0.00  0.00    -0.153 OA
BRANCH  11  14
ATOM     14  N   UNL     1      33.224 -23.020 -15.120  0.00  0.00    -0.170 NA
ATOM     15  H   UNL     1      33.059 -22.233 -15.746  0.00  0.00    +0.149 HD
BRANCH  14  16
ATOM     16  C   UNL     1      32.035 -23.896 -15.210  0.00  0.00    +0.174 C 
BRANCH  16  18
ATOM     17  O   UNL     1      31.125 -23.990 -12.956  0.00  0.00    -0.249 OA
ATOM     18  C   UNL     1      31.794 -24.499 -13.847  0.00  0.00    +0.330 C 
BRANCH  18  19
ATOM     19  O   UNL     1      32.396 -25.709 -13.710  0.00  0.00    -0.479 OA
ATOM     20  H   UNL     1      32.909 -25.894 -12.948  0.00  0.00    +0.295 HD
ENDBRANCH  18  19
ENDBRANCH  16  18
BRANCH  16  21
ATOM     21  C   UNL     1      30.842 -23.121 -15.784  0.00  0.00    +0.040 C 
BRANCH  21  22
ATOM     22  C   UNL     1      29.574 -23.933 -16.065  0.00  0.00    +0.111 C 
BRANCH  22  24
ATOM     23  O   UNL     1      28.559 -22.039 -17.167  0.00  0.00    -0.250 OA
ATOM     24  C   UNL     1      28.607 -23.251 -16.998  0.00  0.00    +0.314 C 
BRANCH  24  25
ATOM     25  O   UNL     1      27.777 -24.123 -17.624  0.00  0.00    -0.480 OA
ATOM     26  H   UNL     1      28.129 -24.878 -18.053  0.00  0.00    +0.295 HD
ENDBRANCH  24  25
ENDBRANCH  22  24
ENDBRANCH  21  22
ENDBRANCH  16  21
ENDBRANCH  14  16
ENDBRANCH  11  14
ENDBRANCH   1  11
BRANCH   9  27
ATOM     27  O   UNL     1      35.380 -19.526 -22.492  0.00  0.00    -0.471 OA
BRANCH  27  28
ATOM     28  C   UNL     1      35.957 -18.233 -22.323  0.00  0.00    +0.232 C 
BRANCH  28  29
ATOM     29  C   UNL     1      35.298 -17.274 -23.269  0.00  0.00    +0.021 C 
ATOM     30  C   UNL     1      34.903 -17.705 -24.536  0.00  0.00    -0.000 C 
ATOM     31  C   UNL     1      35.080 -15.951 -22.883  0.00  0.00    -0.000 C 
ATOM     32  C   UNL     1      34.291 -16.813 -25.416  0.00  0.00    +0.010 C 
ATOM     33  C   UNL     1      34.467 -15.060 -23.763  0.00  0.00    +0.010 C 
ATOM     34  C   UNL     1      34.073 -15.491 -25.030  0.00  0.00    +0.068 C 
BRANCH  34  36
ATOM     35  N   UNL     1      32.934 -13.836 -26.665  0.00  0.00    -0.191 NA
ATOM     36  C   UNL     1      33.444 -14.577 -25.932  0.00  0.00    +0.100 C 
ENDBRANCH  34  36
ENDBRANCH  28  29
ENDBRANCH  27  28
ENDBRANCH   9  27
TORSDOF 13
ENDMDL
MODEL 6
REMARK VINA RESULT:     -12.1      2.011      2.675
REMARK  Name = 24755471
REMARK  13 active torsions:
REMARK  status: ('A' for Active; 'I' for Inactive)
REMARK    1  A    between atoms: C_1  and  S_11
REMARK    2  A    between atoms: C_9  and  O_27
REMARK    3  A    between atoms: S_11  and  N_14
REMARK    4  A    between atoms: N_14  and  C_16
REMARK    5  A    between atoms: C_16  and  C_18
REMARK    6  A    between atoms: C_16  and  C_21
REMARK    7  A    between atoms: C_18  and  O_19
REMARK    8  A    between atoms: C_21  and  C_22
REMARK    9  A    between atoms: C_22  and  C_24
REMARK   10  A    between atoms: C_24  and  O_25
REMARK   11  A    between atoms: O_27  and  C_28
REMARK   12  A    between atoms: C_28  and  C_29
REMARK   13  A    between atoms: C_34  and  C_36
REMARK                            x       y       z     vdW  Elec       q    Type
REMARK                         _______ _______ _______ _____ _____    ______ ____
ROOT
ATOM      1  C   UNL     1      35.605 -22.726 -17.121  0.00  0.00    +0.122 C 
ATOM      2  C   UNL     1      34.677 -21.603 -19.070  0.00  0.00    +0.002 C 
ATOM      3  C   UNL     1      34.514 -22.406 -17.930  0.00  0.00    +0.020 C 
ATOM      4  C   UNL     1      35.966 -21.118 -19.396  0.00  0.00    +0.003 C 
ATOM      5  C   UNL     1      36.872 -22.249 -17.442  0.00  0.00    +0.020 C 
ATOM      6  C   UNL     1      37.053 -21.450 -18.572  0.00  0.00    +0.001 C 
ATOM      7  C   UNL     1      36.129 -20.315 -20.536  0.00  0.00    +0.037 C 
ATOM      8  C   UNL     1      33.589 -21.272 -19.895  0.00  0.00    +0.003 C 
ATOM      9  C   UNL     1      35.037 -19.995 -21.344  0.00  0.00    +0.139 C 
ATOM     10  C   UNL     1      33.770 -20.473 -21.024  0.00  0.00    +0.037 C 
ENDROOT
BRANCH   1  11
ATOM     11  S   UNL     1      35.378 -23.738 -15.690  0.00  0.00    +0.061 S 
ATOM     12  O   UNL     1      35.122 -22.864 -14.562  0.00  0.00    -0.153 OA
ATOM     13  O   UNL     1      34.421 -24.768 -16.049  0.00  0.00    -0.153 OA
BRANCH  11  14
ATOM     14  N   UNL     1      36.913 -24.449 -15.517  0.00  0.00    -0.170 NA
ATOM     15  H   UNL     1      37.587 -23.685 -15.475  0.00  0.00    +0.149 HD
BRANCH  14  16
ATOM     16  C   UNL     1      37.191 -25.331 -14.363  0.00  0.00    +0.174 C 
BRANCH  16  18
ATOM     17  O   UNL     1      37.061 -27.750 -14.149  0.00  0.00    -0.249 OA
ATOM     18  C   UNL     1      37.197 -26.758 -14.855  0.00  0.00    +0.330 C 
BRANCH  18  19
ATOM     19  O   UNL     1      37.354 -26.834 -16.202  0.00  0.00    -0.479 OA
ATOM     20  H   UNL     1      37.975 -27.432 -16.569  0.00  0.00    +0.295 HD
ENDBRANCH  18  19
ENDBRANCH  16  18
BRANCH  16  21
ATOM     21  C   UNL     1      38.480 -24.895 -13.655  0.00  0.00    +0.040 C 
BRANCH  21  22
ATOM     22  C   UNL     1      39.727 -25.740 -13.929  0.00  0.00    +0.111 C 
BRANCH  22  24
ATOM     23  O   UNL     1      41.215 -24.250 -15.113  0.00  0.00    -0.250 OA
ATOM     24  C   UNL     1      40.536 -25.268 -15.111  0.00  0.00    +0.314 C 
BRANCH  24  25
ATOM     25  O   UNL     1      40.419 -26.086 -16.188  0.00  0.00    -0.480 OA
ATOM     26  H   UNL     1      40.142 -25.737 -17.013  0.00  0.00    +0.295 HD
ENDBRANCH  24  25
ENDBRANCH  22  24
ENDBRANCH  21  22
ENDBRANCH  16  21
ENDBRANCH  14  16
ENDBRANCH  11  14
ENDBRANCH   1  11
BRANCH   9  27
ATOM     27  O   UNL     1      35.212 -19.214 -22.445  0.00  0.00    -0.471 OA
BRANCH  27  28
ATOM     28  C   UNL     1      36.035 -18.059 -22.298  0.00  0.00    +0.232 C 
BRANCH  28  29
ATOM     29  C   UNL     1      35.162 -16.842 -22.217  0.00  0.00    +0.021 C 
ATOM     30  C   UNL     1      34.793 -16.170 -23.383  0.00  0.00    -0.000 C 
ATOM     31  C   UNL     1      34.720 -16.381 -20.977  0.00  0.00    -0.000 C 
ATOM     32  C   UNL     1      33.982 -15.038 -23.308  0.00  0.00    +0.010 C 
ATOM     33  C   UNL     1      33.909 -15.249 -20.902  0.00  0.00    +0.010 C 
ATOM     34  C   UNL     1      33.540 -14.577 -22.068  0.00  0.00    +0.068 C 
BRANCH  34  36
ATOM     35  N   UNL     1      32.032 -12.476 -21.930  0.00  0.00    -0.191 NA
ATOM     36  C   UNL     1      32.708 -13.418 -21.992  0.00  0.00    +0.100 C 
ENDBRANCH  34  36
ENDBRANCH  28  29
ENDBRANCH  27  28
ENDBRANCH   9  27
TORSDOF 13
ENDMDL
MODEL 7
REMARK VINA RESULT:     -12.1      1.580      2.822
REMARK  Name = 24755471
REMARK  13 active torsions:
REMARK  status: ('A' for Active; 'I' for Inactive)
REMARK    1  A    between atoms: C_1  and  S_11
REMARK    2  A    between atoms: C_9  and  O_27
REMARK    3  A    between atoms: S_11  and  N_14
REMARK    4  A    between atoms: N_14  and  C_16
REMARK    5  A    between atoms: C_16  and  C_18
REMARK    6  A    between atoms: C_16  and  C_21
REMARK    7  A    between atoms: C_18  and  O_19
REMARK    8  A    between atoms: C_21  and  C_22
REMARK    9  A    between atoms: C_22  and  C_24
REMARK   10  A    between atoms: C_24  and  O_25
REMARK   11  A    between atoms: O_27  and  C_28
REMARK   12  A    between atoms: C_28  and  C_29
REMARK   13  A    between atoms: C_34  and  C_36
REMARK                            x       y       z     vdW  Elec       q    Type
REMARK                         _______ _______ _______ _____ _____    ______ ____
ROOT
ATOM      1  C   UNL     1      35.199 -22.827 -16.952  0.00  0.00    +0.122 C 
ATOM      2  C   UNL     1      34.404 -21.724 -18.970  0.00  0.00    +0.002 C 
ATOM      3  C   UNL     1      34.157 -22.482 -17.815  0.00  0.00    +0.020 C 
ATOM      4  C   UNL     1      35.727 -21.308 -19.256  0.00  0.00    +0.003 C 
ATOM      5  C   UNL     1      36.499 -22.418 -17.234  0.00  0.00    +0.020 C 
ATOM      6  C   UNL     1      36.763 -21.664 -18.377  0.00  0.00    +0.001 C 
ATOM      7  C   UNL     1      35.974 -20.550 -20.412  0.00  0.00    +0.037 C 
ATOM      8  C   UNL     1      33.367 -21.369 -19.850  0.00  0.00    +0.003 C 
ATOM      9  C   UNL     1      34.932 -20.207 -21.274  0.00  0.00    +0.139 C 
ATOM     10  C   UNL     1      33.631 -20.615 -20.994  0.00  0.00    +0.037 C 
ENDROOT
BRANCH   1  11
ATOM     11  S   UNL     1      34.866 -23.782 -15.502  0.00  0.00    +0.061 S 
ATOM     12  O   UNL     1      35.460 -23.097 -14.371  0.00  0.00    -0.153 OA
ATOM     13  O   UNL     1      33.447 -24.083 -15.512  0.00  0.00    -0.153 OA
BRANCH  11  14
ATOM     14  N   UNL     1      35.734 -25.210 -15.818  0.00  0.00    -0.170 NA
ATOM     15  H   UNL     1      36.203 -25.077 -16.713  0.00  0.00    +0.149 HD
BRANCH  14  16
ATOM     16  C   UNL     1      36.761 -25.675 -14.861  0.00  0.00    +0.174 C 
BRANCH  16  18
ATOM     17  O   UNL     1      38.218 -27.623 -14.841  0.00  0.00    -0.249 OA
ATOM     18  C   UNL     1      37.320 -26.982 -15.373  0.00  0.00    +0.330 C 
BRANCH  18  19
ATOM     19  O   UNL     1      36.694 -27.398 -16.504  0.00  0.00    -0.479 OA
ATOM     20  H   UNL     1      37.002 -27.114 -17.341  0.00  0.00    +0.295 HD
ENDBRANCH  18  19
ENDBRANCH  16  18
BRANCH  16  21
ATOM     21  C   UNL     1      37.810 -24.581 -14.627  0.00  0.00    +0.040 C 
BRANCH  21  22
ATOM     22  C   UNL     1      38.766 -24.795 -13.451  0.00  0.00    +0.111 C 
BRANCH  22  24
ATOM     23  O   UNL     1      37.380 -24.995 -11.483  0.00  0.00    -0.250 OA
ATOM     24  C   UNL     1      38.206 -24.356 -12.121  0.00  0.00    +0.314 C 
BRANCH  24  25
ATOM     25  O   UNL     1      38.703 -23.162 -11.710  0.00  0.00    -0.480 OA
ATOM     26  H   UNL     1      38.515 -22.849 -10.847  0.00  0.00    +0.295 HD
ENDBRANCH  24  25
ENDBRANCH  22  24
ENDBRANCH  21  22
ENDBRANCH  16  21
ENDBRANCH  14  16
ENDBRANCH  11  14
ENDBRANCH   1  11
BRANCH   9  27
ATOM     27  O   UNL     1      35.188 -19.469 -22.389  0.00  0.00    -0.471 OA
BRANCH  27  28
ATOM     28  C   UNL     1      35.790 -18.191 -22.198  0.00  0.00    +0.232 C 
BRANCH  28  29
ATOM     29  C   UNL     1      35.186 -17.215 -23.165  0.00  0.00    +0.021 C 
ATOM     30  C   UNL     1      34.953 -15.897 -22.771  0.00  0.00    -0.000 C 
ATOM     31  C   UNL     1      34.856 -17.626 -24.456  0.00  0.00    -0.000 C 
ATOM     32  C   UNL     1      34.392 -14.990 -23.669  0.00  0.00    +0.010 C 
ATOM     33  C   UNL     1      34.294 -16.719 -25.354  0.00  0.00    +0.010 C 
ATOM     34  C   UNL     1      34.061 -15.401 -24.960  0.00  0.00    +0.068 C 
BRANCH  34  36
ATOM     35  N   UNL     1      33.018 -13.715 -26.627  0.00  0.00    -0.191 NA
ATOM     36  C   UNL     1      33.486 -14.471 -25.881  0.00  0.00    +0.100 C 
ENDBRANCH  34  36
ENDBRANCH  28  29
ENDBRANCH  27  28
ENDBRANCH   9  27
TORSDOF 13
ENDMDL
MODEL 8
REMARK VINA RESULT:     -12.0      3.847      6.000
REMARK  Name = 24755471
REMARK  13 active torsions:
REMARK  status: ('A' for Active; 'I' for Inactive)
REMARK    1  A    between atoms: C_1  and  S_11
REMARK    2  A    between atoms: C_9  and  O_27
REMARK    3  A    between atoms: S_11  and  N_14
REMARK    4  A    between atoms: N_14  and  C_16
REMARK    5  A    between atoms: C_16  and  C_18
REMARK    6  A    between atoms: C_16  and  C_21
REMARK    7  A    between atoms: C_18  and  O_19
REMARK    8  A    between atoms: C_21  and  C_22
REMARK    9  A    between atoms: C_22  and  C_24
REMARK   10  A    between atoms: C_24  and  O_25
REMARK   11  A    between atoms: O_27  and  C_28
REMARK   12  A    between atoms: C_28  and  C_29
REMARK   13  A    between atoms: C_34  and  C_36
REMARK                            x       y       z     vdW  Elec       q    Type
REMARK                         _______ _______ _______ _____ _____    ______ ____
ROOT
ATOM      1  C   UNL     1      34.105 -22.032 -19.002  0.00  0.00    +0.122 C 
ATOM      2  C   UNL     1      35.563 -20.577 -20.298  0.00  0.00    +0.002 C 
ATOM      3  C   UNL     1      35.384 -21.580 -19.332  0.00  0.00    +0.020 C 
ATOM      4  C   UNL     1      34.429 -20.024 -20.940  0.00  0.00    +0.003 C 
ATOM      5  C   UNL     1      32.990 -21.486 -19.632  0.00  0.00    +0.020 C 
ATOM      6  C   UNL     1      33.150 -20.489 -20.595  0.00  0.00    +0.001 C 
ATOM      7  C   UNL     1      34.608 -19.021 -21.906  0.00  0.00    +0.037 C 
ATOM      8  C   UNL     1      36.843 -20.111 -20.642  0.00  0.00    +0.003 C 
ATOM      9  C   UNL     1      35.887 -18.570 -22.235  0.00  0.00    +0.139 C 
ATOM     10  C   UNL     1      37.002 -19.114 -21.605  0.00  0.00    +0.037 C 
ENDROOT
BRANCH   1  11
ATOM     11  S   UNL     1      33.901 -23.295 -17.782  0.00  0.00    +0.061 S 
ATOM     12  O   UNL     1      33.556 -24.525 -18.468  0.00  0.00    -0.153 OA
ATOM     13  O   UNL     1      35.067 -23.242 -16.921  0.00  0.00    -0.153 OA
BRANCH  11  14
ATOM     14  N   UNL     1      32.551 -22.732 -16.917  0.00  0.00    -0.170 NA
ATOM     15  H   UNL     1      31.859 -22.443 -17.608  0.00  0.00    +0.149 HD
BRANCH  14  16
ATOM     16  C   UNL     1      31.858 -23.628 -15.966  0.00  0.00    +0.174 C 
BRANCH  16  18
ATOM     17  O   UNL     1      32.630 -23.084 -13.724  0.00  0.00    -0.249 OA
ATOM     18  C   UNL     1      32.725 -23.766 -14.737  0.00  0.00    +0.330 C 
BRANCH  18  19
ATOM     19  O   UNL     1      33.636 -24.766 -14.864  0.00  0.00    -0.479 OA
ATOM     20  H   UNL     1      34.344 -24.835 -14.255  0.00  0.00    +0.295 HD
ENDBRANCH  18  19
ENDBRANCH  16  18
BRANCH  16  21
ATOM     21  C   UNL     1      30.438 -23.120 -15.690  0.00  0.00    +0.040 C 
BRANCH  21  22
ATOM     22  C   UNL     1      29.290 -23.980 -16.228  0.00  0.00    +0.111 C 
BRANCH  22  24
ATOM     23  O   UNL     1      28.317 -22.017 -17.245  0.00  0.00    -0.250 OA
ATOM     24  C   UNL     1      28.344 -23.236 -17.136  0.00  0.00    +0.314 C 
BRANCH  24  25
ATOM     25  O   UNL     1      27.506 -24.063 -17.812  0.00  0.00    -0.480 OA
ATOM     26  H   UNL     1      27.502 -24.059 -18.749  0.00  0.00    +0.295 HD
ENDBRANCH  24  25
ENDBRANCH  22  24
ENDBRANCH  21  22
ENDBRANCH  16  21
ENDBRANCH  14  16
ENDBRANCH  11  14
ENDBRANCH   1  11
BRANCH   9  27
ATOM     27  O   UNL     1      36.044 -17.598 -23.175  0.00  0.00    -0.471 OA
BRANCH  27  28
ATOM     28  C   UNL     1      34.941 -17.353 -24.046  0.00  0.00    +0.232 C 
BRANCH  28  29
ATOM     29  C   UNL     1      34.550 -15.908 -23.947  0.00  0.00    +0.021 C 
ATOM     30  C   UNL     1      33.906 -15.285 -25.016  0.00  0.00    -0.000 C 
ATOM     31  C   UNL     1      34.831 -15.187 -22.786  0.00  0.00    -0.000 C 
ATOM     32  C   UNL     1      33.543 -13.942 -24.924  0.00  0.00    +0.010 C 
ATOM     33  C   UNL     1      34.468 -13.844 -22.694  0.00  0.00    +0.010 C 
ATOM     34  C   UNL     1      33.824 -13.221 -23.763  0.00  0.00    +0.068 C 
BRANCH  34  36
ATOM     35  N   UNL     1      33.149 -10.726 -23.592  0.00  0.00    -0.191 NA
ATOM     36  C   UNL     1      33.451 -11.844 -23.669  0.00  0.00    +0.100 C 
ENDBRANCH  34  36
ENDBRANCH  28  29
ENDBRANCH  27  28
ENDBRANCH   9  27
TORSDOF 13
ENDMDL
MODEL 9
REMARK VINA RESULT:     -11.8      5.940      9.424
REMARK  Name = 24755471
REMARK  13 active torsions:
REMARK  status: ('A' for Active; 'I' for Inactive)
REMARK    1  A    between atoms: C_1  and  S_11
REMARK    2  A    between atoms: C_9  and  O_27
REMARK    3  A    between atoms: S_11  and  N_14
REMARK    4  A    between atoms: N_14  and  C_16
REMARK    5  A    between atoms: C_16  and  C_18
REMARK    6  A    between atoms: C_16  and  C_21
REMARK    7  A    between atoms: C_18  and  O_19
REMARK    8  A    between atoms: C_21  and  C_22
REMARK    9  A    between atoms: C_22  and  C_24
REMARK   10  A    between atoms: C_24  and  O_25
REMARK   11  A    between atoms: O_27  and  C_28
REMARK   12  A    between atoms: C_28  and  C_29
REMARK   13  A    between atoms: C_34  and  C_36
REMARK                            x       y       z     vdW  Elec       q    Type
REMARK                         _______ _______ _______ _____ _____    ______ ____
ROOT
ATOM      1  C   UNL     1      35.322 -17.093 -22.234  0.00  0.00    +0.122 C 
ATOM      2  C   UNL     1      33.897 -15.238 -21.564  0.00  0.00    +0.002 C 
ATOM      3  C   UNL     1      34.544 -16.449 -21.271  0.00  0.00    +0.020 C 
ATOM      4  C   UNL     1      34.040 -14.671 -22.853  0.00  0.00    +0.003 C 
ATOM      5  C   UNL     1      35.462 -16.536 -23.502  0.00  0.00    +0.020 C 
ATOM      6  C   UNL     1      34.826 -15.333 -23.811  0.00  0.00    +0.001 C 
ATOM      7  C   UNL     1      33.393 -13.460 -23.146  0.00  0.00    +0.037 C 
ATOM      8  C   UNL     1      33.110 -14.577 -20.606  0.00  0.00    +0.003 C 
ATOM      9  C   UNL     1      32.615 -12.817 -22.182  0.00  0.00    +0.139 C 
ATOM     10  C   UNL     1      32.474 -13.374 -20.915  0.00  0.00    +0.037 C 
ENDROOT
BRANCH   1  11
ATOM     11  S   UNL     1      36.128 -18.617 -21.844  0.00  0.00    +0.061 S 
ATOM     12  O   UNL     1      36.872 -19.041 -23.014  0.00  0.00    -0.153 OA
ATOM     13  O   UNL     1      36.807 -18.423 -20.578  0.00  0.00    -0.153 OA
BRANCH  11  14
ATOM     14  N   UNL     1      34.807 -19.660 -21.606  0.00  0.00    -0.170 NA
ATOM     15  H   UNL     1      34.848 -20.360 -22.347  0.00  0.00    +0.149 HD
BRANCH  14  16
ATOM     16  C   UNL     1      34.668 -20.395 -20.330  0.00  0.00    +0.174 C 
BRANCH  16  18
ATOM     17  O   UNL     1      32.317 -20.507 -20.947  0.00  0.00    -0.249 OA
ATOM     18  C   UNL     1      33.230 -20.840 -20.201  0.00  0.00    +0.330 C 
BRANCH  18  19
ATOM     19  O   UNL     1      33.049 -21.689 -19.156  0.00  0.00    -0.479 OA
ATOM     20  H   UNL     1      32.191 -21.823 -18.805  0.00  0.00    +0.295 HD
ENDBRANCH  18  19
ENDBRANCH  16  18
BRANCH  16  21
ATOM     21  C   UNL     1      35.697 -21.529 -20.250  0.00  0.00    +0.040 C 
BRANCH  21  22
ATOM     22  C   UNL     1      36.754 -21.413 -19.149  0.00  0.00    +0.111 C 
BRANCH  22  24
ATOM     23  O   UNL     1      35.336 -22.718 -17.693  0.00  0.00    -0.250 OA
ATOM     24  C   UNL     1      36.343 -22.038 -17.840  0.00  0.00    +0.314 C 
BRANCH  24  25
ATOM     25  O   UNL     1      37.203 -21.754 -16.829  0.00  0.00    -0.480 OA
ATOM     26  H   UNL     1      37.699 -20.959 -16.846  0.00  0.00    +0.295 HD
ENDBRANCH  24  25
ENDBRANCH  22  24
ENDBRANCH  21  22
ENDBRANCH  16  21
ENDBRANCH  14  16
ENDBRANCH  11  14
ENDBRANCH   1  11
BRANCH   9  27
ATOM     27  O   UNL     1      31.996 -11.642 -22.482  0.00  0.00    -0.471 OA
BRANCH  27  28
ATOM     28  C   UNL     1      32.758 -10.669 -23.194  0.00  0.00    +0.232 C 
BRANCH  28  29
ATOM     29  C   UNL     1      32.233  -9.302 -22.870  0.00  0.00    +0.021 C 
ATOM     30  C   UNL     1      32.319  -8.813 -21.566  0.00  0.00    -0.000 C 
ATOM     31  C   UNL     1      31.656  -8.520 -23.871  0.00  0.00    -0.000 C 
ATOM     32  C   UNL     1      31.831  -7.543 -21.264  0.00  0.00    +0.010 C 
ATOM     33  C   UNL     1      31.167  -7.250 -23.569  0.00  0.00    +0.010 C 
ATOM     34  C   UNL     1      31.254  -6.761 -22.265  0.00  0.00    +0.068 C 
BRANCH  34  36
ATOM     35  N   UNL     1      30.347  -4.401 -21.704  0.00  0.00    -0.191 NA
ATOM     36  C   UNL     1      30.753  -5.458 -21.956  0.00  0.00    +0.100 C 
ENDBRANCH  34  36
ENDBRANCH  28  29
ENDBRANCH  27  28
ENDBRANCH   9  27
TORSDOF 13
ENDMDL
