MODEL 1
REMARK VINA RESULT:     -13.2      0.000      0.000
REMARK  Name = 3815
REMARK  0 active torsions:
REMARK  status: ('A' for Active; 'I' for Inactive)
REMARK                            x       y       z     vdW  Elec       q    Type
REMARK                         _______ _______ _______ _____ _____    ______ ____
ROOT
ATOM      1  O   UNL     1      31.353 -22.785 -17.293  0.00  0.00    -0.270 OA
ATOM      2  N   UNL     1      37.719 -23.511 -15.896  0.00  0.00    -0.352 N 
ATOM      3  N   UNL     1      36.736 -22.147 -18.120  0.00  0.00    -0.352 N 
ATOM      4  N   UNL     1      31.741 -24.005 -15.326  0.00  0.00    -0.297 N 
ATOM      5  C   UNL     1      34.023 -23.928 -15.365  0.00  0.00    +0.003 A 
ATOM      6  C   UNL     1      35.411 -23.973 -15.239  0.00  0.00    +0.016 A 
ATOM      7  C   UNL     1      34.468 -22.670 -17.364  0.00  0.00    +0.022 A 
ATOM      8  C   UNL     1      36.388 -23.404 -16.117  0.00  0.00    +0.072 A 
ATOM      9  C   UNL     1      33.547 -23.239 -16.485  0.00  0.00    +0.053 A 
ATOM     10  C   UNL     1      35.895 -22.720 -17.231  0.00  0.00    +0.073 A 
ATOM     11  C   UNL     1      32.886 -24.458 -14.558  0.00  0.00    +0.117 C 
ATOM     12  C   UNL     1      36.388 -24.537 -14.302  0.00  0.00    +0.017 A 
ATOM     13  C   UNL     1      34.485 -21.891 -18.613  0.00  0.00    +0.017 A 
ATOM     14  C   UNL     1      37.729 -24.247 -14.718  0.00  0.00    +0.057 A 
ATOM     15  C   UNL     1      35.832 -21.606 -19.022  0.00  0.00    +0.057 A 
ATOM     16  C   UNL     1      32.090 -23.285 -16.466  0.00  0.00    +0.246 C 
ATOM     17  C   UNL     1      36.216 -25.284 -13.112  0.00  0.00    +0.001 C 
ATOM     18  C   UNL     1      33.444 -21.401 -19.438  0.00  0.00    +0.001 C 
ATOM     19  C   UNL     1      38.837 -24.683 -13.978  0.00  0.00    +0.017 C 
ATOM     20  C   UNL     1      36.112 -20.875 -20.186  0.00  0.00    +0.017 C 
ATOM     21  C   UNL     1      37.330 -25.714 -12.382  0.00  0.00    +0.000 C 
ATOM     22  C   UNL     1      33.735 -20.673 -20.598  0.00  0.00    +0.000 C 
ATOM     23  C   UNL     1      38.618 -25.417 -12.811  0.00  0.00    +0.001 C 
ATOM     24  C   UNL     1      35.049 -20.415 -20.964  0.00  0.00    +0.001 C 
ATOM     25  H   UNL     1      38.473 -23.164 -16.424  0.00  0.00    +0.166 HD
ATOM     26  H   UNL     1      37.720 -22.119 -18.126  0.00  0.00    +0.166 HD
ATOM     27  H   UNL     1      30.809 -24.188 -15.067  0.00  0.00    +0.150 HD
ENDROOT
TORSDOF 0
ENDMDL
MODEL 2
REMARK VINA RESULT:     -13.0      7.902     12.150
REMARK  Name = 3815
REMARK  0 active torsions:
REMARK  status: ('A' for Active; 'I' for Inactive)
REMARK                            x       y       z     vdW  Elec       q    Type
REMARK                         _______ _______ _______ _____ _____    ______ ____
ROOT
ATOM      1  O   UNL     1      34.614 -16.405 -26.257  0.00  0.00    -0.270 OA
ATOM      2  N   UNL     1      33.166 -13.617 -20.501  0.00  0.00    -0.352 N 
ATOM      3  N   UNL     1      34.596 -15.993 -20.789  0.00  0.00    -0.352 N 
ATOM      4  N   UNL     1      33.392 -14.412 -26.469  0.00  0.00    -0.297 N 
ATOM      5  C   UNL     1      33.199 -13.936 -24.244  0.00  0.00    +0.003 A 
ATOM      6  C   UNL     1      32.992 -13.501 -22.935  0.00  0.00    +0.016 A 
ATOM      7  C   UNL     1      34.359 -15.772 -23.214  0.00  0.00    +0.022 A 
ATOM      8  C   UNL     1      33.426 -14.131 -21.725  0.00  0.00    +0.072 A 
ATOM      9  C   UNL     1      33.919 -15.128 -24.370  0.00  0.00    +0.053 A 
ATOM     10  C   UNL     1      34.143 -15.322 -21.870  0.00  0.00    +0.073 A 
ATOM     11  C   UNL     1      32.821 -13.410 -25.588  0.00  0.00    +0.117 C 
ATOM     12  C   UNL     1      32.334 -12.373 -22.268  0.00  0.00    +0.017 A 
ATOM     13  C   UNL     1      35.107 -16.979 -22.825  0.00  0.00    +0.017 A 
ATOM     14  C   UNL     1      32.456 -12.474 -20.843  0.00  0.00    +0.057 A 
ATOM     15  C   UNL     1      35.224 -17.071 -21.396  0.00  0.00    +0.057 A 
ATOM     16  C   UNL     1      34.045 -15.438 -25.789  0.00  0.00    +0.246 C 
ATOM     17  C   UNL     1      31.634 -11.259 -22.791  0.00  0.00    +0.001 C 
ATOM     18  C   UNL     1      35.702 -18.012 -23.587  0.00  0.00    +0.001 C 
ATOM     19  C   UNL     1      31.906 -11.508 -19.989  0.00  0.00    +0.017 C 
ATOM     20  C   UNL     1      35.895 -18.135 -20.777  0.00  0.00    +0.017 C 
ATOM     21  C   UNL     1      31.090 -10.301 -21.929  0.00  0.00    +0.000 C 
ATOM     22  C   UNL     1      36.369 -19.070 -22.960  0.00  0.00    +0.000 C 
ATOM     23  C   UNL     1      31.224 -10.426 -20.552  0.00  0.00    +0.001 C 
ATOM     24  C   UNL     1      36.463 -19.129 -21.575  0.00  0.00    +0.001 C 
ATOM     25  H   UNL     1      33.412 -13.959 -19.611  0.00  0.00    +0.166 HD
ATOM     26  H   UNL     1      34.507 -15.777 -19.833  0.00  0.00    +0.166 HD
ATOM     27  H   UNL     1      33.326 -14.371 -27.450  0.00  0.00    +0.150 HD
ENDROOT
TORSDOF 0
ENDMDL
MODEL 3
REMARK VINA RESULT:     -12.9      0.929      5.959
REMARK  Name = 3815
REMARK  0 active torsions:
REMARK  status: ('A' for Active; 'I' for Inactive)
REMARK                            x       y       z     vdW  Elec       q    Type
REMARK                         _______ _______ _______ _____ _____    ______ ____
ROOT
ATOM      1  O   UNL     1      32.829 -24.954 -13.638  0.00  0.00    -0.270 OA
ATOM      2  N   UNL     1      36.743 -22.143 -18.085  0.00  0.00    -0.352 N 
ATOM      3  N   UNL     1      37.643 -23.473 -15.806  0.00  0.00    -0.352 N 
ATOM      4  N   UNL     1      31.658 -23.941 -15.401  0.00  0.00    -0.297 N 
ATOM      5  C   UNL     1      33.465 -23.175 -16.567  0.00  0.00    +0.003 A 
ATOM      6  C   UNL     1      34.453 -22.643 -17.395  0.00  0.00    +0.016 A 
ATOM      7  C   UNL     1      35.310 -23.915 -15.216  0.00  0.00    +0.022 A 
ATOM      8  C   UNL     1      35.872 -22.699 -17.212  0.00  0.00    +0.072 A 
ATOM      9  C   UNL     1      33.934 -23.839 -15.430  0.00  0.00    +0.053 A 
ATOM     10  C   UNL     1      36.322 -23.365 -16.070  0.00  0.00    +0.073 A 
ATOM     11  C   UNL     1      31.974 -23.205 -16.611  0.00  0.00    +0.117 C 
ATOM     12  C   UNL     1      34.511 -21.888 -18.651  0.00  0.00    +0.017 A 
ATOM     13  C   UNL     1      36.258 -24.466 -14.234  0.00  0.00    +0.017 A 
ATOM     14  C   UNL     1      35.868 -21.613 -19.025  0.00  0.00    +0.057 A 
ATOM     15  C   UNL     1      37.614 -24.185 -14.617  0.00  0.00    +0.057 A 
ATOM     16  C   UNL     1      32.784 -24.331 -14.680  0.00  0.00    +0.246 C 
ATOM     17  C   UNL     1      33.486 -21.415 -19.505  0.00  0.00    +0.001 C 
ATOM     18  C   UNL     1      36.065 -25.192 -13.034  0.00  0.00    +0.001 C 
ATOM     19  C   UNL     1      36.178 -20.902 -20.193  0.00  0.00    +0.017 C 
ATOM     20  C   UNL     1      38.703 -24.607 -13.840  0.00  0.00    +0.017 C 
ATOM     21  C   UNL     1      33.807 -20.707 -20.667  0.00  0.00    +0.000 C 
ATOM     22  C   UNL     1      37.159 -25.607 -12.266  0.00  0.00    +0.000 C 
ATOM     23  C   UNL     1      35.132 -20.455 -21.003  0.00  0.00    +0.001 C 
ATOM     24  C   UNL     1      38.458 -25.319 -12.666  0.00  0.00    +0.001 C 
ATOM     25  H   UNL     1      37.727 -22.119 -18.062  0.00  0.00    +0.166 HD
ATOM     26  H   UNL     1      38.414 -23.139 -16.318  0.00  0.00    +0.166 HD
ATOM     27  H   UNL     1      30.737 -24.145 -15.118  0.00  0.00    +0.150 HD
ENDROOT
TORSDOF 0
ENDMDL
MODEL 4
REMARK VINA RESULT:     -12.8      2.223      4.765
REMARK  Name = 3815
REMARK  0 active torsions:
REMARK  status: ('A' for Active; 'I' for Inactive)
REMARK                            x       y       z     vdW  Elec       q    Type
REMARK                         _______ _______ _______ _____ _____    ______ ____
ROOT
ATOM      1  O   UNL     1      37.668 -22.586 -16.752  0.00  0.00    -0.270 OA
ATOM      2  N   UNL     1      31.167 -23.096 -17.444  0.00  0.00    -0.352 N 
ATOM      3  N   UNL     1      32.846 -21.778 -19.237  0.00  0.00    -0.352 N 
ATOM      4  N   UNL     1      36.637 -23.777 -15.013  0.00  0.00    -0.297 N 
ATOM      5  C   UNL     1      34.489 -23.628 -15.772  0.00  0.00    +0.003 A 
ATOM      6  C   UNL     1      33.132 -23.629 -16.093  0.00  0.00    +0.016 A 
ATOM      7  C   UNL     1      34.741 -22.369 -17.805  0.00  0.00    +0.022 A 
ATOM      8  C   UNL     1      32.502 -23.033 -17.232  0.00  0.00    +0.072 A 
ATOM      9  C   UNL     1      35.317 -22.963 -16.682  0.00  0.00    +0.053 A 
ATOM     10  C   UNL     1      33.344 -22.373 -18.130  0.00  0.00    +0.073 A 
ATOM     11  C   UNL     1      35.294 -24.188 -14.648  0.00  0.00    +0.117 C 
ATOM     12  C   UNL     1      31.890 -24.153 -15.515  0.00  0.00    +0.017 A 
ATOM     13  C   UNL     1      35.145 -21.597 -18.990  0.00  0.00    +0.017 A 
ATOM     14  C   UNL     1      30.760 -23.822 -16.332  0.00  0.00    +0.057 A 
ATOM     15  C   UNL     1      34.006 -21.270 -19.803  0.00  0.00    +0.057 A 
ATOM     16  C   UNL     1      36.690 -23.055 -16.202  0.00  0.00    +0.246 C 
ATOM     17  C   UNL     1      31.652 -24.897 -14.334  0.00  0.00    +0.001 C 
ATOM     18  C   UNL     1      36.409 -21.145 -19.442  0.00  0.00    +0.001 C 
ATOM     19  C   UNL     1      29.461 -24.217 -15.984  0.00  0.00    +0.017 C 
ATOM     20  C   UNL     1      34.133 -20.536 -20.991  0.00  0.00    +0.017 C 
ATOM     21  C   UNL     1      30.352 -25.286 -13.996  0.00  0.00    +0.000 C 
ATOM     22  C   UNL     1      36.524 -20.412 -20.628  0.00  0.00    +0.000 C 
ATOM     23  C   UNL     1      29.276 -24.950 -14.809  0.00  0.00    +0.001 C 
ATOM     24  C   UNL     1      35.401 -20.114 -21.390  0.00  0.00    +0.001 C 
ATOM     25  H   UNL     1      30.630 -22.728 -18.183  0.00  0.00    +0.166 HD
ATOM     26  H   UNL     1      31.917 -21.720 -19.554  0.00  0.00    +0.166 HD
ATOM     27  H   UNL     1      37.432 -23.989 -14.473  0.00  0.00    +0.150 HD
ENDROOT
TORSDOF 0
ENDMDL
MODEL 5
REMARK VINA RESULT:     -12.7      2.114      6.651
REMARK  Name = 3815
REMARK  0 active torsions:
REMARK  status: ('A' for Active; 'I' for Inactive)
REMARK                            x       y       z     vdW  Elec       q    Type
REMARK                         _______ _______ _______ _____ _____    ______ ____
ROOT
ATOM      1  O   UNL     1      35.928 -24.312 -14.392  0.00  0.00    -0.270 OA
ATOM      2  N   UNL     1      32.746 -21.567 -19.426  0.00  0.00    -0.352 N 
ATOM      3  N   UNL     1      31.516 -22.985 -17.365  0.00  0.00    -0.352 N 
ATOM      4  N   UNL     1      37.348 -23.215 -15.905  0.00  0.00    -0.297 N 
ATOM      5  C   UNL     1      35.745 -22.497 -17.363  0.00  0.00    +0.003 A 
ATOM      6  C   UNL     1      34.897 -21.987 -18.345  0.00  0.00    +0.016 A 
ATOM      7  C   UNL     1      33.724 -23.343 -16.373  0.00  0.00    +0.022 A 
ATOM      8  C   UNL     1      33.472 -22.106 -18.420  0.00  0.00    +0.072 A 
ATOM      9  C   UNL     1      35.111 -23.204 -16.337  0.00  0.00    +0.053 A 
ATOM     10  C   UNL     1      32.856 -22.816 -17.386  0.00  0.00    +0.073 A 
ATOM     11  C   UNL     1      37.219 -22.465 -17.141  0.00  0.00    +0.117 C 
ATOM     12  C   UNL     1      35.029 -21.208 -19.581  0.00  0.00    +0.017 A 
ATOM     13  C   UNL     1      32.642 -23.956 -15.586  0.00  0.00    +0.017 A 
ATOM     14  C   UNL     1      33.749 -20.982 -20.187  0.00  0.00    +0.057 A 
ATOM     15  C   UNL     1      31.365 -23.723 -16.201  0.00  0.00    +0.057 A 
ATOM     16  C   UNL     1      36.130 -23.666 -15.402  0.00  0.00    +0.246 C 
ATOM     17  C   UNL     1      36.168 -20.675 -20.232  0.00  0.00    +0.001 C 
ATOM     18  C   UNL     1      32.650 -24.700 -14.381  0.00  0.00    +0.001 C 
ATOM     19  C   UNL     1      33.621 -20.258 -21.381  0.00  0.00    +0.017 C 
ATOM     20  C   UNL     1      30.175 -24.210 -15.639  0.00  0.00    +0.017 C 
ATOM     21  C   UNL     1      36.027 -19.955 -21.422  0.00  0.00    +0.000 C 
ATOM     22  C   UNL     1      31.458 -25.181 -13.830  0.00  0.00    +0.000 C 
ATOM     23  C   UNL     1      34.774 -19.752 -21.986  0.00  0.00    +0.001 C 
ATOM     24  C   UNL     1      30.239 -24.938 -14.451  0.00  0.00    +0.001 C 
ATOM     25  H   UNL     1      31.774 -21.585 -19.579  0.00  0.00    +0.166 HD
ATOM     26  H   UNL     1      30.833 -22.670 -18.000  0.00  0.00    +0.166 HD
ATOM     27  H   UNL     1      38.212 -23.387 -15.464  0.00  0.00    +0.150 HD
ENDROOT
TORSDOF 0
ENDMDL
MODEL 6
REMARK VINA RESULT:     -11.9      1.708      4.521
REMARK  Name = 3815
REMARK  0 active torsions:
REMARK  status: ('A' for Active; 'I' for Inactive)
REMARK                            x       y       z     vdW  Elec       q    Type
REMARK                         _______ _______ _______ _____ _____    ______ ____
ROOT
ATOM      1  O   UNL     1      32.693 -22.084 -18.647  0.00  0.00    -0.270 OA
ATOM      2  N   UNL     1      35.333 -25.283 -13.568  0.00  0.00    -0.352 N 
ATOM      3  N   UNL     1      32.595 -25.079 -14.054  0.00  0.00    -0.352 N 
ATOM      4  N   UNL     1      35.038 -22.007 -18.615  0.00  0.00    -0.297 N 
ATOM      5  C   UNL     1      35.358 -23.232 -16.715  0.00  0.00    +0.003 A 
ATOM      6  C   UNL     1      35.725 -23.956 -15.581  0.00  0.00    +0.016 A 
ATOM      7  C   UNL     1      33.109 -23.759 -16.050  0.00  0.00    +0.022 A 
ATOM      8  C   UNL     1      34.863 -24.604 -14.640  0.00  0.00    +0.072 A 
ATOM      9  C   UNL     1      33.982 -23.140 -16.944  0.00  0.00    +0.053 A 
ATOM     10  C   UNL     1      33.492 -24.502 -14.884  0.00  0.00    +0.073 A 
ATOM     11  C   UNL     1      36.113 -22.507 -17.778  0.00  0.00    +0.117 C 
ATOM     12  C   UNL     1      36.970 -24.342 -14.909  0.00  0.00    +0.017 A 
ATOM     13  C   UNL     1      31.663 -23.947 -15.850  0.00  0.00    +0.017 A 
ATOM     14  C   UNL     1      36.702 -25.118 -13.733  0.00  0.00    +0.057 A 
ATOM     15  C   UNL     1      31.405 -24.725 -14.671  0.00  0.00    +0.057 A 
ATOM     16  C   UNL     1      33.771 -22.358 -18.157  0.00  0.00    +0.246 C 
ATOM     17  C   UNL     1      38.324 -24.077 -15.227  0.00  0.00    +0.001 C 
ATOM     18  C   UNL     1      30.539 -23.510 -16.592  0.00  0.00    +0.001 C 
ATOM     19  C   UNL     1      37.737 -25.603 -12.922  0.00  0.00    +0.017 C 
ATOM     20  C   UNL     1      30.099 -25.042 -14.265  0.00  0.00    +0.017 C 
ATOM     21  C   UNL     1      39.348 -24.567 -14.411  0.00  0.00    +0.000 C 
ATOM     22  C   UNL     1      29.241 -23.830 -16.178  0.00  0.00    +0.000 C 
ATOM     23  C   UNL     1      39.057 -25.317 -13.277  0.00  0.00    +0.001 C 
ATOM     24  C   UNL     1      29.027 -24.585 -15.032  0.00  0.00    +0.001 C 
ATOM     25  H   UNL     1      34.840 -25.762 -12.863  0.00  0.00    +0.166 HD
ATOM     26  H   UNL     1      32.745 -25.606 -13.237  0.00  0.00    +0.166 HD
ATOM     27  H   UNL     1      35.190 -21.471 -19.427  0.00  0.00    +0.150 HD
ENDROOT
TORSDOF 0
ENDMDL
MODEL 7
REMARK VINA RESULT:     -11.6      2.066      6.277
REMARK  Name = 3815
REMARK  0 active torsions:
REMARK  status: ('A' for Active; 'I' for Inactive)
REMARK                            x       y       z     vdW  Elec       q    Type
REMARK                         _______ _______ _______ _____ _____    ______ ____
ROOT
ATOM      1  O   UNL     1      37.052 -22.333 -17.881  0.00  0.00    -0.270 OA
ATOM      2  N   UNL     1      32.506 -25.111 -14.057  0.00  0.00    -0.352 N 
ATOM      3  N   UNL     1      35.253 -25.249 -13.599  0.00  0.00    -0.352 N 
ATOM      4  N   UNL     1      34.858 -21.973 -18.631  0.00  0.00    -0.297 N 
ATOM      5  C   UNL     1      33.778 -23.121 -16.978  0.00  0.00    +0.003 A 
ATOM      6  C   UNL     1      32.970 -23.776 -16.050  0.00  0.00    +0.016 A 
ATOM      7  C   UNL     1      35.596 -23.906 -15.615  0.00  0.00    +0.022 A 
ATOM      8  C   UNL     1      33.384 -24.511 -14.893  0.00  0.00    +0.072 A 
ATOM      9  C   UNL     1      35.152 -23.199 -16.733  0.00  0.00    +0.053 A 
ATOM     10  C   UNL     1      34.760 -24.579 -14.665  0.00  0.00    +0.073 A 
ATOM     11  C   UNL     1      33.514 -22.327 -18.213  0.00  0.00    +0.117 C 
ATOM     12  C   UNL     1      31.535 -23.999 -15.842  0.00  0.00    +0.017 A 
ATOM     13  C   UNL     1      36.859 -24.268 -14.952  0.00  0.00    +0.017 A 
ATOM     14  C   UNL     1      31.301 -24.785 -14.665  0.00  0.00    +0.057 A 
ATOM     15  C   UNL     1      36.614 -25.054 -13.776  0.00  0.00    +0.057 A 
ATOM     16  C   UNL     1      35.848 -22.468 -17.786  0.00  0.00    +0.246 C 
ATOM     17  C   UNL     1      30.407 -23.578 -16.586  0.00  0.00    +0.001 C 
ATOM     18  C   UNL     1      38.210 -23.982 -15.266  0.00  0.00    +0.001 C 
ATOM     19  C   UNL     1      30.004 -25.128 -14.259  0.00  0.00    +0.017 C 
ATOM     20  C   UNL     1      37.662 -25.523 -12.969  0.00  0.00    +0.017 C 
ATOM     21  C   UNL     1      29.118 -23.927 -16.171  0.00  0.00    +0.000 C 
ATOM     22  C   UNL     1      39.247 -24.455 -14.455  0.00  0.00    +0.000 C 
ATOM     23  C   UNL     1      28.923 -24.690 -15.026  0.00  0.00    +0.001 C 
ATOM     24  C   UNL     1      38.975 -25.213 -13.324  0.00  0.00    +0.001 C 
ATOM     25  H   UNL     1      32.674 -25.637 -13.242  0.00  0.00    +0.166 HD
ATOM     26  H   UNL     1      34.776 -25.741 -12.892  0.00  0.00    +0.166 HD
ATOM     27  H   UNL     1      35.051 -21.436 -19.433  0.00  0.00    +0.150 HD
ENDROOT
TORSDOF 0
ENDMDL
MODEL 8
REMARK VINA RESULT:     -11.2      7.911     11.373
REMARK  Name = 3815
REMARK  0 active torsions:
REMARK  status: ('A' for Active; 'I' for Inactive)
REMARK                            x       y       z     vdW  Elec       q    Type
REMARK                         _______ _______ _______ _____ _____    ______ ____
ROOT
ATOM      1  O   UNL     1      32.505 -12.640 -25.943  0.00  0.00    -0.270 OA
ATOM      2  N   UNL     1      34.613 -16.174 -20.837  0.00  0.00    -0.352 N 
ATOM      3  N   UNL     1      33.199 -13.781 -20.624  0.00  0.00    -0.352 N 
ATOM      4  N   UNL     1      33.656 -14.587 -26.570  0.00  0.00    -0.297 N 
ATOM      5  C   UNL     1      34.118 -15.357 -24.470  0.00  0.00    +0.003 A 
ATOM      6  C   UNL     1      34.480 -15.963 -23.268  0.00  0.00    +0.016 A 
ATOM      7  C   UNL     1      33.127 -13.675 -23.068  0.00  0.00    +0.022 A 
ATOM      8  C   UNL     1      34.211 -15.500 -21.940  0.00  0.00    +0.072 A 
ATOM      9  C   UNL     1      33.409 -14.159 -24.345  0.00  0.00    +0.053 A 
ATOM     10  C   UNL     1      33.503 -14.301 -21.834  0.00  0.00    +0.073 A 
ATOM     11  C   UNL     1      34.316 -15.698 -25.909  0.00  0.00    +0.117 C 
ATOM     12  C   UNL     1      35.197 -17.171 -22.845  0.00  0.00    +0.017 A 
ATOM     13  C   UNL     1      32.455 -12.531 -22.430  0.00  0.00    +0.017 A 
ATOM     14  C   UNL     1      35.255 -17.261 -21.415  0.00  0.00    +0.057 A 
ATOM     15  C   UNL     1      32.519 -12.631 -20.999  0.00  0.00    +0.057 A 
ATOM     16  C   UNL     1      33.111 -13.661 -25.683  0.00  0.00    +0.246 C 
ATOM     17  C   UNL     1      35.806 -18.205 -23.594  0.00  0.00    +0.001 C 
ATOM     18  C   UNL     1      31.787 -11.405 -22.967  0.00  0.00    +0.001 C 
ATOM     19  C   UNL     1      35.892 -18.333 -20.773  0.00  0.00    +0.017 C 
ATOM     20  C   UNL     1      31.949 -11.659 -20.164  0.00  0.00    +0.017 C 
ATOM     21  C   UNL     1      36.438 -19.269 -22.944  0.00  0.00    +0.000 C 
ATOM     22  C   UNL     1      31.222 -10.440 -22.126  0.00  0.00    +0.000 C 
ATOM     23  C   UNL     1      36.479 -19.330 -21.556  0.00  0.00    +0.001 C 
ATOM     24  C   UNL     1      31.303 -10.568 -20.745  0.00  0.00    +0.001 C 
ATOM     25  H   UNL     1      34.487 -15.954 -19.886  0.00  0.00    +0.166 HD
ATOM     26  H   UNL     1      33.404 -14.123 -19.724  0.00  0.00    +0.166 HD
ATOM     27  H   UNL     1      33.599 -14.496 -27.548  0.00  0.00    +0.150 HD
ENDROOT
TORSDOF 0
ENDMDL
