MODEL 1
REMARK VINA RESULT:     -13.6      0.000      0.000
REMARK  Name = 24780387
REMARK  3 active torsions:
REMARK  status: ('A' for Active; 'I' for Inactive)
REMARK    1  A    between atoms: N_3  and  C_25
REMARK    2  A    between atoms: C_18  and  O_23
REMARK    3  A    between atoms: C_25  and  N_26
REMARK                            x       y       z     vdW  Elec       q    Type
REMARK                         _______ _______ _______ _____ _____    ______ ____
ROOT
ATOM      1  O   UNL     1      32.588 -24.953 -12.960  0.00  0.00    -0.270 OA
ATOM      2  O   UNL     1      36.099 -23.468 -15.572  0.00  0.00    -0.270 OA
ATOM      3  N   UNL     1      34.613 -24.343 -13.989  0.00  0.00    -0.244 N 
ATOM      4  N   UNL     1      32.142 -22.013 -18.702  0.00  0.00    -0.353 N 
ATOM      5  C   UNL     1      31.383 -23.747 -15.472  0.00  0.00    -0.020 A 
ATOM      6  C   UNL     1      31.108 -23.118 -16.695  0.00  0.00    -0.010 A 
ATOM      7  C   UNL     1      32.686 -23.884 -15.076  0.00  0.00    +0.054 A 
ATOM      8  C   UNL     1      30.121 -24.133 -14.773  0.00  0.00    +0.027 C 
ATOM      9  C   UNL     1      29.624 -23.023 -16.916  0.00  0.00    +0.028 C 
ATOM     10  C   UNL     1      32.165 -22.654 -17.491  0.00  0.00    +0.052 A 
ATOM     11  C   UNL     1      33.735 -23.427 -15.873  0.00  0.00    +0.059 A 
ATOM     12  C   UNL     1      29.109 -24.079 -15.928  0.00  0.00    +0.009 C 
ATOM     13  C   UNL     1      33.512 -22.795 -17.111  0.00  0.00    +0.024 A 
ATOM     14  C   UNL     1      33.250 -24.471 -13.861  0.00  0.00    +0.253 C 
ATOM     15  C   UNL     1      34.982 -23.727 -15.167  0.00  0.00    +0.253 C 
ATOM     16  C   UNL     1      34.302 -22.215 -18.162  0.00  0.00    +0.051 A 
ATOM     17  C   UNL     1      33.417 -21.739 -19.134  0.00  0.00    +0.060 A 
ATOM     18  C   UNL     1      35.684 -22.040 -18.395  0.00  0.00    +0.140 C 
ATOM     19  C   UNL     1      33.840 -21.105 -20.310  0.00  0.00    +0.017 C 
ATOM     20  C   UNL     1      36.123 -21.409 -19.566  0.00  0.00    +0.037 C 
ATOM     21  C   UNL     1      35.211 -20.948 -20.510  0.00  0.00    +0.005 C 
ATOM     22  H   UNL     1      31.324 -21.780 -19.198  0.00  0.00    +0.166 HD
ENDROOT
BRANCH  18  23
ATOM     23  O   UNL     1      36.682 -22.452 -17.557  0.00  0.00    -0.471 OA
ATOM     24  C   UNL     1      37.493 -21.437 -16.973  0.00  0.00    +0.252 C 
ENDBRANCH  18  23
BRANCH   3  25
ATOM     25  C   UNL     1      35.571 -24.798 -12.999  0.00  0.00    +0.028 C 
BRANCH  25  26
ATOM     26  N   UNL     1      36.865 -25.004 -13.647  0.00  0.00    +0.396 N 
ATOM     27  N   UNL     1      39.458 -26.260 -13.879  0.00  0.00    +0.383 N 
ATOM     28  C   UNL     1      37.964 -24.658 -12.737  0.00  0.00    -0.098 C 
ATOM     29  C   UNL     1      37.001 -26.390 -14.111  0.00  0.00    -0.098 C 
ATOM     30  C   UNL     1      39.322 -24.875 -13.413  0.00  0.00    -0.101 C 
ATOM     31  C   UNL     1      38.359 -26.607 -14.788  0.00  0.00    -0.101 C 
ATOM     32  C   UNL     1      40.752 -26.464 -14.527  0.00  0.00    -0.101 C 
ATOM     33  H   UNL     1      36.913 -24.387 -14.457  0.00  0.00    -0.077 HD
ATOM     34  H   UNL     1      39.411 -26.877 -13.068  0.00  0.00    -0.080 HD
ENDBRANCH  25  26
ENDBRANCH   3  25
TORSDOF 3
ENDMDL
MODEL 2
REMARK VINA RESULT:     -12.9      2.199      6.604
REMARK  Name = 24780387
REMARK  3 active torsions:
REMARK  status: ('A' for Active; 'I' for Inactive)
REMARK    1  A    between atoms: N_3  and  C_25
REMARK    2  A    between atoms: C_18  and  O_23
REMARK    3  A    between atoms: C_25  and  N_26
REMARK                            x       y       z     vdW  Elec       q    Type
REMARK                         _______ _______ _______ _____ _____    ______ ____
ROOT
ATOM      1  O   UNL     1      32.688 -22.342 -19.244  0.00  0.00    -0.270 OA
ATOM      2  O   UNL     1      36.807 -22.775 -17.196  0.00  0.00    -0.270 OA
ATOM      3  N   UNL     1      34.937 -22.458 -18.567  0.00  0.00    -0.244 N 
ATOM      4  N   UNL     1      33.772 -23.988 -13.085  0.00  0.00    -0.353 N 
ATOM      5  C   UNL     1      32.169 -23.109 -16.353  0.00  0.00    -0.020 A 
ATOM      6  C   UNL     1      32.225 -23.484 -15.003  0.00  0.00    -0.010 A 
ATOM      7  C   UNL     1      33.339 -22.903 -17.033  0.00  0.00    +0.054 A 
ATOM      8  C   UNL     1      30.756 -23.044 -16.832  0.00  0.00    +0.027 C 
ATOM      9  C   UNL     1      30.842 -23.711 -14.462  0.00  0.00    +0.028 C 
ATOM     10  C   UNL     1      33.470 -23.629 -14.374  0.00  0.00    +0.052 A 
ATOM     11  C   UNL     1      34.575 -23.041 -16.402  0.00  0.00    +0.059 A 
ATOM     12  C   UNL     1      29.991 -22.969 -15.502  0.00  0.00    +0.009 C 
ATOM     13  C   UNL     1      34.685 -23.409 -15.048  0.00  0.00    +0.024 A 
ATOM     14  C   UNL     1      33.571 -22.530 -18.428  0.00  0.00    +0.253 C 
ATOM     15  C   UNL     1      35.608 -22.751 -17.398  0.00  0.00    +0.253 C 
ATOM     16  C   UNL     1      35.736 -23.644 -14.096  0.00  0.00    +0.051 A 
ATOM     17  C   UNL     1      35.131 -24.002 -12.887  0.00  0.00    +0.060 A 
ATOM     18  C   UNL     1      37.147 -23.592 -14.129  0.00  0.00    +0.140 C 
ATOM     19  C   UNL     1      35.856 -24.306 -11.728  0.00  0.00    +0.017 C 
ATOM     20  C   UNL     1      37.887 -23.893 -12.978  0.00  0.00    +0.037 C 
ATOM     21  C   UNL     1      37.248 -24.245 -11.794  0.00  0.00    +0.005 C 
ATOM     22  H   UNL     1      33.105 -24.206 -12.394  0.00  0.00    +0.166 HD
ENDROOT
BRANCH  18  23
ATOM     23  O   UNL     1      37.896 -23.253 -15.221  0.00  0.00    -0.471 OA
ATOM     24  C   UNL     1      39.026 -24.072 -15.505  0.00  0.00    +0.252 C 
ENDBRANCH  18  23
BRANCH   3  25
ATOM     25  C   UNL     1      35.613 -22.115 -19.804  0.00  0.00    +0.028 C 
BRANCH  25  26
ATOM     26  N   UNL     1      35.486 -20.679 -20.036  0.00  0.00    +0.396 N 
ATOM     27  N   UNL     1      35.551 -18.324 -21.713  0.00  0.00    +0.383 N 
ATOM     28  C   UNL     1      36.757 -20.112 -20.507  0.00  0.00    -0.098 C 
ATOM     29  C   UNL     1      34.413 -20.398 -20.997  0.00  0.00    -0.098 C 
ATOM     30  C   UNL     1      36.624 -18.605 -20.753  0.00  0.00    -0.101 C 
ATOM     31  C   UNL     1      34.280 -18.891 -21.242  0.00  0.00    -0.101 C 
ATOM     32  C   UNL     1      35.424 -16.886 -21.943  0.00  0.00    -0.101 C 
ATOM     33  H   UNL     1      35.247 -20.236 -19.149  0.00  0.00    -0.077 HD
ATOM     34  H   UNL     1      35.790 -18.765 -22.600  0.00  0.00    -0.080 HD
ENDBRANCH  25  26
ENDBRANCH   3  25
TORSDOF 3
ENDMDL
MODEL 3
REMARK VINA RESULT:     -11.3      2.202      7.275
REMARK  Name = 24780387
REMARK  3 active torsions:
REMARK  status: ('A' for Active; 'I' for Inactive)
REMARK    1  A    between atoms: N_3  and  C_25
REMARK    2  A    between atoms: C_18  and  O_23
REMARK    3  A    between atoms: C_25  and  N_26
REMARK                            x       y       z     vdW  Elec       q    Type
REMARK                         _______ _______ _______ _____ _____    ______ ____
ROOT
ATOM      1  O   UNL     1      31.842 -22.741 -17.525  0.00  0.00    -0.270 OA
ATOM      2  O   UNL     1      33.911 -24.899 -14.002  0.00  0.00    -0.270 OA
ATOM      3  N   UNL     1      32.514 -23.935 -15.615  0.00  0.00    -0.244 N 
ATOM      4  N   UNL     1      38.205 -23.101 -16.431  0.00  0.00    -0.353 N 
ATOM      5  C   UNL     1      34.834 -22.384 -17.894  0.00  0.00    -0.020 A 
ATOM      6  C   UNL     1      36.233 -22.357 -17.802  0.00  0.00    -0.010 A 
ATOM      7  C   UNL     1      34.118 -23.031 -16.923  0.00  0.00    +0.054 A 
ATOM      8  C   UNL     1      34.361 -21.615 -19.085  0.00  0.00    +0.027 C 
ATOM      9  C   UNL     1      36.819 -21.555 -18.931  0.00  0.00    +0.028 C 
ATOM     10  C   UNL     1      36.871 -22.999 -16.732  0.00  0.00    +0.052 A 
ATOM     11  C   UNL     1      34.757 -23.675 -15.863  0.00  0.00    +0.059 A 
ATOM     12  C   UNL     1      35.647 -21.537 -19.921  0.00  0.00    +0.009 C 
ATOM     13  C   UNL     1      36.158 -23.683 -15.730  0.00  0.00    +0.024 A 
ATOM     14  C   UNL     1      32.674 -23.196 -16.762  0.00  0.00    +0.253 C 
ATOM     15  C   UNL     1      33.715 -24.261 -15.019  0.00  0.00    +0.253 C 
ATOM     16  C   UNL     1      37.131 -24.211 -14.815  0.00  0.00    +0.051 A 
ATOM     17  C   UNL     1      38.393 -23.830 -15.283  0.00  0.00    +0.060 A 
ATOM     18  C   UNL     1      37.079 -24.977 -13.630  0.00  0.00    +0.140 C 
ATOM     19  C   UNL     1      39.586 -24.172 -14.634  0.00  0.00    +0.017 C 
ATOM     20  C   UNL     1      38.264 -25.329 -12.969  0.00  0.00    +0.037 C 
ATOM     21  C   UNL     1      39.500 -24.930 -13.466  0.00  0.00    +0.005 C 
ATOM     22  H   UNL     1      38.932 -22.706 -16.967  0.00  0.00    +0.166 HD
ENDROOT
BRANCH  18  23
ATOM     23  O   UNL     1      35.936 -25.440 -13.042  0.00  0.00    -0.471 OA
ATOM     24  C   UNL     1      35.715 -25.070 -11.684  0.00  0.00    +0.252 C 
ENDBRANCH  18  23
BRANCH   3  25
ATOM     25  C   UNL     1      31.228 -24.336 -15.075  0.00  0.00    +0.028 C 
BRANCH  25  26
ATOM     26  N   UNL     1      30.171 -23.603 -15.766  0.00  0.00    +0.396 N 
ATOM     27  N   UNL     1      27.421 -22.791 -16.142  0.00  0.00    +0.383 N 
ATOM     28  C   UNL     1      29.171 -24.526 -16.318  0.00  0.00    -0.098 C 
ATOM     29  C   UNL     1      29.531 -22.635 -14.865  0.00  0.00    -0.098 C 
ATOM     30  C   UNL     1      28.059 -23.758 -17.042  0.00  0.00    -0.101 C 
ATOM     31  C   UNL     1      28.420 -21.867 -15.590  0.00  0.00    -0.101 C 
ATOM     32  C   UNL     1      26.364 -22.057 -16.836  0.00  0.00    -0.101 C 
ATOM     33  H   UNL     1      30.595 -23.090 -16.539  0.00  0.00    -0.077 HD
ATOM     34  H   UNL     1      26.995 -23.302 -15.370  0.00  0.00    -0.080 HD
ENDBRANCH  25  26
ENDBRANCH   3  25
TORSDOF 3
ENDMDL
