MODEL 1
REMARK VINA RESULT:     -13.6      0.000      0.000
REMARK  Name = 24743471
REMARK  3 active torsions:
REMARK  status: ('A' for Active; 'I' for Inactive)
REMARK    1  A    between atoms: C_1  and  N_7
REMARK    2  A    between atoms: C_6  and  C_17
REMARK    3  A    between atoms: C_22  and  N_24
REMARK                            x       y       z     vdW  Elec       q    Type
REMARK                         _______ _______ _______ _____ _____    ______ ____
ROOT
ATOM      1  C   UNL     1      36.182 -23.324 -16.071  0.00  0.00    +0.048 C 
ATOM      2  C   UNL     1      34.960 -23.348 -16.743  0.00  0.00    +0.015 C 
ATOM      3  C   UNL     1      37.218 -22.514 -16.538  0.00  0.00    +0.015 C 
ATOM      4  C   UNL     1      34.774 -22.565 -17.883  0.00  0.00    +0.001 C 
ATOM      5  C   UNL     1      37.032 -21.731 -17.677  0.00  0.00    +0.001 C 
ATOM      6  C   UNL     1      35.810 -21.757 -18.349  0.00  0.00    +0.000 C 
ENDROOT
BRANCH   1   7
ATOM      7  N   UNL     1      36.367 -24.098 -14.943  0.00  0.00    -0.311 N 
ATOM      8  N   UNL     1      39.008 -26.289 -14.298  0.00  0.00    +0.387 N 
ATOM      9  C   UNL     1      36.895 -25.889 -13.470  0.00  0.00    -0.003 C 
ATOM     10  C   UNL     1      36.881 -25.471 -14.951  0.00  0.00    +0.050 C 
ATOM     11  C   UNL     1      35.990 -24.896 -12.763  0.00  0.00    +0.021 C 
ATOM     12  C   UNL     1      38.363 -25.827 -13.070  0.00  0.00    -0.076 C 
ATOM     13  C   UNL     1      38.351 -25.548 -15.380  0.00  0.00    -0.057 C 
ATOM     14  C   UNL     1      36.114 -23.619 -13.586  0.00  0.00    +0.091 C 
ATOM     15  C   UNL     1      40.449 -26.087 -14.280  0.00  0.00    -0.101 C 
ATOM     16  H   UNL     1      38.902 -27.297 -14.419  0.00  0.00    -0.080 HD
ENDBRANCH   1   7
BRANCH   6  17
ATOM     17  C   UNL     1      35.618 -20.943 -19.531  0.00  0.00    +0.000 C 
ATOM     18  C   UNL     1      36.699 -20.264 -20.092  0.00  0.00    +0.001 C 
ATOM     19  C   UNL     1      34.352 -20.838 -20.107  0.00  0.00    +0.001 C 
ATOM     20  C   UNL     1      36.515 -19.480 -21.231  0.00  0.00    +0.017 C 
ATOM     21  C   UNL     1      34.167 -20.054 -21.246  0.00  0.00    +0.017 C 
ATOM     22  C   UNL     1      35.249 -19.375 -21.807  0.00  0.00    +0.077 C 
BRANCH  22  24
ATOM     23  O   UNL     1      34.951 -20.240 -24.639  0.00  0.00    -0.268 OA
ATOM     24  N   UNL     1      35.058 -18.563 -22.987  0.00  0.00    -0.155 N 
ATOM     25  N   UNL     1      34.972 -17.218 -22.713  0.00  0.00    -0.170 NA
ATOM     26  C   UNL     1      34.953 -19.059 -24.291  0.00  0.00    +0.272 C 
ATOM     27  C   UNL     1      34.811 -18.055 -25.376  0.00  0.00    +0.062 C 
ATOM     28  C   UNL     1      34.827 -16.401 -23.698  0.00  0.00    +0.118 C 
ATOM     29  C   UNL     1      34.746 -16.756 -25.110  0.00  0.00    +0.027 C 
ENDBRANCH  22  24
ENDBRANCH   6  17
TORSDOF 3
ENDMDL
MODEL 2
REMARK VINA RESULT:     -12.1      1.502      2.434
REMARK  Name = 24743471
REMARK  3 active torsions:
REMARK  status: ('A' for Active; 'I' for Inactive)
REMARK    1  A    between atoms: C_1  and  N_7
REMARK    2  A    between atoms: C_6  and  C_17
REMARK    3  A    between atoms: C_22  and  N_24
REMARK                            x       y       z     vdW  Elec       q    Type
REMARK                         _______ _______ _______ _____ _____    ______ ____
ROOT
ATOM      1  C   UNL     1      36.647 -23.714 -15.941  0.00  0.00    +0.048 C 
ATOM      2  C   UNL     1      35.370 -23.677 -16.499  0.00  0.00    +0.015 C 
ATOM      3  C   UNL     1      37.662 -22.915 -16.468  0.00  0.00    +0.015 C 
ATOM      4  C   UNL     1      35.106 -22.842 -17.585  0.00  0.00    +0.001 C 
ATOM      5  C   UNL     1      37.398 -22.079 -17.554  0.00  0.00    +0.001 C 
ATOM      6  C   UNL     1      36.120 -22.043 -18.111  0.00  0.00    +0.000 C 
ENDROOT
BRANCH   1   7
ATOM      7  N   UNL     1      36.909 -24.540 -14.865  0.00  0.00    -0.311 N 
ATOM      8  N   UNL     1      37.362 -23.590 -11.536  0.00  0.00    +0.387 N 
ATOM      9  C   UNL     1      37.777 -25.442 -12.843  0.00  0.00    -0.003 C 
ATOM     10  C   UNL     1      37.832 -24.218 -13.774  0.00  0.00    +0.050 C 
ATOM     11  C   UNL     1      37.165 -26.554 -13.676  0.00  0.00    +0.021 C 
ATOM     12  C   UNL     1      36.937 -24.983 -11.658  0.00  0.00    -0.076 C 
ATOM     13  C   UNL     1      37.334 -23.058 -12.903  0.00  0.00    -0.057 C 
ATOM     14  C   UNL     1      36.253 -25.830 -14.661  0.00  0.00    +0.091 C 
ATOM     15  C   UNL     1      36.520 -22.829 -10.626  0.00  0.00    -0.101 C 
ATOM     16  H   UNL     1      38.295 -23.519 -11.127  0.00  0.00    -0.080 HD
ENDBRANCH   1   7
BRANCH   6  17
ATOM     17  C   UNL     1      35.848 -21.176 -19.238  0.00  0.00    +0.000 C 
ATOM     18  C   UNL     1      34.550 -21.072 -19.739  0.00  0.00    +0.001 C 
ATOM     19  C   UNL     1      36.882 -20.446 -19.822  0.00  0.00    +0.001 C 
ATOM     20  C   UNL     1      34.287 -20.237 -20.824  0.00  0.00    +0.017 C 
ATOM     21  C   UNL     1      36.619 -19.610 -20.908  0.00  0.00    +0.017 C 
ATOM     22  C   UNL     1      35.321 -19.506 -21.409  0.00  0.00    +0.077 C 
BRANCH  22  24
ATOM     23  O   UNL     1      35.194 -16.535 -21.488  0.00  0.00    -0.268 OA
ATOM     24  N   UNL     1      35.049 -18.641 -22.533  0.00  0.00    -0.155 N 
ATOM     25  N   UNL     1      34.865 -19.324 -23.713  0.00  0.00    -0.170 NA
ATOM     26  C   UNL     1      34.983 -17.245 -22.471  0.00  0.00    +0.272 C 
ATOM     27  C   UNL     1      34.638 -16.537 -23.729  0.00  0.00    +0.062 C 
ATOM     28  C   UNL     1      34.590 -18.649 -24.775  0.00  0.00    +0.118 C 
ATOM     29  C   UNL     1      34.444 -17.201 -24.863  0.00  0.00    +0.027 C 
ENDBRANCH  22  24
ENDBRANCH   6  17
TORSDOF 3
ENDMDL
MODEL 3
REMARK VINA RESULT:     -11.7      6.641     11.381
REMARK  Name = 24743471
REMARK  3 active torsions:
REMARK  status: ('A' for Active; 'I' for Inactive)
REMARK    1  A    between atoms: C_1  and  N_7
REMARK    2  A    between atoms: C_6  and  C_17
REMARK    3  A    between atoms: C_22  and  N_24
REMARK                            x       y       z     vdW  Elec       q    Type
REMARK                         _______ _______ _______ _____ _____    ______ ____
ROOT
ATOM      1  C   UNL     1      34.227 -15.722 -23.621  0.00  0.00    +0.048 C 
ATOM      2  C   UNL     1      33.526 -15.005 -24.591  0.00  0.00    +0.015 C 
ATOM      3  C   UNL     1      34.530 -15.125 -22.396  0.00  0.00    +0.015 C 
ATOM      4  C   UNL     1      33.128 -13.692 -24.337  0.00  0.00    +0.001 C 
ATOM      5  C   UNL     1      34.131 -13.813 -22.142  0.00  0.00    +0.001 C 
ATOM      6  C   UNL     1      33.430 -13.097 -23.113  0.00  0.00    +0.000 C 
ENDROOT
BRANCH   1   7
ATOM      7  N   UNL     1      34.621 -17.021 -23.870  0.00  0.00    -0.311 N 
ATOM      8  N   UNL     1      35.084 -19.572 -21.531  0.00  0.00    +0.387 N 
ATOM      9  C   UNL     1      35.661 -19.156 -23.722  0.00  0.00    -0.003 C 
ATOM     10  C   UNL     1      35.541 -17.789 -23.026  0.00  0.00    +0.050 C 
ATOM     11  C   UNL     1      35.150 -18.933 -25.135  0.00  0.00    +0.021 C 
ATOM     12  C   UNL     1      34.817 -20.094 -22.870  0.00  0.00    -0.076 C 
ATOM     13  C   UNL     1      34.946 -18.117 -21.651  0.00  0.00    -0.057 C 
ATOM     14  C   UNL     1      34.125 -17.812 -24.995  0.00  0.00    +0.091 C 
ATOM     15  C   UNL     1      34.195 -20.134 -20.526  0.00  0.00    -0.101 C 
ATOM     16  H   UNL     1      36.017 -19.832 -21.208  0.00  0.00    -0.080 HD
ENDBRANCH   1   7
BRANCH   6  17
ATOM     17  C   UNL     1      33.017 -11.735 -22.849  0.00  0.00    +0.000 C 
ATOM     18  C   UNL     1      33.639 -10.678 -23.514  0.00  0.00    +0.001 C 
ATOM     19  C   UNL     1      31.999 -11.481 -21.931  0.00  0.00    +0.001 C 
ATOM     20  C   UNL     1      33.242  -9.365 -23.260  0.00  0.00    +0.017 C 
ATOM     21  C   UNL     1      31.602 -10.168 -21.677  0.00  0.00    +0.017 C 
ATOM     22  C   UNL     1      32.224  -9.110 -22.341  0.00  0.00    +0.077 C 
BRANCH  22  24
ATOM     23  O   UNL     1      32.430  -7.555 -19.813  0.00  0.00    -0.268 OA
ATOM     24  N   UNL     1      31.812  -7.751 -22.078  0.00  0.00    -0.155 N 
ATOM     25  N   UNL     1      31.293  -7.116 -23.183  0.00  0.00    -0.170 NA
ATOM     26  C   UNL     1      31.925  -7.105 -20.842  0.00  0.00    +0.272 C 
ATOM     27  C   UNL     1      31.396  -5.720 -20.762  0.00  0.00    +0.062 C 
ATOM     28  C   UNL     1      30.871  -5.906 -23.052  0.00  0.00    +0.118 C 
ATOM     29  C   UNL     1      30.879  -5.117 -21.826  0.00  0.00    +0.027 C 
ENDBRANCH  22  24
ENDBRANCH   6  17
TORSDOF 3
ENDMDL
MODEL 4
REMARK VINA RESULT:     -11.6      2.667     10.456
REMARK  Name = 24743471
REMARK  3 active torsions:
REMARK  status: ('A' for Active; 'I' for Inactive)
REMARK    1  A    between atoms: C_1  and  N_7
REMARK    2  A    between atoms: C_6  and  C_17
REMARK    3  A    between atoms: C_22  and  N_24
REMARK                            x       y       z     vdW  Elec       q    Type
REMARK                         _______ _______ _______ _____ _____    ______ ____
ROOT
ATOM      1  C   UNL     1      35.587 -19.675 -21.293  0.00  0.00    +0.048 C 
ATOM      2  C   UNL     1      36.860 -19.689 -20.725  0.00  0.00    +0.015 C 
ATOM      3  C   UNL     1      34.563 -20.438 -20.729  0.00  0.00    +0.015 C 
ATOM      4  C   UNL     1      37.112 -20.465 -19.593  0.00  0.00    +0.001 C 
ATOM      5  C   UNL     1      34.815 -21.214 -19.597  0.00  0.00    +0.001 C 
ATOM      6  C   UNL     1      36.089 -21.227 -19.030  0.00  0.00    +0.000 C 
ENDROOT
BRANCH   1   7
ATOM      7  N   UNL     1      35.336 -18.907 -22.412  0.00  0.00    -0.311 N 
ATOM      8  N   UNL     1      34.373 -15.551 -22.496  0.00  0.00    +0.387 N 
ATOM      9  C   UNL     1      34.396 -17.345 -23.941  0.00  0.00    -0.003 C 
ATOM     10  C   UNL     1      34.258 -17.919 -22.520  0.00  0.00    +0.050 C 
ATOM     11  C   UNL     1      35.261 -18.341 -24.694  0.00  0.00    +0.021 C 
ATOM     12  C   UNL     1      35.018 -15.970 -23.739  0.00  0.00    -0.076 C 
ATOM     13  C   UNL     1      34.471 -16.710 -21.602  0.00  0.00    -0.057 C 
ATOM     14  C   UNL     1      36.155 -18.953 -23.622  0.00  0.00    +0.091 C 
ATOM     15  C   UNL     1      34.981 -14.358 -21.928  0.00  0.00    -0.101 C 
ATOM     16  H   UNL     1      33.400 -15.283 -22.652  0.00  0.00    -0.080 HD
ENDBRANCH   1   7
BRANCH   6  17
ATOM     17  C   UNL     1      36.349 -22.033 -17.856  0.00  0.00    +0.000 C 
ATOM     18  C   UNL     1      35.313 -22.756 -17.264  0.00  0.00    +0.001 C 
ATOM     19  C   UNL     1      37.634 -22.085 -17.316  0.00  0.00    +0.001 C 
ATOM     20  C   UNL     1      35.563 -23.533 -16.133  0.00  0.00    +0.017 C 
ATOM     21  C   UNL     1      37.884 -22.862 -16.185  0.00  0.00    +0.017 C 
ATOM     22  C   UNL     1      36.848 -23.585 -15.593  0.00  0.00    +0.077 C 
BRANCH  22  24
ATOM     23  O   UNL     1      37.662 -22.706 -12.870  0.00  0.00    -0.268 OA
ATOM     24  N   UNL     1      37.107 -24.389 -14.422  0.00  0.00    -0.155 N 
ATOM     25  N   UNL     1      36.903 -25.734 -14.629  0.00  0.00    -0.170 NA
ATOM     26  C   UNL     1      37.513 -23.887 -13.180  0.00  0.00    +0.272 C 
ATOM     27  C   UNL     1      37.778 -24.885 -12.113  0.00  0.00    +0.062 C 
ATOM     28  C   UNL     1      37.130 -26.545 -13.654  0.00  0.00    +0.118 C 
ATOM     29  C   UNL     1      37.597 -26.184 -12.321  0.00  0.00    +0.027 C 
ENDBRANCH  22  24
ENDBRANCH   6  17
TORSDOF 3
ENDMDL
MODEL 5
REMARK VINA RESULT:     -11.5      7.577     15.083
REMARK  Name = 24743471
REMARK  3 active torsions:
REMARK  status: ('A' for Active; 'I' for Inactive)
REMARK    1  A    between atoms: C_1  and  N_7
REMARK    2  A    between atoms: C_6  and  C_17
REMARK    3  A    between atoms: C_22  and  N_24
REMARK                            x       y       z     vdW  Elec       q    Type
REMARK                         _______ _______ _______ _____ _____    ______ ____
ROOT
ATOM      1  C   UNL     1      32.421  -8.416 -22.965  0.00  0.00    +0.048 C 
ATOM      2  C   UNL     1      31.552  -9.398 -22.490  0.00  0.00    +0.015 C 
ATOM      3  C   UNL     1      33.630  -8.783 -23.557  0.00  0.00    +0.015 C 
ATOM      4  C   UNL     1      31.891 -10.746 -22.606  0.00  0.00    +0.001 C 
ATOM      5  C   UNL     1      33.969 -10.131 -23.673  0.00  0.00    +0.001 C 
ATOM      6  C   UNL     1      33.099 -11.112 -23.197  0.00  0.00    +0.000 C 
ENDROOT
BRANCH   1   7
ATOM      7  N   UNL     1      32.086  -7.081 -22.852  0.00  0.00    -0.311 N 
ATOM      8  N   UNL     1      32.837  -4.519 -25.102  0.00  0.00    +0.387 N 
ATOM      9  C   UNL     1      32.143  -4.704 -22.913  0.00  0.00    -0.003 C 
ATOM     10  C   UNL     1      32.961  -5.968 -23.229  0.00  0.00    +0.050 C 
ATOM     11  C   UNL     1      31.037  -5.165 -21.980  0.00  0.00    +0.021 C 
ATOM     12  C   UNL     1      31.677  -4.201 -24.272  0.00  0.00    -0.076 C 
ATOM     13  C   UNL     1      33.202  -5.893 -24.742  0.00  0.00    -0.057 C 
ATOM     14  C   UNL     1      30.783  -6.614 -22.380  0.00  0.00    +0.091 C 
ATOM     15  C   UNL     1      32.563  -4.371 -26.523  0.00  0.00    -0.101 C 
ATOM     16  H   UNL     1      33.608  -3.872 -24.930  0.00  0.00    -0.080 HD
ENDBRANCH   1   7
BRANCH   6  17
ATOM     17  C   UNL     1      33.452 -12.510 -23.317  0.00  0.00    +0.000 C 
ATOM     18  C   UNL     1      34.060 -12.977 -24.483  0.00  0.00    +0.001 C 
ATOM     19  C   UNL     1      33.184 -13.390 -22.270  0.00  0.00    +0.001 C 
ATOM     20  C   UNL     1      34.401 -14.325 -24.600  0.00  0.00    +0.017 C 
ATOM     21  C   UNL     1      33.525 -14.738 -22.386  0.00  0.00    +0.017 C 
ATOM     22  C   UNL     1      34.133 -15.205 -23.552  0.00  0.00    +0.077 C 
BRANCH  22  24
ATOM     23  O   UNL     1      33.997 -16.962 -25.949  0.00  0.00    -0.268 OA
ATOM     24  N   UNL     1      34.485 -16.601 -23.673  0.00  0.00    -0.155 N 
ATOM     25  N   UNL     1      34.979 -17.140 -22.508  0.00  0.00    -0.170 NA
ATOM     26  C   UNL     1      34.363 -17.359 -24.843  0.00  0.00    +0.272 C 
ATOM     27  C   UNL     1      34.731 -18.794 -24.749  0.00  0.00    +0.062 C 
ATOM     28  C   UNL     1      35.301 -18.387 -22.498  0.00  0.00    +0.118 C 
ATOM     29  C   UNL     1      35.191 -19.316 -23.617  0.00  0.00    +0.027 C 
ENDBRANCH  22  24
ENDBRANCH   6  17
TORSDOF 3
ENDMDL
MODEL 6
REMARK VINA RESULT:     -11.5      6.610     11.363
REMARK  Name = 24743471
REMARK  3 active torsions:
REMARK  status: ('A' for Active; 'I' for Inactive)
REMARK    1  A    between atoms: C_1  and  N_7
REMARK    2  A    between atoms: C_6  and  C_17
REMARK    3  A    between atoms: C_22  and  N_24
REMARK                            x       y       z     vdW  Elec       q    Type
REMARK                         _______ _______ _______ _____ _____    ______ ____
ROOT
ATOM      1  C   UNL     1      34.249 -15.730 -23.609  0.00  0.00    +0.048 C 
ATOM      2  C   UNL     1      34.553 -15.112 -22.396  0.00  0.00    +0.015 C 
ATOM      3  C   UNL     1      33.538 -15.034 -24.587  0.00  0.00    +0.015 C 
ATOM      4  C   UNL     1      34.145 -13.799 -22.161  0.00  0.00    +0.001 C 
ATOM      5  C   UNL     1      33.132 -13.720 -24.352  0.00  0.00    +0.001 C 
ATOM      6  C   UNL     1      33.435 -13.104 -23.138  0.00  0.00    +0.000 C 
ENDROOT
BRANCH   1   7
ATOM      7  N   UNL     1      34.652 -17.029 -23.844  0.00  0.00    -0.311 N 
ATOM      8  N   UNL     1      35.039 -19.577 -21.488  0.00  0.00    +0.387 N 
ATOM      9  C   UNL     1      35.688 -19.163 -23.659  0.00  0.00    -0.003 C 
ATOM     10  C   UNL     1      35.544 -17.796 -22.968  0.00  0.00    +0.050 C 
ATOM     11  C   UNL     1      35.225 -18.942 -25.089  0.00  0.00    +0.021 C 
ATOM     12  C   UNL     1      34.817 -20.101 -22.835  0.00  0.00    -0.076 C 
ATOM     13  C   UNL     1      34.903 -18.123 -21.614  0.00  0.00    -0.057 C 
ATOM     14  C   UNL     1      34.195 -17.822 -24.984  0.00  0.00    +0.091 C 
ATOM     15  C   UNL     1      34.116 -20.139 -20.513  0.00  0.00    -0.101 C 
ATOM     16  H   UNL     1      35.961 -19.836 -21.133  0.00  0.00    -0.080 HD
ENDBRANCH   1   7
BRANCH   6  17
ATOM     17  C   UNL     1      33.013 -11.741 -22.894  0.00  0.00    +0.000 C 
ATOM     18  C   UNL     1      33.653 -10.686 -23.545  0.00  0.00    +0.001 C 
ATOM     19  C   UNL     1      31.966 -11.483 -22.009  0.00  0.00    +0.001 C 
ATOM     20  C   UNL     1      33.246  -9.372 -23.311  0.00  0.00    +0.017 C 
ATOM     21  C   UNL     1      31.559 -10.169 -21.775  0.00  0.00    +0.017 C 
ATOM     22  C   UNL     1      32.200  -9.114 -22.425  0.00  0.00    +0.077 C 
BRANCH  22  24
ATOM     23  O   UNL     1      31.052  -7.147 -24.340  0.00  0.00    -0.268 OA
ATOM     24  N   UNL     1      31.779  -7.754 -22.183  0.00  0.00    -0.155 N 
ATOM     25  N   UNL     1      31.910  -7.371 -20.869  0.00  0.00    -0.170 NA
ATOM     26  C   UNL     1      31.271  -6.888 -23.157  0.00  0.00    +0.272 C 
ATOM     27  C   UNL     1      30.942  -5.509 -22.716  0.00  0.00    +0.062 C 
ATOM     28  C   UNL     1      31.586  -6.166 -20.547  0.00  0.00    +0.118 C 
ATOM     29  C   UNL     1      31.087  -5.136 -21.450  0.00  0.00    +0.027 C 
ENDBRANCH  22  24
ENDBRANCH   6  17
TORSDOF 3
ENDMDL
MODEL 7
REMARK VINA RESULT:     -11.1      7.561     15.087
REMARK  Name = 24743471
REMARK  3 active torsions:
REMARK  status: ('A' for Active; 'I' for Inactive)
REMARK    1  A    between atoms: C_1  and  N_7
REMARK    2  A    between atoms: C_6  and  C_17
REMARK    3  A    between atoms: C_22  and  N_24
REMARK                            x       y       z     vdW  Elec       q    Type
REMARK                         _______ _______ _______ _____ _____    ______ ____
ROOT
ATOM      1  C   UNL     1      32.418  -8.476 -22.946  0.00  0.00    +0.048 C 
ATOM      2  C   UNL     1      33.612  -8.854 -23.561  0.00  0.00    +0.015 C 
ATOM      3  C   UNL     1      31.564  -9.449 -22.424  0.00  0.00    +0.015 C 
ATOM      4  C   UNL     1      33.952 -10.204 -23.654  0.00  0.00    +0.001 C 
ATOM      5  C   UNL     1      31.906 -10.798 -22.516  0.00  0.00    +0.001 C 
ATOM      6  C   UNL     1      33.100 -11.175 -23.131  0.00  0.00    +0.000 C 
ENDROOT
BRANCH   1   7
ATOM      7  N   UNL     1      32.080  -7.141 -22.853  0.00  0.00    -0.311 N 
ATOM      8  N   UNL     1      32.924  -4.589 -25.082  0.00  0.00    +0.387 N 
ATOM      9  C   UNL     1      32.142  -4.764 -22.922  0.00  0.00    -0.003 C 
ATOM     10  C   UNL     1      32.971  -6.030 -23.200  0.00  0.00    +0.050 C 
ATOM     11  C   UNL     1      30.998  -5.219 -22.033  0.00  0.00    +0.021 C 
ATOM     12  C   UNL     1      31.732  -4.266 -24.301  0.00  0.00    -0.076 C 
ATOM     13  C   UNL     1      33.273  -5.962 -24.702  0.00  0.00    -0.057 C 
ATOM     14  C   UNL     1      30.760  -6.670 -22.436  0.00  0.00    +0.091 C 
ATOM     15  C   UNL     1      32.708  -4.447 -26.514  0.00  0.00    -0.101 C 
ATOM     16  H   UNL     1      33.688  -3.942 -24.883  0.00  0.00    -0.080 HD
ENDBRANCH   1   7
BRANCH   6  17
ATOM     17  C   UNL     1      33.453 -12.575 -23.227  0.00  0.00    +0.000 C 
ATOM     18  C   UNL     1      33.125 -13.448 -22.189  0.00  0.00    +0.001 C 
ATOM     19  C   UNL     1      34.120 -13.051 -24.355  0.00  0.00    +0.001 C 
ATOM     20  C   UNL     1      33.465 -14.798 -22.281  0.00  0.00    +0.017 C 
ATOM     21  C   UNL     1      34.460 -14.401 -24.447  0.00  0.00    +0.017 C 
ATOM     22  C   UNL     1      34.133 -15.274 -23.410  0.00  0.00    +0.077 C 
BRANCH  22  24
ATOM     23  O   UNL     1      35.379 -17.027 -21.354  0.00  0.00    -0.268 OA
ATOM     24  N   UNL     1      34.485 -16.672 -23.504  0.00  0.00    -0.155 N 
ATOM     25  N   UNL     1      34.147 -17.236 -24.712  0.00  0.00    -0.170 NA
ATOM     26  C   UNL     1      35.096 -17.414 -22.488  0.00  0.00    +0.272 C 
ATOM     27  C   UNL     1      35.425 -18.828 -22.800  0.00  0.00    +0.062 C 
ATOM     28  C   UNL     1      34.440 -18.475 -24.913  0.00  0.00    +0.118 C 
ATOM     29  C   UNL     1      35.113 -19.365 -23.974  0.00  0.00    +0.027 C 
ENDBRANCH  22  24
ENDBRANCH   6  17
TORSDOF 3
ENDMDL
MODEL 8
REMARK VINA RESULT:     -11.0      6.990     14.245
REMARK  Name = 24743471
REMARK  3 active torsions:
REMARK  status: ('A' for Active; 'I' for Inactive)
REMARK    1  A    between atoms: C_1  and  N_7
REMARK    2  A    between atoms: C_6  and  C_17
REMARK    3  A    between atoms: C_22  and  N_24
REMARK                            x       y       z     vdW  Elec       q    Type
REMARK                         _______ _______ _______ _____ _____    ______ ____
ROOT
ATOM      1  C   UNL     1      32.586  -9.135 -23.273  0.00  0.00    +0.048 C 
ATOM      2  C   UNL     1      33.784  -9.524 -23.873  0.00  0.00    +0.015 C 
ATOM      3  C   UNL     1      31.742 -10.096 -22.714  0.00  0.00    +0.015 C 
ATOM      4  C   UNL     1      34.138 -10.873 -23.914  0.00  0.00    +0.001 C 
ATOM      5  C   UNL     1      32.098 -11.444 -22.754  0.00  0.00    +0.001 C 
ATOM      6  C   UNL     1      33.296 -11.832 -23.355  0.00  0.00    +0.000 C 
ENDROOT
BRANCH   1   7
ATOM      7  N   UNL     1      32.234  -7.801 -23.232  0.00  0.00    -0.311 N 
ATOM      8  N   UNL     1      31.710  -5.845 -20.387  0.00  0.00    +0.387 N 
ATOM      9  C   UNL     1      31.236  -5.725 -22.638  0.00  0.00    -0.003 C 
ATOM     10  C   UNL     1      31.290  -7.219 -22.273  0.00  0.00    +0.050 C 
ATOM     11  C   UNL     1      31.813  -5.632 -24.040  0.00  0.00    +0.021 C 
ATOM     12  C   UNL     1      32.056  -5.037 -21.555  0.00  0.00    -0.076 C 
ATOM     13  C   UNL     1      31.822  -7.237 -20.835  0.00  0.00    -0.057 C 
ATOM     14  C   UNL     1      32.804  -6.789 -24.119  0.00  0.00    +0.091 C 
ATOM     15  C   UNL     1      32.560  -5.560 -19.241  0.00  0.00    -0.101 C 
ATOM     16  H   UNL     1      30.768  -5.636 -20.053  0.00  0.00    -0.080 HD
ENDBRANCH   1   7
BRANCH   6  17
ATOM     17  C   UNL     1      33.663 -13.231 -23.396  0.00  0.00    +0.000 C 
ATOM     18  C   UNL     1      34.226 -13.837 -22.273  0.00  0.00    +0.001 C 
ATOM     19  C   UNL     1      33.455 -13.973 -24.559  0.00  0.00    +0.001 C 
ATOM     20  C   UNL     1      34.580 -15.186 -22.313  0.00  0.00    +0.017 C 
ATOM     21  C   UNL     1      33.810 -15.321 -24.599  0.00  0.00    +0.017 C 
ATOM     22  C   UNL     1      34.372 -15.928 -23.475  0.00  0.00    +0.077 C 
BRANCH  22  24
ATOM     23  O   UNL     1      34.737 -17.692 -25.843  0.00  0.00    -0.268 OA
ATOM     24  N   UNL     1      34.739 -17.324 -23.516  0.00  0.00    -0.155 N 
ATOM     25  N   UNL     1      34.978 -17.860 -22.272  0.00  0.00    -0.170 NA
ATOM     26  C   UNL     1      34.862 -18.085 -24.684  0.00  0.00    +0.272 C 
ATOM     27  C   UNL     1      35.199 -19.521 -24.511  0.00  0.00    +0.062 C 
ATOM     28  C   UNL     1      35.288 -19.108 -22.193  0.00  0.00    +0.118 C 
ATOM     29  C   UNL     1      35.412 -20.040 -23.307  0.00  0.00    +0.027 C 
ENDBRANCH  22  24
ENDBRANCH   6  17
TORSDOF 3
ENDMDL
MODEL 9
REMARK VINA RESULT:     -10.8      6.216     13.374
REMARK  Name = 24743471
REMARK  3 active torsions:
REMARK  status: ('A' for Active; 'I' for Inactive)
REMARK    1  A    between atoms: C_1  and  N_7
REMARK    2  A    between atoms: C_6  and  C_17
REMARK    3  A    between atoms: C_22  and  N_24
REMARK                            x       y       z     vdW  Elec       q    Type
REMARK                         _______ _______ _______ _____ _____    ______ ____
ROOT
ATOM      1  C   UNL     1      32.487 -10.645 -22.711  0.00  0.00    +0.048 C 
ATOM      2  C   UNL     1      33.473 -11.204 -23.523  0.00  0.00    +0.015 C 
ATOM      3  C   UNL     1      31.972 -11.373 -21.638  0.00  0.00    +0.015 C 
ATOM      4  C   UNL     1      33.944 -12.492 -23.263  0.00  0.00    +0.001 C 
ATOM      5  C   UNL     1      32.443 -12.659 -21.378  0.00  0.00    +0.001 C 
ATOM      6  C   UNL     1      33.429 -13.218 -22.191  0.00  0.00    +0.000 C 
ENDROOT
BRANCH   1   7
ATOM      7  N   UNL     1      32.020  -9.371 -22.967  0.00  0.00    -0.311 N 
ATOM      8  N   UNL     1      31.811  -6.709 -20.717  0.00  0.00    +0.387 N 
ATOM      9  C   UNL     1      30.944  -7.258 -22.780  0.00  0.00    -0.003 C 
ATOM     10  C   UNL     1      31.205  -8.581 -22.039  0.00  0.00    +0.050 C 
ATOM     11  C   UNL     1      31.257  -7.544 -24.238  0.00  0.00    +0.021 C 
ATOM     12  C   UNL     1      31.869  -6.254 -22.105  0.00  0.00    -0.076 C 
ATOM     13  C   UNL     1      31.978  -8.164 -20.782  0.00  0.00    -0.057 C 
ATOM     14  C   UNL     1      32.326  -8.630 -24.189  0.00  0.00    +0.091 C 
ATOM     15  C   UNL     1      32.816  -6.071 -19.879  0.00  0.00    -0.101 C 
ATOM     16  H   UNL     1      30.926  -6.454 -20.277  0.00  0.00    -0.080 HD
ENDBRANCH   1   7
BRANCH   6  17
ATOM     17  C   UNL     1      33.918 -14.553 -21.920  0.00  0.00    +0.000 C 
ATOM     18  C   UNL     1      34.530 -15.290 -22.935  0.00  0.00    +0.001 C 
ATOM     19  C   UNL     1      33.776 -15.103 -20.647  0.00  0.00    +0.001 C 
ATOM     20  C   UNL     1      35.001 -16.577 -22.675  0.00  0.00    +0.017 C 
ATOM     21  C   UNL     1      34.247 -16.391 -20.387  0.00  0.00    +0.017 C 
ATOM     22  C   UNL     1      34.859 -17.127 -21.401  0.00  0.00    +0.077 C 
BRANCH  22  24
ATOM     23  O   UNL     1      33.353 -19.693 -21.367  0.00  0.00    -0.268 OA
ATOM     24  N   UNL     1      35.346 -18.460 -21.132  0.00  0.00    -0.155 N 
ATOM     25  N   UNL     1      36.701 -18.507 -20.901  0.00  0.00    -0.170 NA
ATOM     26  C   UNL     1      34.554 -19.613 -21.112  0.00  0.00    +0.272 C 
ATOM     27  C   UNL     1      35.237 -20.885 -20.763  0.00  0.00    +0.062 C 
ATOM     28  C   UNL     1      37.236 -19.646 -20.624  0.00  0.00    +0.118 C 
ATOM     29  C   UNL     1      36.542 -20.924 -20.523  0.00  0.00    +0.027 C 
ENDBRANCH  22  24
ENDBRANCH   6  17
TORSDOF 3
ENDMDL
