MODEL 1
REMARK VINA RESULT:     -13.1      0.000      0.000
REMARK  Name = 11476460
REMARK  8 active torsions:
REMARK  status: ('A' for Active; 'I' for Inactive)
REMARK    1  A    between atoms: C_2  and  N_10
REMARK    2  A    between atoms: C_5  and  C_23
REMARK    3  A    between atoms: C_11  and  C_14
REMARK    4  A    between atoms: C_14  and  O_15
REMARK    5  A    between atoms: O_15  and  P_16
REMARK    6  A    between atoms: P_16  and  O_18
REMARK    7  A    between atoms: P_16  and  O_20
REMARK    8  A    between atoms: C_27  and  C_32
REMARK                            x       y       z     vdW  Elec       q    Type
REMARK                         _______ _______ _______ _____ _____    ______ ____
ROOT
ATOM      1  F   UNL     1      33.429 -22.724 -18.462  0.00  0.00    -0.204 F 
ATOM      2  C   UNL     1      36.136 -23.390 -16.122  0.00  0.00    +0.059 C 
ATOM      3  C   UNL     1      34.883 -23.430 -16.741  0.00  0.00    +0.045 C 
ATOM      4  C   UNL     1      37.144 -22.584 -16.661  0.00  0.00    +0.015 C 
ATOM      5  C   UNL     1      35.648 -21.870 -18.419  0.00  0.00    +0.029 C 
ATOM      6  C   UNL     1      34.639 -22.672 -17.886  0.00  0.00    +0.141 C 
ATOM      7  C   UNL     1      36.900 -21.826 -17.806  0.00  0.00    +0.004 C 
ENDROOT
BRANCH   2  10
ATOM      8  O   UNL     1      36.637 -25.898 -13.531  0.00  0.00    -0.434 OA
ATOM      9  O   UNL     1      36.061 -26.396 -15.668  0.00  0.00    -0.226 OA
ATOM     10  N   UNL     1      36.385 -24.163 -14.954  0.00  0.00    -0.221 N 
ATOM     11  C   UNL     1      37.115 -24.739 -12.834  0.00  0.00    +0.221 C 
ATOM     12  C   UNL     1      36.623 -23.573 -13.664  0.00  0.00    +0.148 C 
ATOM     13  C   UNL     1      36.338 -25.550 -14.829  0.00  0.00    +0.409 C 
BRANCH  11  14
ATOM     14  C   UNL     1      38.634 -24.813 -12.744  0.00  0.00    +0.199 C 
BRANCH  14  15
ATOM     15  O   UNL     1      39.065 -26.025 -13.337  0.00  0.00    -0.269 OA
BRANCH  15  16
ATOM     16  P   UNL     1      40.159 -25.957 -14.528  0.00  0.00    +0.473 P 
ATOM     17  O   UNL     1      41.157 -27.078 -14.538  0.00  0.00    -0.227 OA
BRANCH  16  18
ATOM     18  O   UNL     1      40.787 -24.473 -14.388  0.00  0.00    -0.303 OA
ATOM     19  H   UNL     1      40.086 -23.813 -14.506  0.00  0.00    +0.222 HD
ENDBRANCH  16  18
BRANCH  16  20
ATOM     20  O   UNL     1      39.242 -25.847 -15.856  0.00  0.00    -0.303 OA
ATOM     21  H   UNL     1      39.757 -25.444 -16.572  0.00  0.00    +0.222 HD
ENDBRANCH  16  20
ENDBRANCH  15  16
ENDBRANCH  14  15
ENDBRANCH  11  14
ENDBRANCH   2  10
BRANCH   5  23
ATOM     22  N   UNL     1      36.281 -19.749 -21.418  0.00  0.00    -0.234 NA
ATOM     23  C   UNL     1      35.400 -21.081 -19.607  0.00  0.00    +0.021 C 
ATOM     24  C   UNL     1      34.108 -20.884 -20.076  0.00  0.00    +0.004 C 
ATOM     25  C   UNL     1      36.442 -20.499 -20.305  0.00  0.00    +0.100 C 
ATOM     26  C   UNL     1      33.900 -20.119 -21.218  0.00  0.00    +0.029 C 
ATOM     27  C   UNL     1      35.010 -19.579 -21.847  0.00  0.00    +0.146 C 
BRANCH  27  32
ATOM     28  N   UNL     1      34.929 -17.448 -23.030  0.00  0.00    -0.105 NA
ATOM     29  N   UNL     1      34.720 -17.222 -24.335  0.00  0.00    -0.113 N 
ATOM     30  N   UNL     1      34.617 -19.327 -24.254  0.00  0.00    -0.085 NA
ATOM     31  N   UNL     1      34.530 -18.307 -25.099  0.00  0.00    -0.018 NA
ATOM     32  C   UNL     1      34.855 -18.780 -23.029  0.00  0.00    +0.092 C 
ATOM     33  C   UNL     1      34.700 -15.892 -24.886  0.00  0.00    +0.163 C 
ENDBRANCH  27  32
ENDBRANCH   5  23
TORSDOF 8
ENDMDL
MODEL 2
REMARK VINA RESULT:     -12.5      1.217      1.798
REMARK  Name = 11476460
REMARK  8 active torsions:
REMARK  status: ('A' for Active; 'I' for Inactive)
REMARK    1  A    between atoms: C_2  and  N_10
REMARK    2  A    between atoms: C_5  and  C_23
REMARK    3  A    between atoms: C_11  and  C_14
REMARK    4  A    between atoms: C_14  and  O_15
REMARK    5  A    between atoms: O_15  and  P_16
REMARK    6  A    between atoms: P_16  and  O_18
REMARK    7  A    between atoms: P_16  and  O_20
REMARK    8  A    between atoms: C_27  and  C_32
REMARK                            x       y       z     vdW  Elec       q    Type
REMARK                         _______ _______ _______ _____ _____    ______ ____
ROOT
ATOM      1  F   UNL     1      33.480 -21.978 -19.563  0.00  0.00    -0.204 F 
ATOM      2  C   UNL     1      36.029 -22.768 -17.089  0.00  0.00    +0.059 C 
ATOM      3  C   UNL     1      34.819 -22.775 -17.790  0.00  0.00    +0.045 C 
ATOM      4  C   UNL     1      37.069 -21.937 -17.518  0.00  0.00    +0.015 C 
ATOM      5  C   UNL     1      35.689 -21.130 -19.330  0.00  0.00    +0.029 C 
ATOM      6  C   UNL     1      34.649 -21.958 -18.907  0.00  0.00    +0.141 C 
ATOM      7  C   UNL     1      36.898 -21.119 -18.635  0.00  0.00    +0.004 C 
ENDROOT
BRANCH   2  10
ATOM      8  O   UNL     1      35.802 -24.985 -14.210  0.00  0.00    -0.434 OA
ATOM      9  O   UNL     1      34.013 -24.350 -15.451  0.00  0.00    -0.226 OA
ATOM     10  N   UNL     1      36.203 -23.602 -15.949  0.00  0.00    -0.221 N 
ATOM     11  C   UNL     1      37.228 -24.920 -14.346  0.00  0.00    +0.221 C 
ATOM     12  C   UNL     1      37.463 -23.745 -15.272  0.00  0.00    +0.148 C 
ATOM     13  C   UNL     1      35.219 -24.305 -15.256  0.00  0.00    +0.409 C 
BRANCH  11  14
ATOM     14  C   UNL     1      37.729 -26.241 -14.915  0.00  0.00    +0.199 C 
BRANCH  14  15
ATOM     15  O   UNL     1      38.905 -26.616 -14.220  0.00  0.00    -0.269 OA
BRANCH  15  16
ATOM     16  P   UNL     1      40.311 -25.946 -14.662  0.00  0.00    +0.473 P 
ATOM     17  O   UNL     1      40.647 -24.659 -13.967  0.00  0.00    -0.227 OA
BRANCH  16  18
ATOM     18  O   UNL     1      40.202 -25.854 -16.273  0.00  0.00    -0.303 OA
ATOM     19  H   UNL     1      41.003 -26.229 -16.673  0.00  0.00    +0.222 HD
ENDBRANCH  16  18
BRANCH  16  20
ATOM     20  O   UNL     1      41.372 -27.146 -14.430  0.00  0.00    -0.303 OA
ATOM     21  H   UNL     1      42.227 -26.773 -14.164  0.00  0.00    +0.222 HD
ENDBRANCH  16  20
ENDBRANCH  15  16
ENDBRANCH  14  15
ENDBRANCH  11  14
ENDBRANCH   2  10
BRANCH   5  23
ATOM     22  N   UNL     1      34.076 -19.442 -22.236  0.00  0.00    -0.234 NA
ATOM     23  C   UNL     1      35.517 -20.279 -20.488  0.00  0.00    +0.021 C 
ATOM     24  C   UNL     1      36.567 -19.508 -20.970  0.00  0.00    +0.004 C 
ATOM     25  C   UNL     1      34.303 -20.213 -21.149  0.00  0.00    +0.100 C 
ATOM     26  C   UNL     1      36.372 -18.702 -22.086  0.00  0.00    +0.029 C 
ATOM     27  C   UNL     1      35.119 -18.704 -22.677  0.00  0.00    +0.146 C 
BRANCH  27  32
ATOM     28  N   UNL     1      34.511 -16.607 -23.762  0.00  0.00    -0.105 NA
ATOM     29  N   UNL     1      34.399 -16.344 -25.072  0.00  0.00    -0.113 N 
ATOM     30  N   UNL     1      34.957 -18.378 -25.101  0.00  0.00    -0.085 NA
ATOM     31  N   UNL     1      34.654 -17.364 -25.903  0.00  0.00    -0.018 NA
ATOM     32  C   UNL     1      34.862 -17.892 -23.832  0.00  0.00    +0.092 C 
ATOM     33  C   UNL     1      34.026 -15.041 -25.560  0.00  0.00    +0.163 C 
ENDBRANCH  27  32
ENDBRANCH   5  23
TORSDOF 8
ENDMDL
MODEL 3
REMARK VINA RESULT:     -12.2      7.230     11.169
REMARK  Name = 11476460
REMARK  8 active torsions:
REMARK  status: ('A' for Active; 'I' for Inactive)
REMARK    1  A    between atoms: C_2  and  N_10
REMARK    2  A    between atoms: C_5  and  C_23
REMARK    3  A    between atoms: C_11  and  C_14
REMARK    4  A    between atoms: C_14  and  O_15
REMARK    5  A    between atoms: O_15  and  P_16
REMARK    6  A    between atoms: P_16  and  O_18
REMARK    7  A    between atoms: P_16  and  O_20
REMARK    8  A    between atoms: C_27  and  C_32
REMARK                            x       y       z     vdW  Elec       q    Type
REMARK                         _______ _______ _______ _____ _____    ______ ____
ROOT
ATOM      1  F   UNL     1      33.363 -21.162 -20.077  0.00  0.00    -0.204 F 
ATOM      2  C   UNL     1      35.401 -19.092 -22.270  0.00  0.00    +0.059 C 
ATOM      3  C   UNL     1      34.293 -19.748 -21.724  0.00  0.00    +0.045 C 
ATOM      4  C   UNL     1      36.654 -19.235 -21.665  0.00  0.00    +0.015 C 
ATOM      5  C   UNL     1      35.689 -20.679 -19.985  0.00  0.00    +0.029 C 
ATOM      6  C   UNL     1      34.437 -20.540 -20.584  0.00  0.00    +0.141 C 
ATOM      7  C   UNL     1      36.798 -20.026 -20.526  0.00  0.00    +0.004 C 
ENDROOT
BRANCH   2  10
ATOM      8  O   UNL     1      34.826 -17.601 -25.542  0.00  0.00    -0.434 OA
ATOM      9  O   UNL     1      34.490 -19.797 -25.085  0.00  0.00    -0.226 OA
ATOM     10  N   UNL     1      35.254 -18.284 -23.433  0.00  0.00    -0.221 N 
ATOM     11  C   UNL     1      35.050 -16.410 -24.775  0.00  0.00    +0.221 C 
ATOM     12  C   UNL     1      35.660 -16.906 -23.481  0.00  0.00    +0.148 C 
ATOM     13  C   UNL     1      34.818 -18.686 -24.694  0.00  0.00    +0.409 C 
BRANCH  11  14
ATOM     14  C   UNL     1      33.720 -15.696 -24.576  0.00  0.00    +0.199 C 
BRANCH  14  15
ATOM     15  O   UNL     1      33.885 -14.329 -24.907  0.00  0.00    -0.269 OA
BRANCH  15  16
ATOM     16  P   UNL     1      33.818 -13.233 -23.717  0.00  0.00    +0.473 P 
ATOM     17  O   UNL     1      32.458 -13.034 -23.113  0.00  0.00    -0.227 OA
BRANCH  16  18
ATOM     18  O   UNL     1      34.482 -11.912 -24.372  0.00  0.00    -0.303 OA
ATOM     19  H   UNL     1      35.166 -11.565 -23.777  0.00  0.00    +0.222 HD
ENDBRANCH  16  18
BRANCH  16  20
ATOM     20  O   UNL     1      34.954 -13.747 -22.687  0.00  0.00    -0.303 OA
ATOM     21  H   UNL     1      35.714 -13.146 -22.718  0.00  0.00    +0.222 HD
ENDBRANCH  16  20
ENDBRANCH  15  16
ENDBRANCH  14  15
ENDBRANCH  11  14
ENDBRANCH   2  10
BRANCH   5  23
ATOM     22  N   UNL     1      34.927 -23.169 -17.319  0.00  0.00    -0.234 NA
ATOM     23  C   UNL     1      35.844 -21.500 -18.803  0.00  0.00    +0.021 C 
ATOM     24  C   UNL     1      36.995 -21.428 -18.030  0.00  0.00    +0.004 C 
ATOM     25  C   UNL     1      34.848 -22.376 -18.411  0.00  0.00    +0.100 C 
ATOM     26  C   UNL     1      37.114 -22.228 -16.899  0.00  0.00    +0.029 C 
ATOM     27  C   UNL     1      36.061 -23.075 -16.589  0.00  0.00    +0.146 C 
BRANCH  27  32
ATOM     28  N   UNL     1      36.905 -25.005 -15.362  0.00  0.00    -0.105 NA
ATOM     29  N   UNL     1      36.597 -25.407 -14.120  0.00  0.00    -0.113 N 
ATOM     30  N   UNL     1      35.399 -23.682 -14.309  0.00  0.00    -0.085 NA
ATOM     31  N   UNL     1      35.709 -24.652 -13.458  0.00  0.00    -0.018 NA
ATOM     32  C   UNL     1      36.129 -23.921 -15.433  0.00  0.00    +0.092 C 
ATOM     33  C   UNL     1      37.186 -26.581 -13.530  0.00  0.00    +0.163 C 
ENDBRANCH  27  32
ENDBRANCH   5  23
TORSDOF 8
ENDMDL
MODEL 4
REMARK VINA RESULT:     -12.1      3.158      4.828
REMARK  Name = 11476460
REMARK  8 active torsions:
REMARK  status: ('A' for Active; 'I' for Inactive)
REMARK    1  A    between atoms: C_2  and  N_10
REMARK    2  A    between atoms: C_5  and  C_23
REMARK    3  A    between atoms: C_11  and  C_14
REMARK    4  A    between atoms: C_14  and  O_15
REMARK    5  A    between atoms: O_15  and  P_16
REMARK    6  A    between atoms: P_16  and  O_18
REMARK    7  A    between atoms: P_16  and  O_20
REMARK    8  A    between atoms: C_27  and  C_32
REMARK                            x       y       z     vdW  Elec       q    Type
REMARK                         _______ _______ _______ _____ _____    ______ ____
ROOT
ATOM      1  F   UNL     1      37.328 -19.760 -20.649  0.00  0.00    -0.204 F 
ATOM      2  C   UNL     1      35.299 -21.934 -18.551  0.00  0.00    +0.059 C 
ATOM      3  C   UNL     1      36.410 -21.287 -19.100  0.00  0.00    +0.045 C 
ATOM      4  C   UNL     1      34.022 -21.652 -19.050  0.00  0.00    +0.015 C 
ATOM      5  C   UNL     1      34.973 -20.090 -20.629  0.00  0.00    +0.029 C 
ATOM      6  C   UNL     1      36.249 -20.368 -20.137  0.00  0.00    +0.141 C 
ATOM      7  C   UNL     1      33.861 -20.732 -20.086  0.00  0.00    +0.004 C 
ENDROOT
BRANCH   2  10
ATOM      8  O   UNL     1      36.325 -24.039 -15.764  0.00  0.00    -0.434 OA
ATOM      9  O   UNL     1      37.612 -22.384 -16.629  0.00  0.00    -0.226 OA
ATOM     10  N   UNL     1      35.464 -22.872 -17.494  0.00  0.00    -0.221 N 
ATOM     11  C   UNL     1      34.954 -24.446 -15.875  0.00  0.00    +0.221 C 
ATOM     12  C   UNL     1      34.515 -23.918 -17.224  0.00  0.00    +0.148 C 
ATOM     13  C   UNL     1      36.560 -23.008 -16.646  0.00  0.00    +0.409 C 
BRANCH  11  14
ATOM     14  C   UNL     1      34.169 -23.851 -14.714  0.00  0.00    +0.199 C 
BRANCH  14  15
ATOM     15  O   UNL     1      32.940 -24.545 -14.595  0.00  0.00    -0.269 OA
BRANCH  15  16
ATOM     16  P   UNL     1      31.695 -23.796 -13.880  0.00  0.00    +0.473 P 
ATOM     17  O   UNL     1      30.800 -23.027 -14.807  0.00  0.00    -0.227 OA
BRANCH  16  18
ATOM     18  O   UNL     1      32.393 -22.923 -12.711  0.00  0.00    -0.303 OA
ATOM     19  H   UNL     1      33.334 -22.803 -12.915  0.00  0.00    +0.222 HD
ENDBRANCH  16  18
BRANCH  16  20
ATOM     20  O   UNL     1      30.971 -24.993 -13.068  0.00  0.00    -0.303 OA
ATOM     21  H   UNL     1      30.483 -24.623 -12.316  0.00  0.00    +0.222 HD
ENDBRANCH  16  20
ENDBRANCH  15  16
ENDBRANCH  14  15
ENDBRANCH  11  14
ENDBRANCH   2  10
BRANCH   5  23
ATOM     22  N   UNL     1      34.552 -16.840 -22.405  0.00  0.00    -0.234 NA
ATOM     23  C   UNL     1      34.800 -19.138 -21.706  0.00  0.00    +0.021 C 
ATOM     24  C   UNL     1      34.712 -19.561 -23.026  0.00  0.00    +0.004 C 
ATOM     25  C   UNL     1      34.715 -17.782 -21.449  0.00  0.00    +0.100 C 
ATOM     26  C   UNL     1      34.544 -18.623 -24.038  0.00  0.00    +0.029 C 
ATOM     27  C   UNL     1      34.471 -17.286 -23.678  0.00  0.00    +0.146 C 
BRANCH  27  32
ATOM     28  N   UNL     1      34.075 -14.990 -24.398  0.00  0.00    -0.105 NA
ATOM     29  N   UNL     1      33.990 -14.507 -25.646  0.00  0.00    -0.113 N 
ATOM     30  N   UNL     1      34.342 -16.554 -26.014  0.00  0.00    -0.085 NA
ATOM     31  N   UNL     1      34.143 -15.398 -26.635  0.00  0.00    -0.018 NA
ATOM     32  C   UNL     1      34.296 -16.275 -24.682  0.00  0.00    +0.092 C 
ATOM     33  C   UNL     1      33.749 -13.112 -25.909  0.00  0.00    +0.163 C 
ENDBRANCH  27  32
ENDBRANCH   5  23
TORSDOF 8
ENDMDL
MODEL 5
REMARK VINA RESULT:     -12.1      7.512     11.410
REMARK  Name = 11476460
REMARK  8 active torsions:
REMARK  status: ('A' for Active; 'I' for Inactive)
REMARK    1  A    between atoms: C_2  and  N_10
REMARK    2  A    between atoms: C_5  and  C_23
REMARK    3  A    between atoms: C_11  and  C_14
REMARK    4  A    between atoms: C_14  and  O_15
REMARK    5  A    between atoms: O_15  and  P_16
REMARK    6  A    between atoms: P_16  and  O_18
REMARK    7  A    between atoms: P_16  and  O_20
REMARK    8  A    between atoms: C_27  and  C_32
REMARK                            x       y       z     vdW  Elec       q    Type
REMARK                         _______ _______ _______ _____ _____    ______ ____
ROOT
ATOM      1  F   UNL     1      33.348 -21.113 -19.888  0.00  0.00    -0.204 F 
ATOM      2  C   UNL     1      35.428 -19.086 -22.083  0.00  0.00    +0.059 C 
ATOM      3  C   UNL     1      34.305 -19.709 -21.528  0.00  0.00    +0.045 C 
ATOM      4  C   UNL     1      36.684 -19.286 -21.501  0.00  0.00    +0.015 C 
ATOM      5  C   UNL     1      35.693 -20.720 -19.828  0.00  0.00    +0.029 C 
ATOM      6  C   UNL     1      34.437 -20.524 -20.403  0.00  0.00    +0.141 C 
ATOM      7  C   UNL     1      36.816 -20.101 -20.377  0.00  0.00    +0.004 C 
ENDROOT
BRANCH   2  10
ATOM      8  O   UNL     1      34.873 -17.526 -25.325  0.00  0.00    -0.434 OA
ATOM      9  O   UNL     1      34.498 -19.724 -24.908  0.00  0.00    -0.226 OA
ATOM     10  N   UNL     1      35.293 -18.255 -23.230  0.00  0.00    -0.221 N 
ATOM     11  C   UNL     1      35.120 -16.353 -24.538  0.00  0.00    +0.221 C 
ATOM     12  C   UNL     1      35.724 -16.884 -23.255  0.00  0.00    +0.148 C 
ATOM     13  C   UNL     1      34.847 -18.626 -24.497  0.00  0.00    +0.409 C 
BRANCH  11  14
ATOM     14  C   UNL     1      33.804 -15.619 -24.322  0.00  0.00    +0.199 C 
BRANCH  14  15
ATOM     15  O   UNL     1      33.816 -14.430 -25.093  0.00  0.00    -0.269 OA
BRANCH  15  16
ATOM     16  P   UNL     1      33.255 -14.488 -26.610  0.00  0.00    +0.473 P 
ATOM     17  O   UNL     1      34.238 -14.076 -27.667  0.00  0.00    -0.227 OA
BRANCH  16  18
ATOM     18  O   UNL     1      31.897 -13.612 -26.551  0.00  0.00    -0.303 OA
ATOM     19  H   UNL     1      32.109 -12.676 -26.697  0.00  0.00    +0.222 HD
ENDBRANCH  16  18
BRANCH  16  20
ATOM     20  O   UNL     1      32.711 -16.006 -26.738  0.00  0.00    -0.303 OA
ATOM     21  H   UNL     1      33.214 -16.580 -26.139  0.00  0.00    +0.222 HD
ENDBRANCH  16  20
ENDBRANCH  15  16
ENDBRANCH  14  15
ENDBRANCH  11  14
ENDBRANCH   2  10
BRANCH   5  23
ATOM     22  N   UNL     1      34.878 -23.219 -17.185  0.00  0.00    -0.234 NA
ATOM     23  C   UNL     1      35.835 -21.565 -18.662  0.00  0.00    +0.021 C 
ATOM     24  C   UNL     1      37.002 -21.553 -17.909  0.00  0.00    +0.004 C 
ATOM     25  C   UNL     1      34.812 -22.406 -18.263  0.00  0.00    +0.100 C 
ATOM     26  C   UNL     1      37.109 -22.375 -16.793  0.00  0.00    +0.029 C 
ATOM     27  C   UNL     1      36.028 -23.182 -16.476  0.00  0.00    +0.146 C 
BRANCH  27  32
ATOM     28  N   UNL     1      37.042 -24.957 -15.147  0.00  0.00    -0.105 NA
ATOM     29  N   UNL     1      36.629 -25.468 -13.978  0.00  0.00    -0.113 N 
ATOM     30  N   UNL     1      35.148 -24.012 -14.344  0.00  0.00    -0.085 NA
ATOM     31  N   UNL     1      35.510 -24.938 -13.465  0.00  0.00    -0.018 NA
ATOM     32  C   UNL     1      36.083 -24.049 -15.334  0.00  0.00    +0.092 C 
ATOM     33  C   UNL     1      37.344 -26.525 -13.312  0.00  0.00    +0.163 C 
ENDBRANCH  27  32
ENDBRANCH   5  23
TORSDOF 8
ENDMDL
MODEL 6
REMARK VINA RESULT:     -12.0      2.587      3.776
REMARK  Name = 11476460
REMARK  8 active torsions:
REMARK  status: ('A' for Active; 'I' for Inactive)
REMARK    1  A    between atoms: C_2  and  N_10
REMARK    2  A    between atoms: C_5  and  C_23
REMARK    3  A    between atoms: C_11  and  C_14
REMARK    4  A    between atoms: C_14  and  O_15
REMARK    5  A    between atoms: O_15  and  P_16
REMARK    6  A    between atoms: P_16  and  O_18
REMARK    7  A    between atoms: P_16  and  O_20
REMARK    8  A    between atoms: C_27  and  C_32
REMARK                            x       y       z     vdW  Elec       q    Type
REMARK                         _______ _______ _______ _____ _____    ______ ____
ROOT
ATOM      1  F   UNL     1      37.370 -19.818 -20.465  0.00  0.00    -0.204 F 
ATOM      2  C   UNL     1      35.351 -22.019 -18.386  0.00  0.00    +0.059 C 
ATOM      3  C   UNL     1      36.458 -21.352 -18.920  0.00  0.00    +0.045 C 
ATOM      4  C   UNL     1      34.078 -21.767 -18.908  0.00  0.00    +0.015 C 
ATOM      5  C   UNL     1      35.023 -20.198 -20.483  0.00  0.00    +0.029 C 
ATOM      6  C   UNL     1      36.295 -20.445 -19.966  0.00  0.00    +0.141 C 
ATOM      7  C   UNL     1      33.915 -20.860 -19.955  0.00  0.00    +0.004 C 
ENDROOT
BRANCH   2  10
ATOM      8  O   UNL     1      36.408 -24.146 -15.626  0.00  0.00    -0.434 OA
ATOM      9  O   UNL     1      37.760 -22.627 -16.632  0.00  0.00    -0.226 OA
ATOM     10  N   UNL     1      35.517 -22.945 -17.318  0.00  0.00    -0.221 N 
ATOM     11  C   UNL     1      35.003 -24.434 -15.622  0.00  0.00    +0.221 C 
ATOM     12  C   UNL     1      34.507 -23.899 -16.949  0.00  0.00    +0.148 C 
ATOM     13  C   UNL     1      36.661 -23.158 -16.552  0.00  0.00    +0.409 C 
BRANCH  11  14
ATOM     14  C   UNL     1      34.364 -23.749 -14.422  0.00  0.00    +0.199 C 
BRANCH  14  15
ATOM     15  O   UNL     1      34.330 -24.664 -13.342  0.00  0.00    -0.269 OA
BRANCH  15  16
ATOM     16  P   UNL     1      35.578 -24.687 -12.309  0.00  0.00    +0.473 P 
ATOM     17  O   UNL     1      35.209 -24.924 -10.874  0.00  0.00    -0.227 OA
BRANCH  16  18
ATOM     18  O   UNL     1      36.346 -23.295 -12.605  0.00  0.00    -0.303 OA
ATOM     19  H   UNL     1      36.937 -23.408 -13.367  0.00  0.00    +0.222 HD
ENDBRANCH  16  18
BRANCH  16  20
ATOM     20  O   UNL     1      36.561 -25.798 -12.954  0.00  0.00    -0.303 OA
ATOM     21  H   UNL     1      37.464 -25.447 -12.992  0.00  0.00    +0.222 HD
ENDBRANCH  16  20
ENDBRANCH  15  16
ENDBRANCH  14  15
ENDBRANCH  11  14
ENDBRANCH   2  10
BRANCH   5  23
ATOM     22  N   UNL     1      34.701 -16.963 -22.306  0.00  0.00    -0.234 NA
ATOM     23  C   UNL     1      34.849 -19.258 -21.570  0.00  0.00    +0.021 C 
ATOM     24  C   UNL     1      34.663 -19.700 -22.873  0.00  0.00    +0.004 C 
ATOM     25  C   UNL     1      34.860 -17.894 -21.340  0.00  0.00    +0.100 C 
ATOM     26  C   UNL     1      34.497 -18.773 -23.896  0.00  0.00    +0.029 C 
ATOM     27  C   UNL     1      34.523 -17.428 -23.563  0.00  0.00    +0.146 C 
BRANCH  27  32
ATOM     28  N   UNL     1      33.831 -15.223 -24.343  0.00  0.00    -0.105 NA
ATOM     29  N   UNL     1      33.903 -14.713 -25.580  0.00  0.00    -0.113 N 
ATOM     30  N   UNL     1      34.720 -16.634 -25.874  0.00  0.00    -0.085 NA
ATOM     31  N   UNL     1      34.423 -15.513 -26.520  0.00  0.00    -0.018 NA
ATOM     32  C   UNL     1      34.355 -16.428 -24.578  0.00  0.00    +0.092 C 
ATOM     33  C   UNL     1      33.447 -13.381 -25.883  0.00  0.00    +0.163 C 
ENDBRANCH  27  32
ENDBRANCH   5  23
TORSDOF 8
ENDMDL
MODEL 7
REMARK VINA RESULT:     -11.6      7.295     11.210
REMARK  Name = 11476460
REMARK  8 active torsions:
REMARK  status: ('A' for Active; 'I' for Inactive)
REMARK    1  A    between atoms: C_2  and  N_10
REMARK    2  A    between atoms: C_5  and  C_23
REMARK    3  A    between atoms: C_11  and  C_14
REMARK    4  A    between atoms: C_14  and  O_15
REMARK    5  A    between atoms: O_15  and  P_16
REMARK    6  A    between atoms: P_16  and  O_18
REMARK    7  A    between atoms: P_16  and  O_20
REMARK    8  A    between atoms: C_27  and  C_32
REMARK                            x       y       z     vdW  Elec       q    Type
REMARK                         _______ _______ _______ _____ _____    ______ ____
ROOT
ATOM      1  F   UNL     1      37.654 -20.391 -20.010  0.00  0.00    -0.204 F 
ATOM      2  C   UNL     1      35.142 -19.123 -22.318  0.00  0.00    +0.059 C 
ATOM      3  C   UNL     1      36.378 -19.362 -21.709  0.00  0.00    +0.045 C 
ATOM      4  C   UNL     1      33.988 -19.710 -21.788  0.00  0.00    +0.015 C 
ATOM      5  C   UNL     1      35.305 -20.759 -20.056  0.00  0.00    +0.029 C 
ATOM      6  C   UNL     1      36.459 -20.177 -20.580  0.00  0.00    +0.141 C 
ATOM      7  C   UNL     1      34.070 -20.525 -20.660  0.00  0.00    +0.004 C 
ENDROOT
BRANCH   2  10
ATOM      8  O   UNL     1      34.715 -17.556 -25.577  0.00  0.00    -0.434 OA
ATOM      9  O   UNL     1      34.284 -19.745 -25.170  0.00  0.00    -0.226 OA
ATOM     10  N   UNL     1      35.058 -18.291 -23.470  0.00  0.00    -0.221 N 
ATOM     11  C   UNL     1      34.962 -16.387 -24.783  0.00  0.00    +0.221 C 
ATOM     12  C   UNL     1      35.516 -16.928 -23.482  0.00  0.00    +0.148 C 
ATOM     13  C   UNL     1      34.643 -18.654 -24.749  0.00  0.00    +0.409 C 
BRANCH  11  14
ATOM     14  C   UNL     1      33.654 -15.627 -24.607  0.00  0.00    +0.199 C 
BRANCH  14  15
ATOM     15  O   UNL     1      33.880 -14.261 -24.907  0.00  0.00    -0.269 OA
BRANCH  15  16
ATOM     16  P   UNL     1      33.815 -13.184 -23.700  0.00  0.00    +0.473 P 
ATOM     17  O   UNL     1      32.455 -12.993 -23.093  0.00  0.00    -0.227 OA
BRANCH  16  18
ATOM     18  O   UNL     1      34.482 -11.855 -24.334  0.00  0.00    -0.303 OA
ATOM     19  H   UNL     1      34.091 -11.681 -25.205  0.00  0.00    +0.222 HD
ENDBRANCH  16  18
BRANCH  16  20
ATOM     20  O   UNL     1      34.949 -13.718 -22.678  0.00  0.00    -0.303 OA
ATOM     21  H   UNL     1      35.412 -14.472 -23.075  0.00  0.00    +0.222 HD
ENDBRANCH  16  20
ENDBRANCH  15  16
ENDBRANCH  14  15
ENDBRANCH  11  14
ENDBRANCH   2  10
BRANCH   5  23
ATOM     22  N   UNL     1      36.709 -22.501 -17.074  0.00  0.00    -0.234 NA
ATOM     23  C   UNL     1      35.385 -21.605 -18.884  0.00  0.00    +0.021 C 
ATOM     24  C   UNL     1      34.279 -22.320 -18.443  0.00  0.00    +0.004 C 
ATOM     25  C   UNL     1      36.565 -21.728 -18.174  0.00  0.00    +0.100 C 
ATOM     26  C   UNL     1      34.386 -23.126 -17.315  0.00  0.00    +0.029 C 
ATOM     27  C   UNL     1      35.612 -23.181 -16.672  0.00  0.00    +0.146 C 
BRANCH  27  32
ATOM     28  N   UNL     1      36.668 -24.992 -15.425  0.00  0.00    -0.105 NA
ATOM     29  N   UNL     1      36.416 -25.405 -14.175  0.00  0.00    -0.113 N 
ATOM     30  N   UNL     1      35.039 -23.820 -14.376  0.00  0.00    -0.085 NA
ATOM     31  N   UNL     1      35.458 -24.739 -13.515  0.00  0.00    -0.018 NA
ATOM     32  C   UNL     1      35.780 -23.998 -15.504  0.00  0.00    +0.092 C 
ATOM     33  C   UNL     1      37.132 -26.500 -13.574  0.00  0.00    +0.163 C 
ENDBRANCH  27  32
ENDBRANCH   5  23
TORSDOF 8
ENDMDL
MODEL 8
REMARK VINA RESULT:     -11.5      5.433      6.455
REMARK  Name = 11476460
REMARK  8 active torsions:
REMARK  status: ('A' for Active; 'I' for Inactive)
REMARK    1  A    between atoms: C_2  and  N_10
REMARK    2  A    between atoms: C_5  and  C_23
REMARK    3  A    between atoms: C_11  and  C_14
REMARK    4  A    between atoms: C_14  and  O_15
REMARK    5  A    between atoms: O_15  and  P_16
REMARK    6  A    between atoms: P_16  and  O_18
REMARK    7  A    between atoms: P_16  and  O_20
REMARK    8  A    between atoms: C_27  and  C_32
REMARK                            x       y       z     vdW  Elec       q    Type
REMARK                         _______ _______ _______ _____ _____    ______ ____
ROOT
ATOM      1  F   UNL     1      33.622 -22.783 -16.625  0.00  0.00    -0.204 F 
ATOM      2  C   UNL     1      34.854 -24.066 -13.450  0.00  0.00    +0.059 C 
ATOM      3  C   UNL     1      34.833 -23.571 -14.757  0.00  0.00    +0.045 C 
ATOM      4  C   UNL     1      33.650 -24.242 -12.760  0.00  0.00    +0.015 C 
ATOM      5  C   UNL     1      32.422 -23.432 -14.677  0.00  0.00    +0.029 C 
ATOM      6  C   UNL     1      33.620 -23.255 -15.370  0.00  0.00    +0.141 C 
ATOM      7  C   UNL     1      32.438 -23.926 -13.373  0.00  0.00    +0.004 C 
ENDROOT
BRANCH   2  10
ATOM      8  O   UNL     1      37.639 -25.017 -11.305  0.00  0.00    -0.434 OA
ATOM      9  O   UNL     1      35.476 -24.997 -10.622  0.00  0.00    -0.226 OA
ATOM     10  N   UNL     1      36.092 -24.388 -12.825  0.00  0.00    -0.221 N 
ATOM     11  C   UNL     1      38.325 -24.937 -12.562  0.00  0.00    +0.221 C 
ATOM     12  C   UNL     1      37.364 -24.197 -13.468  0.00  0.00    +0.148 C 
ATOM     13  C   UNL     1      36.293 -24.821 -11.516  0.00  0.00    +0.409 C 
BRANCH  11  14
ATOM     14  C   UNL     1      38.637 -26.348 -13.043  0.00  0.00    +0.199 C 
BRANCH  14  15
ATOM     15  O   UNL     1      38.911 -26.303 -14.432  0.00  0.00    -0.269 OA
BRANCH  15  16
ATOM     16  P   UNL     1      40.388 -25.847 -14.914  0.00  0.00    +0.473 P 
ATOM     17  O   UNL     1      40.888 -24.570 -14.304  0.00  0.00    -0.227 OA
BRANCH  16  18
ATOM     18  O   UNL     1      40.284 -25.848 -16.527  0.00  0.00    -0.303 OA
ATOM     19  H   UNL     1      39.458 -25.416 -16.798  0.00  0.00    +0.222 HD
ENDBRANCH  16  18
BRANCH  16  20
ATOM     20  O   UNL     1      41.290 -27.153 -14.599  0.00  0.00    -0.303 OA
ATOM     21  H   UNL     1      42.033 -26.902 -14.028  0.00  0.00    +0.222 HD
ENDBRANCH  16  20
ENDBRANCH  15  16
ENDBRANCH  14  15
ENDBRANCH  11  14
ENDBRANCH   2  10
BRANCH   5  23
ATOM     22  N   UNL     1      29.906 -22.743 -17.339  0.00  0.00    -0.234 NA
ATOM     23  C   UNL     1      31.161 -23.107 -15.309  0.00  0.00    +0.021 C 
ATOM     24  C   UNL     1      30.028 -22.849 -14.549  0.00  0.00    +0.004 C 
ATOM     25  C   UNL     1      31.051 -23.042 -16.686  0.00  0.00    +0.100 C 
ATOM     26  C   UNL     1      28.831 -22.538 -15.184  0.00  0.00    +0.029 C 
ATOM     27  C   UNL     1      28.823 -22.498 -16.569  0.00  0.00    +0.146 C 
BRANCH  27  32
ATOM     28  N   UNL     1      27.492 -22.284 -18.601  0.00  0.00    -0.105 NA
ATOM     29  N   UNL     1      26.220 -21.882 -18.730  0.00  0.00    -0.113 N 
ATOM     30  N   UNL     1      26.492 -21.743 -16.643  0.00  0.00    -0.085 NA
ATOM     31  N   UNL     1      25.588 -21.551 -17.596  0.00  0.00    -0.018 NA
ATOM     32  C   UNL     1      27.616 -22.180 -17.277  0.00  0.00    +0.092 C 
ATOM     33  C   UNL     1      25.569 -21.808 -20.012  0.00  0.00    +0.163 C 
ENDBRANCH  27  32
ENDBRANCH   5  23
TORSDOF 8
ENDMDL
MODEL 9
REMARK VINA RESULT:     -11.5      1.620      2.210
REMARK  Name = 11476460
REMARK  8 active torsions:
REMARK  status: ('A' for Active; 'I' for Inactive)
REMARK    1  A    between atoms: C_2  and  N_10
REMARK    2  A    between atoms: C_5  and  C_23
REMARK    3  A    between atoms: C_11  and  C_14
REMARK    4  A    between atoms: C_14  and  O_15
REMARK    5  A    between atoms: O_15  and  P_16
REMARK    6  A    between atoms: P_16  and  O_18
REMARK    7  A    between atoms: P_16  and  O_20
REMARK    8  A    between atoms: C_27  and  C_32
REMARK                            x       y       z     vdW  Elec       q    Type
REMARK                         _______ _______ _______ _____ _____    ______ ____
ROOT
ATOM      1  F   UNL     1      37.121 -21.142 -18.326  0.00  0.00    -0.204 F 
ATOM      2  C   UNL     1      35.027 -23.371 -16.353  0.00  0.00    +0.059 C 
ATOM      3  C   UNL     1      36.128 -22.621 -16.775  0.00  0.00    +0.045 C 
ATOM      4  C   UNL     1      33.847 -23.346 -17.104  0.00  0.00    +0.015 C 
ATOM      5  C   UNL     1      34.873 -21.832 -18.683  0.00  0.00    +0.029 C 
ATOM      6  C   UNL     1      36.052 -21.853 -17.937  0.00  0.00    +0.141 C 
ATOM      7  C   UNL     1      33.771 -22.578 -18.266  0.00  0.00    +0.004 C 
ENDROOT
BRANCH   2  10
ATOM      8  O   UNL     1      35.709 -25.715 -13.651  0.00  0.00    -0.434 OA
ATOM      9  O   UNL     1      36.796 -25.741 -15.642  0.00  0.00    -0.226 OA
ATOM     10  N   UNL     1      35.104 -24.155 -15.167  0.00  0.00    -0.221 N 
ATOM     11  C   UNL     1      34.838 -24.808 -12.963  0.00  0.00    +0.221 C 
ATOM     12  C   UNL     1      34.193 -23.996 -14.066  0.00  0.00    +0.148 C 
ATOM     13  C   UNL     1      35.957 -25.228 -14.915  0.00  0.00    +0.409 C 
BRANCH  11  14
ATOM     14  C   UNL     1      35.666 -23.963 -12.004  0.00  0.00    +0.199 C 
BRANCH  14  15
ATOM     15  O   UNL     1      36.796 -23.465 -12.699  0.00  0.00    -0.269 OA
BRANCH  15  16
ATOM     16  P   UNL     1      38.257 -24.048 -12.315  0.00  0.00    +0.473 P 
ATOM     17  O   UNL     1      39.145 -23.093 -11.572  0.00  0.00    -0.227 OA
BRANCH  16  18
ATOM     18  O   UNL     1      38.841 -24.579 -13.726  0.00  0.00    -0.303 OA
ATOM     19  H   UNL     1      39.126 -25.502 -13.632  0.00  0.00    +0.222 HD
ENDBRANCH  16  18
BRANCH  16  20
ATOM     20  O   UNL     1      37.906 -25.413 -11.522  0.00  0.00    -0.303 OA
ATOM     21  H   UNL     1      37.008 -25.353 -11.159  0.00  0.00    +0.222 HD
ENDBRANCH  16  20
ENDBRANCH  15  16
ENDBRANCH  14  15
ENDBRANCH  11  14
ENDBRANCH   2  10
BRANCH   5  23
ATOM     22  N   UNL     1      35.926 -19.901 -21.693  0.00  0.00    -0.234 NA
ATOM     23  C   UNL     1      34.790 -21.038 -19.890  0.00  0.00    +0.021 C 
ATOM     24  C   UNL     1      33.560 -20.647 -20.404  0.00  0.00    +0.004 C 
ATOM     25  C   UNL     1      35.932 -20.644 -20.563  0.00  0.00    +0.100 C 
ATOM     26  C   UNL     1      33.512 -19.883 -21.564  0.00  0.00    +0.029 C 
ATOM     27  C   UNL     1      34.712 -19.539 -22.166  0.00  0.00    +0.146 C 
BRANCH  27  32
ATOM     28  N   UNL     1      34.729 -17.416 -23.365  0.00  0.00    -0.105 NA
ATOM     29  N   UNL     1      34.735 -17.203 -24.688  0.00  0.00    -0.113 N 
ATOM     30  N   UNL     1      34.722 -19.310 -24.606  0.00  0.00    -0.085 NA
ATOM     31  N   UNL     1      34.731 -18.297 -25.463  0.00  0.00    -0.018 NA
ATOM     32  C   UNL     1      34.722 -18.751 -23.364  0.00  0.00    +0.092 C 
ATOM     33  C   UNL     1      34.745 -15.876 -25.247  0.00  0.00    +0.163 C 
ENDBRANCH  27  32
ENDBRANCH   5  23
TORSDOF 8
ENDMDL
