MODEL 1
REMARK VINA RESULT:     -12.6      0.000      0.000
REMARK  Name = 447656
REMARK  5 active torsions:
REMARK  status: ('A' for Active; 'I' for Inactive)
REMARK    1  A    between atoms: N_5  and  C_14
REMARK    2  A    between atoms: C_6  and  O_25
REMARK    3  A    between atoms: C_17  and  C_22
REMARK    4  A    between atoms: O_25  and  C_26
REMARK    5  A    between atoms: C_26  and  C_27
REMARK                            x       y       z     vdW  Elec       q    Type
REMARK                         _______ _______ _______ _____ _____    ______ ____
ROOT
ATOM      1  N   UNL     1      33.880 -23.614 -15.790  0.00  0.00    -0.293 NA
ATOM      2  N   UNL     1      37.534 -23.989 -15.616  0.00  0.00    -0.266 NA
ATOM      3  N   UNL     1      34.667 -24.806 -13.812  0.00  0.00    -0.316 NA
ATOM      4  N   UNL     1      37.084 -25.049 -13.707  0.00  0.00    -0.296 N 
ATOM      5  N   UNL     1      32.387 -24.425 -14.177  0.00  0.00    -0.238 N 
ATOM      6  C   UNL     1      35.141 -23.449 -16.244  0.00  0.00    +0.288 C 
ATOM      7  C   UNL     1      36.175 -23.960 -15.488  0.00  0.00    +0.215 C 
ATOM      8  C   UNL     1      35.920 -24.624 -14.295  0.00  0.00    +0.196 C 
ATOM      9  C   UNL     1      33.723 -24.273 -14.618  0.00  0.00    +0.207 C 
ATOM     10  C   UNL     1      38.034 -24.651 -14.526  0.00  0.00    +0.164 C 
ATOM     11  H   UNL     1      38.058 -23.606 -16.356  0.00  0.00    +0.126 HD
ATOM     12  H   UNL     1      37.186 -25.541 -12.860  0.00  0.00    +0.150 HD
ATOM     13  H   UNL     1      32.304 -24.907 -13.323  0.00  0.00    +0.166 HD
ENDROOT
BRANCH   5  14
ATOM     14  C   UNL     1      31.156 -24.021 -14.722  0.00  0.00    +0.058 C 
ATOM     15  C   UNL     1      30.775 -22.677 -14.676  0.00  0.00    +0.015 C 
ATOM     16  C   UNL     1      30.307 -24.961 -15.311  0.00  0.00    +0.015 C 
ATOM     17  C   UNL     1      28.708 -23.217 -15.803  0.00  0.00    +0.053 C 
ATOM     18  C   UNL     1      29.553 -22.276 -15.216  0.00  0.00    +0.006 C 
ATOM     19  C   UNL     1      29.085 -24.560 -15.852  0.00  0.00    +0.006 C 
BRANCH  17  22
ATOM     20  O   UNL     1      26.475 -22.487 -15.640  0.00  0.00    -0.270 OA
ATOM     21  N   UNL     1      27.329 -22.740 -17.754  0.00  0.00    -0.325 N 
ATOM     22  C   UNL     1      27.435 -22.799 -16.367  0.00  0.00    +0.243 C 
ATOM     23  H   UNL     1      26.481 -22.461 -18.171  0.00  0.00    +0.145 HD
ATOM     24  H   UNL     1      28.100 -22.977 -18.318  0.00  0.00    +0.145 HD
ENDBRANCH  17  22
ENDBRANCH   5  14
BRANCH   6  25
ATOM     25  O   UNL     1      35.336 -22.785 -17.431  0.00  0.00    -0.453 OA
BRANCH  25  26
ATOM     26  C   UNL     1      34.239 -22.728 -18.324  0.00  0.00    +0.208 C 
BRANCH  26  27
ATOM     27  C   UNL     1      34.676 -21.980 -19.582  0.00  0.00    +0.044 C 
ATOM     28  C   UNL     1      33.633 -20.926 -19.977  0.00  0.00    +0.004 C 
ATOM     29  C   UNL     1      36.054 -21.336 -19.378  0.00  0.00    +0.004 C 
ATOM     30  C   UNL     1      34.074 -20.128 -21.202  0.00  0.00    +0.000 C 
ATOM     31  C   UNL     1      36.489 -20.537 -20.604  0.00  0.00    +0.000 C 
ATOM     32  C   UNL     1      35.447 -19.497 -20.999  0.00  0.00    +0.000 C 
ENDBRANCH  26  27
ENDBRANCH  25  26
ENDBRANCH   6  25
TORSDOF 5
ENDMDL
MODEL 2
REMARK VINA RESULT:     -12.4      7.854     11.798
REMARK  Name = 447656
REMARK  5 active torsions:
REMARK  status: ('A' for Active; 'I' for Inactive)
REMARK    1  A    between atoms: N_5  and  C_14
REMARK    2  A    between atoms: C_6  and  O_25
REMARK    3  A    between atoms: C_17  and  C_22
REMARK    4  A    between atoms: O_25  and  C_26
REMARK    5  A    between atoms: C_26  and  C_27
REMARK                            x       y       z     vdW  Elec       q    Type
REMARK                         _______ _______ _______ _____ _____    ______ ____
ROOT
ATOM      1  N   UNL     1      34.465 -15.903 -23.365  0.00  0.00    -0.293 NA
ATOM      2  N   UNL     1      33.353 -13.044 -25.393  0.00  0.00    -0.266 NA
ATOM      3  N   UNL     1      34.458 -16.327 -25.768  0.00  0.00    -0.316 NA
ATOM      4  N   UNL     1      33.721 -14.431 -27.099  0.00  0.00    -0.296 N 
ATOM      5  N   UNL     1      35.121 -17.973 -24.243  0.00  0.00    -0.238 N 
ATOM      6  C   UNL     1      34.020 -14.641 -23.543  0.00  0.00    +0.288 C 
ATOM      7  C   UNL     1      33.790 -14.210 -24.834  0.00  0.00    +0.215 C 
ATOM      8  C   UNL     1      34.012 -15.055 -25.913  0.00  0.00    +0.196 C 
ATOM      9  C   UNL     1      34.655 -16.658 -24.473  0.00  0.00    +0.207 C 
ATOM     10  C   UNL     1      33.328 -13.224 -26.750  0.00  0.00    +0.164 C 
ATOM     11  H   UNL     1      33.101 -12.224 -24.909  0.00  0.00    +0.126 HD
ATOM     12  H   UNL     1      33.791 -14.802 -28.008  0.00  0.00    +0.150 HD
ATOM     13  H   UNL     1      35.250 -18.498 -25.065  0.00  0.00    +0.166 HD
ENDROOT
BRANCH   5  14
ATOM     14  C   UNL     1      35.437 -18.677 -23.067  0.00  0.00    +0.058 C 
ATOM     15  C   UNL     1      34.486 -19.507 -22.469  0.00  0.00    +0.015 C 
ATOM     16  C   UNL     1      36.704 -18.550 -22.492  0.00  0.00    +0.015 C 
ATOM     17  C   UNL     1      36.065 -20.076 -20.732  0.00  0.00    +0.053 C 
ATOM     18  C   UNL     1      34.799 -20.206 -21.303  0.00  0.00    +0.006 C 
ATOM     19  C   UNL     1      37.018 -19.249 -21.326  0.00  0.00    +0.006 C 
BRANCH  17  22
ATOM     20  O   UNL     1      37.242 -20.379 -18.714  0.00  0.00    -0.270 OA
ATOM     21  N   UNL     1      35.706 -21.991 -19.269  0.00  0.00    -0.325 N 
ATOM     22  C   UNL     1      36.392 -20.805 -19.517  0.00  0.00    +0.243 C 
ATOM     23  H   UNL     1      35.902 -22.512 -18.456  0.00  0.00    +0.145 HD
ATOM     24  H   UNL     1      35.027 -22.310 -19.906  0.00  0.00    +0.145 HD
ENDBRANCH  17  22
ENDBRANCH   5  14
BRANCH   6  25
ATOM     25  O   UNL     1      33.816 -13.847 -22.441  0.00  0.00    -0.453 OA
BRANCH  25  26
ATOM     26  C   UNL     1      32.617 -14.050 -21.716  0.00  0.00    +0.208 C 
BRANCH  26  27
ATOM     27  C   UNL     1      31.957 -12.693 -21.482  0.00  0.00    +0.044 C 
ATOM     28  C   UNL     1      32.342 -12.133 -20.105  0.00  0.00    +0.004 C 
ATOM     29  C   UNL     1      32.334 -11.708 -22.596  0.00  0.00    +0.004 C 
ATOM     30  C   UNL     1      31.736 -10.751 -19.870  0.00  0.00    +0.000 C 
ATOM     31  C   UNL     1      31.729 -10.327 -22.356  0.00  0.00    +0.000 C 
ATOM     32  C   UNL     1      32.105  -9.777 -20.984  0.00  0.00    +0.000 C 
ENDBRANCH  26  27
ENDBRANCH  25  26
ENDBRANCH   6  25
TORSDOF 5
ENDMDL
MODEL 3
REMARK VINA RESULT:     -12.4      2.014      6.468
REMARK  Name = 447656
REMARK  5 active torsions:
REMARK  status: ('A' for Active; 'I' for Inactive)
REMARK    1  A    between atoms: N_5  and  C_14
REMARK    2  A    between atoms: C_6  and  O_25
REMARK    3  A    between atoms: C_17  and  C_22
REMARK    4  A    between atoms: O_25  and  C_26
REMARK    5  A    between atoms: C_26  and  C_27
REMARK                            x       y       z     vdW  Elec       q    Type
REMARK                         _______ _______ _______ _____ _____    ______ ____
ROOT
ATOM      1  N   UNL     1      33.160 -23.521 -16.194  0.00  0.00    -0.293 NA
ATOM      2  N   UNL     1      29.773 -22.543 -17.239  0.00  0.00    -0.266 NA
ATOM      3  N   UNL     1      31.436 -23.955 -14.522  0.00  0.00    -0.316 NA
ATOM      4  N   UNL     1      29.202 -23.304 -15.223  0.00  0.00    -0.296 N 
ATOM      5  N   UNL     1      33.681 -24.480 -14.121  0.00  0.00    -0.238 N 
ATOM      6  C   UNL     1      32.255 -23.013 -17.057  0.00  0.00    +0.288 C 
ATOM      7  C   UNL     1      30.934 -22.971 -16.662  0.00  0.00    +0.215 C 
ATOM      8  C   UNL     1      30.553 -23.440 -15.411  0.00  0.00    +0.196 C 
ATOM      9  C   UNL     1      32.702 -23.955 -14.995  0.00  0.00    +0.207 C 
ATOM     10  C   UNL     1      28.763 -22.763 -16.340  0.00  0.00    +0.164 C 
ATOM     11  H   UNL     1      29.679 -22.149 -18.136  0.00  0.00    +0.126 HD
ATOM     12  H   UNL     1      28.676 -23.557 -14.430  0.00  0.00    +0.150 HD
ATOM     13  H   UNL     1      33.319 -24.788 -13.259  0.00  0.00    +0.166 HD
ENDROOT
BRANCH   5  14
ATOM     14  C   UNL     1      35.072 -24.648 -14.243  0.00  0.00    +0.058 C 
ATOM     15  C   UNL     1      35.944 -23.777 -13.586  0.00  0.00    +0.015 C 
ATOM     16  C   UNL     1      35.587 -25.687 -15.021  0.00  0.00    +0.015 C 
ATOM     17  C   UNL     1      37.835 -24.982 -14.484  0.00  0.00    +0.053 C 
ATOM     18  C   UNL     1      37.324 -23.943 -13.706  0.00  0.00    +0.006 C 
ATOM     19  C   UNL     1      36.968 -25.854 -15.141  0.00  0.00    +0.006 C 
BRANCH  17  22
ATOM     20  O   UNL     1      39.966 -24.370 -15.280  0.00  0.00    -0.270 OA
ATOM     21  N   UNL     1      39.857 -26.224 -13.934  0.00  0.00    -0.325 N 
ATOM     22  C   UNL     1      39.273 -25.156 -14.609  0.00  0.00    +0.243 C 
ATOM     23  H   UNL     1      40.829 -26.374 -13.996  0.00  0.00    +0.145 HD
ATOM     24  H   UNL     1      39.299 -26.831 -13.395  0.00  0.00    +0.145 HD
ENDBRANCH  17  22
ENDBRANCH   5  14
BRANCH   6  25
ATOM     25  O   UNL     1      32.687 -22.563 -18.281  0.00  0.00    -0.453 OA
BRANCH  25  26
ATOM     26  C   UNL     1      34.021 -22.868 -18.644  0.00  0.00    +0.208 C 
BRANCH  26  27
ATOM     27  C   UNL     1      34.414 -21.986 -19.828  0.00  0.00    +0.044 C 
ATOM     28  C   UNL     1      33.345 -20.915 -20.085  0.00  0.00    +0.004 C 
ATOM     29  C   UNL     1      35.786 -21.341 -19.591  0.00  0.00    +0.004 C 
ATOM     30  C   UNL     1      33.740 -19.986 -21.230  0.00  0.00    +0.000 C 
ATOM     31  C   UNL     1      36.177 -20.411 -20.736  0.00  0.00    +0.000 C 
ATOM     32  C   UNL     1      35.108 -19.355 -20.995  0.00  0.00    +0.000 C 
ENDBRANCH  26  27
ENDBRANCH  25  26
ENDBRANCH   6  25
TORSDOF 5
ENDMDL
MODEL 4
REMARK VINA RESULT:     -12.0      2.845      7.215
REMARK  Name = 447656
REMARK  5 active torsions:
REMARK  status: ('A' for Active; 'I' for Inactive)
REMARK    1  A    between atoms: N_5  and  C_14
REMARK    2  A    between atoms: C_6  and  O_25
REMARK    3  A    between atoms: C_17  and  C_22
REMARK    4  A    between atoms: O_25  and  C_26
REMARK    5  A    between atoms: C_26  and  C_27
REMARK                            x       y       z     vdW  Elec       q    Type
REMARK                         _______ _______ _______ _____ _____    ______ ____
ROOT
ATOM      1  N   UNL     1      33.979 -22.775 -16.624  0.00  0.00    -0.293 NA
ATOM      2  N   UNL     1      32.831 -24.663 -13.685  0.00  0.00    -0.266 NA
ATOM      3  N   UNL     1      31.735 -23.705 -16.851  0.00  0.00    -0.316 NA
ATOM      4  N   UNL     1      30.986 -24.952 -14.903  0.00  0.00    -0.296 N 
ATOM      5  N   UNL     1      32.715 -22.457 -18.571  0.00  0.00    -0.238 N 
ATOM      6  C   UNL     1      34.112 -23.287 -15.382  0.00  0.00    +0.288 C 
ATOM      7  C   UNL     1      33.059 -24.012 -14.864  0.00  0.00    +0.215 C 
ATOM      8  C   UNL     1      31.900 -24.206 -15.602  0.00  0.00    +0.196 C 
ATOM      9  C   UNL     1      32.814 -23.011 -17.273  0.00  0.00    +0.207 C 
ATOM     10  C   UNL     1      31.577 -25.210 -13.755  0.00  0.00    +0.164 C 
ATOM     11  H   UNL     1      33.454 -24.728 -12.925  0.00  0.00    +0.126 HD
ATOM     12  H   UNL     1      30.088 -25.232 -15.193  0.00  0.00    +0.150 HD
ATOM     13  H   UNL     1      31.859 -22.645 -19.018  0.00  0.00    +0.166 HD
ENDROOT
BRANCH   5  14
ATOM     14  C   UNL     1      33.602 -21.690 -19.347  0.00  0.00    +0.058 C 
ATOM     15  C   UNL     1      34.977 -21.930 -19.284  0.00  0.00    +0.015 C 
ATOM     16  C   UNL     1      33.112 -20.684 -20.183  0.00  0.00    +0.015 C 
ATOM     17  C   UNL     1      35.364 -20.166 -20.888  0.00  0.00    +0.053 C 
ATOM     18  C   UNL     1      35.857 -21.169 -20.054  0.00  0.00    +0.006 C 
ATOM     19  C   UNL     1      33.992 -19.923 -20.954  0.00  0.00    +0.006 C 
BRANCH  17  22
ATOM     20  O   UNL     1      35.988 -19.015 -22.846  0.00  0.00    -0.270 OA
ATOM     21  N   UNL     1      37.496 -19.009 -21.118  0.00  0.00    -0.325 N 
ATOM     22  C   UNL     1      36.281 -19.373 -21.691  0.00  0.00    +0.243 C 
ATOM     23  H   UNL     1      38.142 -18.472 -21.632  0.00  0.00    +0.145 HD
ATOM     24  H   UNL     1      37.710 -19.288 -20.198  0.00  0.00    +0.145 HD
ENDBRANCH  17  22
ENDBRANCH   5  14
BRANCH   6  25
ATOM     25  O   UNL     1      35.281 -23.066 -14.696  0.00  0.00    -0.453 OA
BRANCH  25  26
ATOM     26  C   UNL     1      36.484 -23.119 -15.441  0.00  0.00    +0.208 C 
BRANCH  26  27
ATOM     27  C   UNL     1      37.561 -23.769 -14.575  0.00  0.00    +0.044 C 
ATOM     28  C   UNL     1      37.237 -23.597 -13.085  0.00  0.00    +0.004 C 
ATOM     29  C   UNL     1      37.720 -25.253 -14.931  0.00  0.00    +0.004 C 
ATOM     30  C   UNL     1      38.273 -24.285 -12.199  0.00  0.00    +0.000 C 
ATOM     31  C   UNL     1      38.754 -25.939 -14.041  0.00  0.00    +0.000 C 
ATOM     32  C   UNL     1      38.433 -25.758 -12.561  0.00  0.00    +0.000 C 
ENDBRANCH  26  27
ENDBRANCH  25  26
ENDBRANCH   6  25
TORSDOF 5
ENDMDL
MODEL 5
REMARK VINA RESULT:     -11.8      1.328      2.128
REMARK  Name = 447656
REMARK  5 active torsions:
REMARK  status: ('A' for Active; 'I' for Inactive)
REMARK    1  A    between atoms: N_5  and  C_14
REMARK    2  A    between atoms: C_6  and  O_25
REMARK    3  A    between atoms: C_17  and  C_22
REMARK    4  A    between atoms: O_25  and  C_26
REMARK    5  A    between atoms: C_26  and  C_27
REMARK                            x       y       z     vdW  Elec       q    Type
REMARK                         _______ _______ _______ _____ _____    ______ ____
ROOT
ATOM      1  N   UNL     1      34.298 -24.096 -14.775  0.00  0.00    -0.293 NA
ATOM      2  N   UNL     1      37.816 -24.322 -13.727  0.00  0.00    -0.266 NA
ATOM      3  N   UNL     1      34.604 -24.482 -12.385  0.00  0.00    -0.316 NA
ATOM      4  N   UNL     1      36.933 -24.630 -11.704  0.00  0.00    -0.296 N 
ATOM      5  N   UNL     1      32.469 -24.296 -13.326  0.00  0.00    -0.238 N 
ATOM      6  C   UNL     1      35.631 -24.084 -14.987  0.00  0.00    +0.288 C 
ATOM      7  C   UNL     1      36.462 -24.271 -13.902  0.00  0.00    +0.215 C 
ATOM      8  C   UNL     1      35.937 -24.465 -12.631  0.00  0.00    +0.196 C 
ATOM      9  C   UNL     1      33.872 -24.291 -13.504  0.00  0.00    +0.207 C 
ATOM     10  C   UNL     1      38.049 -24.539 -12.395  0.00  0.00    +0.164 C 
ATOM     11  H   UNL     1      38.498 -24.222 -14.430  0.00  0.00    +0.126 HD
ATOM     12  H   UNL     1      36.835 -24.782 -10.736  0.00  0.00    +0.150 HD
ATOM     13  H   UNL     1      32.189 -24.439 -12.393  0.00  0.00    +0.166 HD
ENDROOT
BRANCH   5  14
ATOM     14  C   UNL     1      31.396 -24.135 -14.220  0.00  0.00    +0.058 C 
ATOM     15  C   UNL     1      30.618 -25.236 -14.587  0.00  0.00    +0.015 C 
ATOM     16  C   UNL     1      31.104 -22.875 -14.747  0.00  0.00    +0.015 C 
ATOM     17  C   UNL     1      29.264 -23.818 -15.998  0.00  0.00    +0.053 C 
ATOM     18  C   UNL     1      29.553 -25.078 -15.473  0.00  0.00    +0.006 C 
ATOM     19  C   UNL     1      30.039 -22.716 -15.634  0.00  0.00    +0.006 C 
BRANCH  17  22
ATOM     20  O   UNL     1      27.739 -24.599 -17.614  0.00  0.00    -0.270 OA
ATOM     21  N   UNL     1      27.553 -22.399 -16.994  0.00  0.00    -0.325 N 
ATOM     22  C   UNL     1      28.154 -23.652 -16.921  0.00  0.00    +0.243 C 
ATOM     23  H   UNL     1      26.799 -22.249 -17.609  0.00  0.00    +0.145 HD
ATOM     24  H   UNL     1      27.883 -21.661 -16.432  0.00  0.00    +0.145 HD
ENDBRANCH  17  22
ENDBRANCH   5  14
BRANCH   6  25
ATOM     25  O   UNL     1      36.098 -23.889 -16.265  0.00  0.00    -0.453 OA
BRANCH  25  26
ATOM     26  C   UNL     1      36.708 -22.642 -16.543  0.00  0.00    +0.208 C 
BRANCH  26  27
ATOM     27  C   UNL     1      35.875 -21.921 -17.601  0.00  0.00    +0.044 C 
ATOM     28  C   UNL     1      36.714 -21.647 -18.857  0.00  0.00    +0.004 C 
ATOM     29  C   UNL     1      34.620 -22.732 -17.949  0.00  0.00    +0.004 C 
ATOM     30  C   UNL     1      35.888 -20.974 -19.951  0.00  0.00    +0.000 C 
ATOM     31  C   UNL     1      33.799 -22.058 -19.045  0.00  0.00    +0.000 C 
ATOM     32  C   UNL     1      34.638 -21.779 -20.287  0.00  0.00    +0.000 C 
ENDBRANCH  26  27
ENDBRANCH  25  26
ENDBRANCH   6  25
TORSDOF 5
ENDMDL
MODEL 6
REMARK VINA RESULT:     -11.8      2.744      6.142
REMARK  Name = 447656
REMARK  5 active torsions:
REMARK  status: ('A' for Active; 'I' for Inactive)
REMARK    1  A    between atoms: N_5  and  C_14
REMARK    2  A    between atoms: C_6  and  O_25
REMARK    3  A    between atoms: C_17  and  C_22
REMARK    4  A    between atoms: O_25  and  C_26
REMARK    5  A    between atoms: C_26  and  C_27
REMARK                            x       y       z     vdW  Elec       q    Type
REMARK                         _______ _______ _______ _____ _____    ______ ____
ROOT
ATOM      1  N   UNL     1      35.631 -23.874 -15.704  0.00  0.00    -0.293 NA
ATOM      2  N   UNL     1      36.530 -25.821 -12.717  0.00  0.00    -0.266 NA
ATOM      3  N   UNL     1      38.002 -23.791 -15.135  0.00  0.00    -0.316 NA
ATOM      4  N   UNL     1      38.585 -25.081 -13.159  0.00  0.00    -0.296 N 
ATOM      5  N   UNL     1      37.153 -22.643 -16.989  0.00  0.00    -0.238 N 
ATOM      6  C   UNL     1      35.364 -24.680 -14.654  0.00  0.00    +0.288 C 
ATOM      7  C   UNL     1      36.412 -25.047 -13.836  0.00  0.00    +0.215 C 
ATOM      8  C   UNL     1      37.701 -24.599 -14.090  0.00  0.00    +0.196 C 
ATOM      9  C   UNL     1      36.916 -23.485 -15.879  0.00  0.00    +0.207 C 
ATOM     10  C   UNL     1      37.849 -25.811 -12.349  0.00  0.00    +0.164 C 
ATOM     11  H   UNL     1      35.800 -26.298 -12.259  0.00  0.00    +0.126 HD
ATOM     12  H   UNL     1      39.554 -24.917 -13.108  0.00  0.00    +0.150 HD
ATOM     13  H   UNL     1      38.096 -22.376 -17.091  0.00  0.00    +0.166 HD
ENDROOT
BRANCH   5  14
ATOM     14  C   UNL     1      36.306 -22.112 -17.978  0.00  0.00    +0.058 C 
ATOM     15  C   UNL     1      34.942 -22.415 -17.969  0.00  0.00    +0.015 C 
ATOM     16  C   UNL     1      36.823 -21.279 -18.973  0.00  0.00    +0.015 C 
ATOM     17  C   UNL     1      34.621 -21.057 -19.941  0.00  0.00    +0.053 C 
ATOM     18  C   UNL     1      34.100 -21.888 -18.949  0.00  0.00    +0.006 C 
ATOM     19  C   UNL     1      35.982 -20.752 -19.953  0.00  0.00    +0.006 C 
BRANCH  17  22
ATOM     20  O   UNL     1      32.511 -20.668 -20.914  0.00  0.00    -0.270 OA
ATOM     21  N   UNL     1      34.328 -19.774 -21.991  0.00  0.00    -0.325 N 
ATOM     22  C   UNL     1      33.744 -20.507 -20.962  0.00  0.00    +0.243 C 
ATOM     23  H   UNL     1      33.765 -19.387 -22.701  0.00  0.00    +0.145 HD
ATOM     24  H   UNL     1      35.304 -19.643 -22.010  0.00  0.00    +0.145 HD
ENDBRANCH  17  22
ENDBRANCH   5  14
BRANCH   6  25
ATOM     25  O   UNL     1      34.070 -25.093 -14.448  0.00  0.00    -0.453 OA
BRANCH  25  26
ATOM     26  C   UNL     1      33.122 -24.095 -14.116  0.00  0.00    +0.208 C 
BRANCH  26  27
ATOM     27  C   UNL     1      31.888 -24.288 -14.996  0.00  0.00    +0.044 C 
ATOM     28  C   UNL     1      30.765 -24.981 -14.211  0.00  0.00    +0.004 C 
ATOM     29  C   UNL     1      31.410 -22.944 -15.561  0.00  0.00    +0.004 C 
ATOM     30  C   UNL     1      29.501 -25.137 -15.054  0.00  0.00    +0.000 C 
ATOM     31  C   UNL     1      30.145 -23.104 -16.401  0.00  0.00    +0.000 C 
ATOM     32  C   UNL     1      29.035 -23.801 -15.621  0.00  0.00    +0.000 C 
ENDBRANCH  26  27
ENDBRANCH  25  26
ENDBRANCH   6  25
TORSDOF 5
ENDMDL
MODEL 7
REMARK VINA RESULT:     -11.2      2.707      7.652
REMARK  Name = 447656
REMARK  5 active torsions:
REMARK  status: ('A' for Active; 'I' for Inactive)
REMARK    1  A    between atoms: N_5  and  C_14
REMARK    2  A    between atoms: C_6  and  O_25
REMARK    3  A    between atoms: C_17  and  C_22
REMARK    4  A    between atoms: O_25  and  C_26
REMARK    5  A    between atoms: C_26  and  C_27
REMARK                            x       y       z     vdW  Elec       q    Type
REMARK                         _______ _______ _______ _____ _____    ______ ____
ROOT
ATOM      1  N   UNL     1      34.902 -22.611 -17.719  0.00  0.00    -0.293 NA
ATOM      2  N   UNL     1      33.245 -21.101 -20.634  0.00  0.00    -0.266 NA
ATOM      3  N   UNL     1      36.324 -21.101 -19.004  0.00  0.00    -0.316 NA
ATOM      4  N   UNL     1      35.219 -20.110 -20.929  0.00  0.00    -0.296 N 
ATOM      5  N   UNL     1      37.123 -22.200 -17.099  0.00  0.00    -0.238 N 
ATOM      6  C   UNL     1      33.858 -22.404 -18.550  0.00  0.00    +0.288 C 
ATOM      7  C   UNL     1      34.038 -21.545 -19.615  0.00  0.00    +0.215 C 
ATOM      8  C   UNL     1      35.258 -20.915 -19.820  0.00  0.00    +0.196 C 
ATOM      9  C   UNL     1      36.055 -21.956 -17.993  0.00  0.00    +0.207 C 
ATOM     10  C   UNL     1      33.995 -20.244 -21.394  0.00  0.00    +0.164 C 
ATOM     11  H   UNL     1      32.306 -21.352 -20.793  0.00  0.00    +0.126 HD
ATOM     12  H   UNL     1      35.944 -19.554 -21.295  0.00  0.00    +0.150 HD
ATOM     13  H   UNL     1      37.947 -21.710 -17.322  0.00  0.00    +0.166 HD
ENDROOT
BRANCH   5  14
ATOM     14  C   UNL     1      37.237 -23.005 -15.952  0.00  0.00    +0.058 C 
ATOM     15  C   UNL     1      36.251 -22.961 -14.962  0.00  0.00    +0.015 C 
ATOM     16  C   UNL     1      38.336 -23.853 -15.796  0.00  0.00    +0.015 C 
ATOM     17  C   UNL     1      37.462 -24.606 -13.673  0.00  0.00    +0.053 C 
ATOM     18  C   UNL     1      36.363 -23.760 -13.825  0.00  0.00    +0.006 C 
ATOM     19  C   UNL     1      38.448 -24.653 -14.658  0.00  0.00    +0.006 C 
BRANCH  17  22
ATOM     20  O   UNL     1      37.943 -24.967 -11.395  0.00  0.00    -0.270 OA
ATOM     21  N   UNL     1      37.250 -26.786 -12.607  0.00  0.00    -0.325 N 
ATOM     22  C   UNL     1      37.579 -25.439 -12.487  0.00  0.00    +0.243 C 
ATOM     23  H   UNL     1      37.318 -27.381 -11.826  0.00  0.00    +0.145 HD
ATOM     24  H   UNL     1      36.951 -27.145 -13.474  0.00  0.00    +0.145 HD
ENDBRANCH  17  22
ENDBRANCH   5  14
BRANCH   6  25
ATOM     25  O   UNL     1      32.674 -23.053 -18.302  0.00  0.00    -0.453 OA
BRANCH  25  26
ATOM     26  C   UNL     1      31.931 -22.627 -17.174  0.00  0.00    +0.208 C 
BRANCH  26  27
ATOM     27  C   UNL     1      31.804 -23.801 -16.206  0.00  0.00    +0.044 C 
ATOM     28  C   UNL     1      32.639 -23.555 -14.942  0.00  0.00    +0.004 C 
ATOM     29  C   UNL     1      30.333 -24.052 -15.848  0.00  0.00    +0.004 C 
ATOM     30  C   UNL     1      32.486 -24.693 -13.934  0.00  0.00    +0.000 C 
ATOM     31  C   UNL     1      30.184 -25.188 -14.839  0.00  0.00    +0.000 C 
ATOM     32  C   UNL     1      31.023 -24.944 -13.588  0.00  0.00    +0.000 C 
ENDBRANCH  26  27
ENDBRANCH  25  26
ENDBRANCH   6  25
TORSDOF 5
ENDMDL
MODEL 8
REMARK VINA RESULT:     -11.0      3.140      7.549
REMARK  Name = 447656
REMARK  5 active torsions:
REMARK  status: ('A' for Active; 'I' for Inactive)
REMARK    1  A    between atoms: N_5  and  C_14
REMARK    2  A    between atoms: C_6  and  O_25
REMARK    3  A    between atoms: C_17  and  C_22
REMARK    4  A    between atoms: O_25  and  C_26
REMARK    5  A    between atoms: C_26  and  C_27
REMARK                            x       y       z     vdW  Elec       q    Type
REMARK                         _______ _______ _______ _____ _____    ______ ____
ROOT
ATOM      1  N   UNL     1      35.041 -22.043 -18.410  0.00  0.00    -0.293 NA
ATOM      2  N   UNL     1      34.942 -24.176 -15.416  0.00  0.00    -0.266 NA
ATOM      3  N   UNL     1      37.130 -22.092 -17.151  0.00  0.00    -0.316 NA
ATOM      4  N   UNL     1      37.053 -23.504 -15.174  0.00  0.00    -0.296 N 
ATOM      5  N   UNL     1      36.912 -20.815 -19.099  0.00  0.00    -0.238 N 
ATOM      6  C   UNL     1      34.447 -22.888 -17.540  0.00  0.00    +0.288 C 
ATOM      7  C   UNL     1      35.189 -23.342 -16.469  0.00  0.00    +0.215 C 
ATOM      8  C   UNL     1      36.506 -22.938 -16.296  0.00  0.00    +0.196 C 
ATOM      9  C   UNL     1      36.329 -21.701 -18.165  0.00  0.00    +0.207 C 
ATOM     10  C   UNL     1      36.088 -24.242 -14.669  0.00  0.00    +0.164 C 
ATOM     11  H   UNL     1      34.096 -24.644 -15.229  0.00  0.00    +0.126 HD
ATOM     12  H   UNL     1      37.966 -23.386 -14.824  0.00  0.00    +0.150 HD
ATOM     13  H   UNL     1      37.848 -20.585 -18.897  0.00  0.00    +0.166 HD
ENDROOT
BRANCH   5  14
ATOM     14  C   UNL     1      36.418 -20.198 -20.262  0.00  0.00    +0.058 C 
ATOM     15  C   UNL     1      35.116 -20.460 -20.696  0.00  0.00    +0.015 C 
ATOM     16  C   UNL     1      37.226 -19.321 -20.989  0.00  0.00    +0.015 C 
ATOM     17  C   UNL     1      35.434 -18.972 -22.572  0.00  0.00    +0.053 C 
ATOM     18  C   UNL     1      34.624 -19.848 -21.849  0.00  0.00    +0.006 C 
ATOM     19  C   UNL     1      36.735 -18.708 -22.142  0.00  0.00    +0.006 C 
BRANCH  17  22
ATOM     20  O   UNL     1      34.025 -18.861 -24.457  0.00  0.00    -0.270 OA
ATOM     21  N   UNL     1      35.455 -17.098 -24.128  0.00  0.00    -0.325 N 
ATOM     22  C   UNL     1      34.922 -18.334 -23.774  0.00  0.00    +0.243 C 
ATOM     23  H   UNL     1      35.133 -16.636 -24.936  0.00  0.00    +0.145 HD
ATOM     24  H   UNL     1      36.156 -16.686 -23.572  0.00  0.00    +0.145 HD
ENDBRANCH  17  22
ENDBRANCH   5  14
BRANCH   6  25
ATOM     25  O   UNL     1      33.141 -23.255 -17.759  0.00  0.00    -0.453 OA
BRANCH  25  26
ATOM     26  C   UNL     1      32.169 -22.722 -16.878  0.00  0.00    +0.208 C 
BRANCH  26  27
ATOM     27  C   UNL     1      31.154 -23.818 -16.559  0.00  0.00    +0.044 C 
ATOM     28  C   UNL     1      31.396 -24.389 -15.155  0.00  0.00    +0.004 C 
ATOM     29  C   UNL     1      29.721 -23.285 -16.692  0.00  0.00    +0.004 C 
ATOM     30  C   UNL     1      30.359 -25.450 -14.791  0.00  0.00    +0.000 C 
ATOM     31  C   UNL     1      28.688 -24.348 -16.325  0.00  0.00    +0.000 C 
ATOM     32  C   UNL     1      28.937 -24.919 -14.933  0.00  0.00    +0.000 C 
ENDBRANCH  26  27
ENDBRANCH  25  26
ENDBRANCH   6  25
TORSDOF 5
ENDMDL
MODEL 9
REMARK VINA RESULT:     -10.9     12.077     15.469
REMARK  Name = 447656
REMARK  5 active torsions:
REMARK  status: ('A' for Active; 'I' for Inactive)
REMARK    1  A    between atoms: N_5  and  C_14
REMARK    2  A    between atoms: C_6  and  O_25
REMARK    3  A    between atoms: C_17  and  C_22
REMARK    4  A    between atoms: O_25  and  C_26
REMARK    5  A    between atoms: C_26  and  C_27
REMARK                            x       y       z     vdW  Elec       q    Type
REMARK                         _______ _______ _______ _____ _____    ______ ____
ROOT
ATOM      1  N   UNL     1      32.856 -10.325 -22.495  0.00  0.00    -0.293 NA
ATOM      2  N   UNL     1      32.160  -7.027 -21.023  0.00  0.00    -0.266 NA
ATOM      3  N   UNL     1      31.998 -10.412 -20.213  0.00  0.00    -0.316 NA
ATOM      4  N   UNL     1      31.541  -8.228 -19.250  0.00  0.00    -0.296 N 
ATOM      5  N   UNL     1      32.526 -12.364 -21.391  0.00  0.00    -0.238 N 
ATOM      6  C   UNL     1      32.804  -8.976 -22.509  0.00  0.00    +0.288 C 
ATOM      7  C   UNL     1      32.348  -8.333 -21.376  0.00  0.00    +0.215 C 
ATOM      8  C   UNL     1      31.957  -9.058 -20.259  0.00  0.00    +0.196 C 
ATOM      9  C   UNL     1      32.455 -10.952 -21.364  0.00  0.00    +0.207 C 
ATOM     10  C   UNL     1      31.676  -7.015 -19.743  0.00  0.00    +0.164 C 
ATOM     11  H   UNL     1      32.340  -6.240 -21.587  0.00  0.00    +0.126 HD
ATOM     12  H   UNL     1      31.214  -8.481 -18.357  0.00  0.00    +0.150 HD
ATOM     13  H   UNL     1      32.228 -12.792 -20.557  0.00  0.00    +0.166 HD
ENDROOT
BRANCH   5  14
ATOM     14  C   UNL     1      32.938 -13.276 -22.379  0.00  0.00    +0.058 C 
ATOM     15  C   UNL     1      32.486 -13.139 -23.694  0.00  0.00    +0.015 C 
ATOM     16  C   UNL     1      33.802 -14.323 -22.050  0.00  0.00    +0.015 C 
ATOM     17  C   UNL     1      33.758 -15.088 -24.342  0.00  0.00    +0.053 C 
ATOM     18  C   UNL     1      32.895 -14.043 -24.674  0.00  0.00    +0.006 C 
ATOM     19  C   UNL     1      34.212 -15.228 -23.030  0.00  0.00    +0.006 C 
BRANCH  17  22
ATOM     20  O   UNL     1      33.630 -16.076 -26.476  0.00  0.00    -0.270 OA
ATOM     21  N   UNL     1      35.253 -16.870 -25.063  0.00  0.00    -0.325 N 
ATOM     22  C   UNL     1      34.185 -16.030 -25.363  0.00  0.00    +0.243 C 
ATOM     23  H   UNL     1      35.570 -17.522 -25.731  0.00  0.00    +0.145 HD
ATOM     24  H   UNL     1      35.692 -16.815 -24.183  0.00  0.00    +0.145 HD
ENDBRANCH  17  22
ENDBRANCH   5  14
BRANCH   6  25
ATOM     25  O   UNL     1      33.204  -8.308 -23.641  0.00  0.00    -0.453 OA
BRANCH  25  26
ATOM     26  C   UNL     1      34.433  -7.609 -23.574  0.00  0.00    +0.208 C 
BRANCH  26  27
ATOM     27  C   UNL     1      34.283  -6.293 -24.335  0.00  0.00    +0.044 C 
ATOM     28  C   UNL     1      35.108  -6.318 -25.629  0.00  0.00    +0.004 C 
ATOM     29  C   UNL     1      32.807  -6.004 -24.635  0.00  0.00    +0.004 C 
ATOM     30  C   UNL     1      34.933  -5.033 -26.435  0.00  0.00    +0.000 C 
ATOM     31  C   UNL     1      32.636  -4.720 -25.443  0.00  0.00    +0.000 C 
ATOM     32  C   UNL     1      33.464  -4.746 -26.723  0.00  0.00    +0.000 C 
ENDBRANCH  26  27
ENDBRANCH  25  26
ENDBRANCH   6  25
TORSDOF 5
ENDMDL
