MODEL 1
REMARK VINA RESULT:     -14.5      0.000      0.000
REMARK  Name = 10200813
REMARK  4 active torsions:
REMARK  status: ('A' for Active; 'I' for Inactive)
REMARK    1  A    between atoms: C_3  and  C_24
REMARK    2  A    between atoms: C_8  and  C_11
REMARK    3  A    between atoms: N_10  and  C_16
REMARK    4  A    between atoms: C_24  and  C_26
REMARK                            x       y       z     vdW  Elec       q    Type
REMARK                         _______ _______ _______ _____ _____    ______ ____
ROOT
ATOM      1  O   UNL     1      34.866 -17.454 -24.845  0.00  0.00    -0.265 OA
ATOM      2  N   UNL     1      34.790 -15.904 -23.080  0.00  0.00    -0.272 N 
ATOM      3  C   UNL     1      33.271 -13.766 -21.849  0.00  0.00    +0.008 C 
ATOM      4  C   UNL     1      33.088 -14.141 -23.328  0.00  0.00    +0.022 C 
ATOM      5  C   UNL     1      33.743 -14.988 -21.045  0.00  0.00    +0.022 C 
ATOM      6  C   UNL     1      34.357 -14.773 -23.898  0.00  0.00    +0.094 C 
ATOM      7  C   UNL     1      34.997 -15.606 -21.659  0.00  0.00    +0.094 C 
ATOM      8  C   UNL     1      35.017 -17.138 -23.672  0.00  0.00    +0.303 C 
ENDROOT
BRANCH   8  11
ATOM      9  O   UNL     1      36.701 -18.464 -22.818  0.00  0.00    -0.265 OA
ATOM     10  N   UNL     1      34.494 -18.773 -22.021  0.00  0.00    -0.277 N 
ATOM     11  C   UNL     1      35.504 -18.214 -22.778  0.00  0.00    +0.303 C 
ATOM     12  H   UNL     1      33.591 -18.405 -22.156  0.00  0.00    +0.155 HD
BRANCH  10  16
ATOM     13  O   UNL     1      32.621 -22.035 -18.923  0.00  0.00    -0.407 OA
ATOM     14  O   UNL     1      32.792 -23.743 -17.373  0.00  0.00    -0.223 OA
ATOM     15  N   UNL     1      34.701 -22.816 -18.335  0.00  0.00    -0.287 N 
ATOM     16  C   UNL     1      34.613 -19.816 -21.073  0.00  0.00    +0.054 C 
ATOM     17  C   UNL     1      33.459 -20.351 -20.514  0.00  0.00    +0.054 C 
ATOM     18  C   UNL     1      35.892 -20.276 -20.730  0.00  0.00    +0.016 C 
ATOM     19  C   UNL     1      33.630 -21.365 -19.596  0.00  0.00    +0.167 A 
ATOM     20  C   UNL     1      34.885 -21.820 -19.257  0.00  0.00    +0.096 A 
ATOM     21  C   UNL     1      36.042 -21.305 -19.798  0.00  0.00    +0.022 C 
ATOM     22  C   UNL     1      33.338 -22.950 -18.130  0.00  0.00    +0.419 A 
ATOM     23  H   UNL     1      35.409 -23.343 -17.897  0.00  0.00    +0.172 HD
ENDBRANCH  10  16
ENDBRANCH   8  11
BRANCH   3  24
ATOM     24  C   UNL     1      31.977 -13.201 -21.269  0.00  0.00    +0.026 C 
BRANCH  24  26
ATOM     25  F   UNL     1      32.170  -7.600 -20.843  0.00  0.00    -0.204 F 
ATOM     26  C   UNL     1      32.029 -11.702 -21.154  0.00  0.00    -0.022 C 
ATOM     27  C   UNL     1      32.063 -11.112 -19.898  0.00  0.00    -0.002 C 
ATOM     28  C   UNL     1      32.041 -10.929 -22.307  0.00  0.00    -0.002 C 
ATOM     29  C   UNL     1      32.111  -9.722 -19.793  0.00  0.00    +0.029 C 
ATOM     30  C   UNL     1      32.090  -9.538 -22.202  0.00  0.00    +0.029 C 
ATOM     31  C   UNL     1      32.125  -8.935 -20.945  0.00  0.00    +0.140 C 
ENDBRANCH  24  26
ENDBRANCH   3  24
TORSDOF 4
ENDMDL
MODEL 2
REMARK VINA RESULT:     -13.9      5.152      9.976
REMARK  Name = 10200813
REMARK  4 active torsions:
REMARK  status: ('A' for Active; 'I' for Inactive)
REMARK    1  A    between atoms: C_3  and  C_24
REMARK    2  A    between atoms: C_8  and  C_11
REMARK    3  A    between atoms: N_10  and  C_16
REMARK    4  A    between atoms: C_24  and  C_26
REMARK                            x       y       z     vdW  Elec       q    Type
REMARK                         _______ _______ _______ _____ _____    ______ ____
ROOT
ATOM      1  O   UNL     1      33.491 -13.186 -26.205  0.00  0.00    -0.265 OA
ATOM      2  N   UNL     1      33.640 -14.722 -24.431  0.00  0.00    -0.272 N 
ATOM      3  C   UNL     1      34.813 -17.212 -23.527  0.00  0.00    +0.008 C 
ATOM      4  C   UNL     1      34.667 -16.881 -25.021  0.00  0.00    +0.022 C 
ATOM      5  C   UNL     1      34.930 -15.919 -22.706  0.00  0.00    +0.022 C 
ATOM      6  C   UNL     1      33.508 -15.917 -25.262  0.00  0.00    +0.094 C 
ATOM      7  C   UNL     1      33.767 -14.972 -22.992  0.00  0.00    +0.094 C 
ATOM      8  C   UNL     1      33.595 -13.465 -25.017  0.00  0.00    +0.303 C 
ENDROOT
BRANCH   8  11
ATOM      9  O   UNL     1      34.673 -11.595 -24.203  0.00  0.00    -0.265 OA
ATOM     10  N   UNL     1      32.605 -12.225 -23.241  0.00  0.00    -0.277 N 
ATOM     11  C   UNL     1      33.686 -12.310 -24.095  0.00  0.00    +0.303 C 
ATOM     12  H   UNL     1      31.916 -12.922 -23.336  0.00  0.00    +0.155 HD
BRANCH  10  16
ATOM     13  O   UNL     1      32.484  -7.624 -21.640  0.00  0.00    -0.407 OA
ATOM     14  O   UNL     1      32.116  -6.011 -20.024  0.00  0.00    -0.223 OA
ATOM     15  N   UNL     1      31.789  -8.268 -19.546  0.00  0.00    -0.287 N 
ATOM     16  C   UNL     1      32.378 -11.249 -22.243  0.00  0.00    +0.054 C 
ATOM     17  C   UNL     1      32.581  -9.910 -22.553  0.00  0.00    +0.054 C 
ATOM     18  C   UNL     1      31.954 -11.666 -20.973  0.00  0.00    +0.016 C 
ATOM     19  C   UNL     1      32.345  -9.000 -21.546  0.00  0.00    +0.167 A 
ATOM     20  C   UNL     1      31.928  -9.405 -20.297  0.00  0.00    +0.096 A 
ATOM     21  C   UNL     1      31.720 -10.726 -19.967  0.00  0.00    +0.022 C 
ATOM     22  C   UNL     1      32.122  -7.191 -20.351  0.00  0.00    +0.419 A 
ATOM     23  H   UNL     1      31.502  -8.223 -18.604  0.00  0.00    +0.172 HD
ENDBRANCH  10  16
ENDBRANCH   8  11
BRANCH   3  24
ATOM     24  C   UNL     1      36.017 -18.120 -23.287  0.00  0.00    +0.026 C 
BRANCH  24  26
ATOM     25  F   UNL     1      35.120 -21.664 -19.019  0.00  0.00    -0.204 F 
ATOM     26  C   UNL     1      35.777 -19.068 -22.145  0.00  0.00    -0.022 C 
ATOM     27  C   UNL     1      36.843 -19.461 -21.346  0.00  0.00    -0.002 C 
ATOM     28  C   UNL     1      34.493 -19.538 -21.904  0.00  0.00    -0.002 C 
ATOM     29  C   UNL     1      36.619 -20.340 -20.286  0.00  0.00    +0.029 C 
ATOM     30  C   UNL     1      34.270 -20.418 -20.845  0.00  0.00    +0.029 C 
ATOM     31  C   UNL     1      35.333 -20.818 -20.036  0.00  0.00    +0.140 C 
ENDBRANCH  24  26
ENDBRANCH   3  24
TORSDOF 4
ENDMDL
MODEL 3
REMARK VINA RESULT:     -13.7      4.776      7.560
REMARK  Name = 10200813
REMARK  4 active torsions:
REMARK  status: ('A' for Active; 'I' for Inactive)
REMARK    1  A    between atoms: C_3  and  C_24
REMARK    2  A    between atoms: C_8  and  C_11
REMARK    3  A    between atoms: N_10  and  C_16
REMARK    4  A    between atoms: C_24  and  C_26
REMARK                            x       y       z     vdW  Elec       q    Type
REMARK                         _______ _______ _______ _____ _____    ______ ____
ROOT
ATOM      1  O   UNL     1      31.980 -22.165 -17.944  0.00  0.00    -0.265 OA
ATOM      2  N   UNL     1      33.689 -21.937 -19.542  0.00  0.00    -0.272 N 
ATOM      3  C   UNL     1      35.147 -20.083 -21.223  0.00  0.00    +0.008 C 
ATOM      4  C   UNL     1      33.743 -19.759 -20.690  0.00  0.00    +0.022 C 
ATOM      5  C   UNL     1      35.869 -21.047 -20.269  0.00  0.00    +0.022 C 
ATOM      6  C   UNL     1      32.947 -21.035 -20.420  0.00  0.00    +0.094 C 
ATOM      7  C   UNL     1      35.033 -22.297 -20.005  0.00  0.00    +0.094 C 
ATOM      8  C   UNL     1      33.092 -22.422 -18.387  0.00  0.00    +0.303 C 
ENDROOT
BRANCH   8  11
ATOM      9  O   UNL     1      33.761 -24.561 -17.837  0.00  0.00    -0.265 OA
ATOM     10  N   UNL     1      34.693 -22.737 -16.652  0.00  0.00    -0.277 N 
ATOM     11  C   UNL     1      33.896 -23.371 -17.583  0.00  0.00    +0.303 C 
ATOM     12  H   UNL     1      34.639 -21.754 -16.627  0.00  0.00    +0.155 HD
BRANCH  10  16
ATOM     13  O   UNL     1      39.125 -24.157 -15.206  0.00  0.00    -0.407 OA
ATOM     14  O   UNL     1      40.590 -25.139 -13.710  0.00  0.00    -0.223 OA
ATOM     15  N   UNL     1      38.311 -25.024 -13.239  0.00  0.00    -0.287 N 
ATOM     16  C   UNL     1      35.579 -23.342 -15.730  0.00  0.00    +0.054 C 
ATOM     17  C   UNL     1      36.933 -23.398 -16.035  0.00  0.00    +0.054 C 
ATOM     18  C   UNL     1      35.059 -23.864 -14.537  0.00  0.00    +0.016 C 
ATOM     19  C   UNL     1      37.752 -23.996 -15.103  0.00  0.00    +0.167 A 
ATOM     20  C   UNL     1      37.246 -24.511 -13.929  0.00  0.00    +0.096 A 
ATOM     21  C   UNL     1      35.908 -24.466 -13.606  0.00  0.00    +0.022 C 
ATOM     22  C   UNL     1      39.447 -24.814 -14.004  0.00  0.00    +0.419 A 
ATOM     23  H   UNL     1      38.277 -25.464 -12.358  0.00  0.00    +0.172 HD
ENDBRANCH  10  16
ENDBRANCH   8  11
BRANCH   3  24
ATOM     24  C   UNL     1      35.960 -18.806 -21.423  0.00  0.00    +0.026 C 
BRANCH  24  26
ATOM     25  F   UNL     1      34.267 -15.961 -25.966  0.00  0.00    -0.204 F 
ATOM     26  C   UNL     1      35.506 -18.045 -22.639  0.00  0.00    -0.022 C 
ATOM     27  C   UNL     1      35.259 -18.729 -23.821  0.00  0.00    -0.002 C 
ATOM     28  C   UNL     1      35.342 -16.669 -22.562  0.00  0.00    -0.002 C 
ATOM     29  C   UNL     1      34.839 -18.022 -24.949  0.00  0.00    +0.029 C 
ATOM     30  C   UNL     1      34.921 -15.962 -23.689  0.00  0.00    +0.029 C 
ATOM     31  C   UNL     1      34.669 -16.640 -24.882  0.00  0.00    +0.140 C 
ENDBRANCH  24  26
ENDBRANCH   3  24
TORSDOF 4
ENDMDL
MODEL 4
REMARK VINA RESULT:     -13.7      4.588      7.192
REMARK  Name = 10200813
REMARK  4 active torsions:
REMARK  status: ('A' for Active; 'I' for Inactive)
REMARK    1  A    between atoms: C_3  and  C_24
REMARK    2  A    between atoms: C_8  and  C_11
REMARK    3  A    between atoms: N_10  and  C_16
REMARK    4  A    between atoms: C_24  and  C_26
REMARK                            x       y       z     vdW  Elec       q    Type
REMARK                         _______ _______ _______ _____ _____    ______ ____
ROOT
ATOM      1  O   UNL     1      32.045 -22.016 -18.174  0.00  0.00    -0.265 OA
ATOM      2  N   UNL     1      33.767 -21.745 -19.752  0.00  0.00    -0.272 N 
ATOM      3  C   UNL     1      35.215 -19.850 -21.395  0.00  0.00    +0.008 C 
ATOM      4  C   UNL     1      33.802 -19.552 -20.872  0.00  0.00    +0.022 C 
ATOM      5  C   UNL     1      35.941 -20.816 -20.446  0.00  0.00    +0.022 C 
ATOM      6  C   UNL     1      33.021 -20.842 -20.626  0.00  0.00    +0.094 C 
ATOM      7  C   UNL     1      35.120 -22.081 -20.206  0.00  0.00    +0.094 C 
ATOM      8  C   UNL     1      33.165 -22.253 -18.609  0.00  0.00    +0.303 C 
ENDROOT
BRANCH   8  11
ATOM      9  O   UNL     1      33.769 -24.393 -17.994  0.00  0.00    -0.265 OA
ATOM     10  N   UNL     1      34.858 -22.563 -16.962  0.00  0.00    -0.277 N 
ATOM     11  C   UNL     1      33.975 -23.201 -17.809  0.00  0.00    +0.303 C 
ATOM     12  H   UNL     1      34.851 -21.578 -16.984  0.00  0.00    +0.155 HD
BRANCH  10  16
ATOM     13  O   UNL     1      35.945 -25.413 -13.162  0.00  0.00    -0.407 OA
ATOM     14  O   UNL     1      37.422 -26.411 -11.688  0.00  0.00    -0.223 OA
ATOM     15  N   UNL     1      38.198 -25.010 -13.381  0.00  0.00    -0.287 N 
ATOM     16  C   UNL     1      35.771 -23.166 -16.067  0.00  0.00    +0.054 C 
ATOM     17  C   UNL     1      35.282 -23.996 -15.066  0.00  0.00    +0.054 C 
ATOM     18  C   UNL     1      37.140 -22.906 -16.220  0.00  0.00    +0.016 C 
ATOM     19  C   UNL     1      36.214 -24.559 -14.221  0.00  0.00    +0.167 A 
ATOM     20  C   UNL     1      37.560 -24.307 -14.367  0.00  0.00    +0.096 A 
ATOM     21  C   UNL     1      38.067 -23.487 -15.352  0.00  0.00    +0.022 C 
ATOM     22  C   UNL     1      37.229 -25.679 -12.651  0.00  0.00    +0.419 A 
ATOM     23  H   UNL     1      39.169 -25.037 -13.219  0.00  0.00    +0.172 HD
ENDBRANCH  10  16
ENDBRANCH   8  11
BRANCH   3  24
ATOM     24  C   UNL     1      36.012 -18.559 -21.571  0.00  0.00    +0.026 C 
BRANCH  24  26
ATOM     25  F   UNL     1      34.185 -15.585 -25.977  0.00  0.00    -0.204 F 
ATOM     26  C   UNL     1      35.524 -17.763 -22.750  0.00  0.00    -0.022 C 
ATOM     27  C   UNL     1      35.277 -16.405 -22.604  0.00  0.00    -0.002 C 
ATOM     28  C   UNL     1      35.325 -18.398 -23.969  0.00  0.00    -0.002 C 
ATOM     29  C   UNL     1      34.824 -15.667 -23.698  0.00  0.00    +0.029 C 
ATOM     30  C   UNL     1      34.872 -17.660 -25.063  0.00  0.00    +0.029 C 
ATOM     31  C   UNL     1      34.622 -16.294 -24.927  0.00  0.00    +0.140 C 
ENDBRANCH  24  26
ENDBRANCH   3  24
TORSDOF 4
ENDMDL
MODEL 5
REMARK VINA RESULT:     -12.8      4.664     10.334
REMARK  Name = 10200813
REMARK  4 active torsions:
REMARK  status: ('A' for Active; 'I' for Inactive)
REMARK    1  A    between atoms: C_3  and  C_24
REMARK    2  A    between atoms: C_8  and  C_11
REMARK    3  A    between atoms: N_10  and  C_16
REMARK    4  A    between atoms: C_24  and  C_26
REMARK                            x       y       z     vdW  Elec       q    Type
REMARK                         _______ _______ _______ _____ _____    ______ ____
ROOT
ATOM      1  O   UNL     1      34.609 -14.711 -25.224  0.00  0.00    -0.265 OA
ATOM      2  N   UNL     1      34.312 -16.159 -23.396  0.00  0.00    -0.272 N 
ATOM      3  C   UNL     1      35.228 -18.584 -22.103  0.00  0.00    +0.008 C 
ATOM      4  C   UNL     1      35.464 -18.326 -23.600  0.00  0.00    +0.022 C 
ATOM      5  C   UNL     1      35.128 -17.251 -21.344  0.00  0.00    +0.022 C 
ATOM      6  C   UNL     1      34.399 -17.393 -24.174  0.00  0.00    +0.094 C 
ATOM      7  C   UNL     1      34.071 -16.338 -21.961  0.00  0.00    +0.094 C 
ATOM      8  C   UNL     1      34.411 -14.932 -24.036  0.00  0.00    +0.303 C 
ENDROOT
BRANCH   8  11
ATOM      9  O   UNL     1      35.059 -13.608 -22.261  0.00  0.00    -0.265 OA
ATOM     10  N   UNL     1      33.211 -12.927 -23.574  0.00  0.00    -0.277 N 
ATOM     11  C   UNL     1      34.260 -13.733 -23.180  0.00  0.00    +0.303 C 
ATOM     12  H   UNL     1      32.695 -13.230 -24.356  0.00  0.00    +0.155 HD
BRANCH  10  16
ATOM     13  O   UNL     1      33.106  -8.063 -23.285  0.00  0.00    -0.407 OA
ATOM     14  O   UNL     1      32.433  -6.068 -22.329  0.00  0.00    -0.223 OA
ATOM     15  N   UNL     1      31.727  -8.106 -21.446  0.00  0.00    -0.287 N 
ATOM     16  C   UNL     1      32.794 -11.714 -22.978  0.00  0.00    +0.054 C 
ATOM     17  C   UNL     1      33.230 -10.512 -23.524  0.00  0.00    +0.054 C 
ATOM     18  C   UNL     1      31.954 -11.764 -21.858  0.00  0.00    +0.016 C 
ATOM     19  C   UNL     1      32.794  -9.360 -22.907  0.00  0.00    +0.167 A 
ATOM     20  C   UNL     1      31.968  -9.405 -21.805  0.00  0.00    +0.096 A 
ATOM     21  C   UNL     1      31.524 -10.584 -21.248  0.00  0.00    +0.022 C 
ATOM     22  C   UNL     1      32.411  -7.292 -22.335  0.00  0.00    +0.419 A 
ATOM     23  H   UNL     1      31.169  -7.803 -20.692  0.00  0.00    +0.172 HD
ENDBRANCH  10  16
ENDBRANCH   8  11
BRANCH   3  24
ATOM     24  C   UNL     1      36.336 -19.459 -21.522  0.00  0.00    +0.026 C 
BRANCH  24  26
ATOM     25  F   UNL     1      34.329 -23.108 -17.749  0.00  0.00    -0.204 F 
ATOM     26  C   UNL     1      35.799 -20.436 -20.513  0.00  0.00    -0.022 C 
ATOM     27  C   UNL     1      34.446 -20.746 -20.514  0.00  0.00    -0.002 C 
ATOM     28  C   UNL     1      36.664 -21.013 -19.592  0.00  0.00    -0.002 C 
ATOM     29  C   UNL     1      33.948 -21.653 -19.578  0.00  0.00    +0.029 C 
ATOM     30  C   UNL     1      36.166 -21.919 -18.656  0.00  0.00    +0.029 C 
ATOM     31  C   UNL     1      34.808 -22.239 -18.649  0.00  0.00    +0.140 C 
ENDBRANCH  24  26
ENDBRANCH   3  24
TORSDOF 4
ENDMDL
MODEL 6
REMARK VINA RESULT:     -12.6      1.770      2.069
REMARK  Name = 10200813
REMARK  4 active torsions:
REMARK  status: ('A' for Active; 'I' for Inactive)
REMARK    1  A    between atoms: C_3  and  C_24
REMARK    2  A    between atoms: C_8  and  C_11
REMARK    3  A    between atoms: N_10  and  C_16
REMARK    4  A    between atoms: C_24  and  C_26
REMARK                            x       y       z     vdW  Elec       q    Type
REMARK                         _______ _______ _______ _____ _____    ______ ____
ROOT
ATOM      1  O   UNL     1      34.892 -16.285 -25.829  0.00  0.00    -0.265 OA
ATOM      2  N   UNL     1      34.453 -15.229 -23.775  0.00  0.00    -0.272 N 
ATOM      3  C   UNL     1      32.998 -13.102 -22.451  0.00  0.00    +0.008 C 
ATOM      4  C   UNL     1      33.308 -13.057 -23.956  0.00  0.00    +0.022 C 
ATOM      5  C   UNL     1      32.915 -14.559 -21.970  0.00  0.00    +0.022 C 
ATOM      6  C   UNL     1      34.561 -13.865 -24.286  0.00  0.00    +0.094 C 
ATOM      7  C   UNL     1      34.174 -15.339 -22.339  0.00  0.00    +0.094 C 
ATOM      8  C   UNL     1      34.656 -16.304 -24.627  0.00  0.00    +0.303 C 
ENDROOT
BRANCH   8  11
ATOM      9  O   UNL     1      34.245 -18.572 -24.748  0.00  0.00    -0.265 OA
ATOM     10  N   UNL     1      34.908 -17.645 -22.674  0.00  0.00    -0.277 N 
ATOM     11  C   UNL     1      34.578 -17.651 -24.014  0.00  0.00    +0.303 C 
ATOM     12  H   UNL     1      35.150 -16.772 -22.287  0.00  0.00    +0.155 HD
BRANCH  10  16
ATOM     13  O   UNL     1      37.122 -20.550 -19.448  0.00  0.00    -0.407 OA
ATOM     14  O   UNL     1      37.188 -22.354 -18.003  0.00  0.00    -0.223 OA
ATOM     15  N   UNL     1      35.255 -21.870 -19.210  0.00  0.00    -0.287 N 
ATOM     16  C   UNL     1      34.936 -18.752 -21.794  0.00  0.00    +0.054 C 
ATOM     17  C   UNL     1      36.101 -19.019 -21.087  0.00  0.00    +0.054 C 
ATOM     18  C   UNL     1      33.785 -19.542 -21.666  0.00  0.00    +0.016 C 
ATOM     19  C   UNL     1      36.075 -20.108 -20.243  0.00  0.00    +0.167 A 
ATOM     20  C   UNL     1      34.947 -20.888 -20.113  0.00  0.00    +0.096 A 
ATOM     21  C   UNL     1      33.782 -20.641 -20.804  0.00  0.00    +0.022 C 
ATOM     22  C   UNL     1      36.565 -21.672 -18.806  0.00  0.00    +0.419 A 
ATOM     23  H   UNL     1      34.654 -22.588 -18.903  0.00  0.00    +0.172 HD
ENDBRANCH  10  16
ENDBRANCH   8  11
BRANCH   3  24
ATOM     24  C   UNL     1      31.706 -12.351 -22.140  0.00  0.00    +0.026 C 
BRANCH  24  26
ATOM     25  F   UNL     1      32.731  -7.303 -19.892  0.00  0.00    -0.204 F 
ATOM     26  C   UNL     1      31.981 -11.001 -21.538  0.00  0.00    -0.022 C 
ATOM     27  C   UNL     1      31.878 -10.830 -20.164  0.00  0.00    -0.002 C 
ATOM     28  C   UNL     1      32.333  -9.942 -22.365  0.00  0.00    -0.002 C 
ATOM     29  C   UNL     1      32.133  -9.576 -19.607  0.00  0.00    +0.029 C 
ATOM     30  C   UNL     1      32.588  -8.689 -21.808  0.00  0.00    +0.029 C 
ATOM     31  C   UNL     1      32.488  -8.507 -20.428  0.00  0.00    +0.140 C 
ENDBRANCH  24  26
ENDBRANCH   3  24
TORSDOF 4
ENDMDL
MODEL 7
REMARK VINA RESULT:     -12.6      1.692      2.145
REMARK  Name = 10200813
REMARK  4 active torsions:
REMARK  status: ('A' for Active; 'I' for Inactive)
REMARK    1  A    between atoms: C_3  and  C_24
REMARK    2  A    between atoms: C_8  and  C_11
REMARK    3  A    between atoms: N_10  and  C_16
REMARK    4  A    between atoms: C_24  and  C_26
REMARK                            x       y       z     vdW  Elec       q    Type
REMARK                         _______ _______ _______ _____ _____    ______ ____
ROOT
ATOM      1  O   UNL     1      34.905 -18.865 -24.951  0.00  0.00    -0.265 OA
ATOM      2  N   UNL     1      34.982 -16.830 -23.778  0.00  0.00    -0.272 N 
ATOM      3  C   UNL     1      33.655 -14.298 -23.309  0.00  0.00    +0.008 C 
ATOM      4  C   UNL     1      33.415 -15.112 -24.590  0.00  0.00    +0.022 C 
ATOM      5  C   UNL     1      34.047 -15.231 -22.153  0.00  0.00    +0.022 C 
ATOM      6  C   UNL     1      34.621 -15.991 -24.919  0.00  0.00    +0.094 C 
ATOM      7  C   UNL     1      35.239 -16.109 -22.528  0.00  0.00    +0.094 C 
ATOM      8  C   UNL     1      35.103 -18.202 -23.941  0.00  0.00    +0.303 C 
ENDROOT
BRANCH   8  11
ATOM      9  O   UNL     1      36.717 -18.961 -22.478  0.00  0.00    -0.265 OA
ATOM     10  N   UNL     1      34.464 -19.584 -22.109  0.00  0.00    -0.277 N 
ATOM     11  C   UNL     1      35.523 -18.969 -22.746  0.00  0.00    +0.303 C 
ATOM     12  H   UNL     1      33.574 -19.448 -22.509  0.00  0.00    +0.155 HD
BRANCH  10  16
ATOM     13  O   UNL     1      36.843 -21.745 -18.446  0.00  0.00    -0.407 OA
ATOM     14  O   UNL     1      36.948 -23.053 -16.542  0.00  0.00    -0.223 OA
ATOM     15  N   UNL     1      34.909 -22.655 -17.599  0.00  0.00    -0.287 N 
ATOM     16  C   UNL     1      34.514 -20.387 -20.946  0.00  0.00    +0.054 C 
ATOM     17  C   UNL     1      35.743 -20.610 -20.335  0.00  0.00    +0.054 C 
ATOM     18  C   UNL     1      33.323 -20.931 -20.448  0.00  0.00    +0.016 C 
ATOM     19  C   UNL     1      35.736 -21.398 -19.205  0.00  0.00    +0.167 A 
ATOM     20  C   UNL     1      34.567 -21.936 -18.712  0.00  0.00    +0.096 A 
ATOM     21  C   UNL     1      33.340 -21.728 -19.301  0.00  0.00    +0.022 C 
ATOM     22  C   UNL     1      36.280 -22.543 -17.433  0.00  0.00    +0.419 A 
ATOM     23  H   UNL     1      34.293 -23.160 -17.019  0.00  0.00    +0.172 HD
ENDBRANCH  10  16
ENDBRANCH   8  11
BRANCH   3  24
ATOM     24  C   UNL     1      32.419 -13.476 -22.949  0.00  0.00    +0.026 C 
BRANCH  24  26
ATOM     25  F   UNL     1      33.466  -7.959 -23.169  0.00  0.00    -0.204 F 
ATOM     26  C   UNL     1      32.699 -12.000 -23.008  0.00  0.00    -0.022 C 
ATOM     27  C   UNL     1      31.885 -11.121 -22.307  0.00  0.00    -0.002 C 
ATOM     28  C   UNL     1      33.768 -11.536 -23.763  0.00  0.00    -0.002 C 
ATOM     29  C   UNL     1      32.146  -9.751 -22.361  0.00  0.00    +0.029 C 
ATOM     30  C   UNL     1      34.029 -10.166 -23.817  0.00  0.00    +0.029 C 
ATOM     31  C   UNL     1      33.217  -9.274 -23.116  0.00  0.00    +0.140 C 
ENDBRANCH  24  26
ENDBRANCH   3  24
TORSDOF 4
ENDMDL
MODEL 8
REMARK VINA RESULT:     -12.5      4.812      9.982
REMARK  Name = 10200813
REMARK  4 active torsions:
REMARK  status: ('A' for Active; 'I' for Inactive)
REMARK    1  A    between atoms: C_3  and  C_24
REMARK    2  A    between atoms: C_8  and  C_11
REMARK    3  A    between atoms: N_10  and  C_16
REMARK    4  A    between atoms: C_24  and  C_26
REMARK                            x       y       z     vdW  Elec       q    Type
REMARK                         _______ _______ _______ _____ _____    ______ ____
ROOT
ATOM      1  O   UNL     1      38.080 -19.040 -19.175  0.00  0.00    -0.265 OA
ATOM      2  N   UNL     1      36.511 -20.668 -19.816  0.00  0.00    -0.272 N 
ATOM      3  C   UNL     1      34.411 -22.443 -18.903  0.00  0.00    +0.008 C 
ATOM      4  C   UNL     1      35.487 -21.904 -17.948  0.00  0.00    +0.022 C 
ATOM      5  C   UNL     1      34.190 -21.460 -20.063  0.00  0.00    +0.022 C 
ATOM      6  C   UNL     1      36.775 -21.572 -18.699  0.00  0.00    +0.094 C 
ATOM      7  C   UNL     1      35.502 -21.134 -20.773  0.00  0.00    +0.094 C 
ATOM      8  C   UNL     1      37.229 -19.487 -19.933  0.00  0.00    +0.303 C 
ENDROOT
BRANCH   8  11
ATOM      9  O   UNL     1      37.722 -18.728 -22.056  0.00  0.00    -0.265 OA
ATOM     10  N   UNL     1      35.777 -17.915 -20.980  0.00  0.00    -0.277 N 
ATOM     11  C   UNL     1      36.933 -18.656 -21.123  0.00  0.00    +0.303 C 
ATOM     12  H   UNL     1      35.293 -18.019 -20.128  0.00  0.00    +0.155 HD
BRANCH  10  16
ATOM     13  O   UNL     1      34.428 -16.675 -25.496  0.00  0.00    -0.407 OA
ATOM     14  O   UNL     1      33.503 -15.233 -27.049  0.00  0.00    -0.223 OA
ATOM     15  N   UNL     1      33.625 -14.636 -24.800  0.00  0.00    -0.287 N 
ATOM     16  C   UNL     1      35.210 -17.024 -21.920  0.00  0.00    +0.054 C 
ATOM     17  C   UNL     1      35.149 -17.404 -23.255  0.00  0.00    +0.054 C 
ATOM     18  C   UNL     1      34.727 -15.787 -21.473  0.00  0.00    +0.016 C 
ATOM     19  C   UNL     1      34.587 -16.499 -24.130  0.00  0.00    +0.167 A 
ATOM     20  C   UNL     1      34.111 -15.282 -23.695  0.00  0.00    +0.096 A 
ATOM     21  C   UNL     1      34.160 -14.885 -22.377  0.00  0.00    +0.022 C 
ATOM     22  C   UNL     1      33.814 -15.472 -25.889  0.00  0.00    +0.419 A 
ATOM     23  H   UNL     1      33.216 -13.741 -24.819  0.00  0.00    +0.172 HD
ENDBRANCH  10  16
ENDBRANCH   8  11
BRANCH   3  24
ATOM     24  C   UNL     1      33.105 -22.705 -18.157  0.00  0.00    +0.026 C 
BRANCH  24  26
ATOM     25  F   UNL     1      34.042 -24.728 -12.997  0.00  0.00    -0.204 F 
ATOM     26  C   UNL     1      33.355 -23.247 -16.776  0.00  0.00    -0.022 C 
ATOM     27  C   UNL     1      32.400 -23.064 -15.786  0.00  0.00    -0.002 C 
ATOM     28  C   UNL     1      34.540 -23.922 -16.511  0.00  0.00    -0.002 C 
ATOM     29  C   UNL     1      32.633 -23.567 -14.505  0.00  0.00    +0.029 C 
ATOM     30  C   UNL     1      34.772 -24.424 -15.230  0.00  0.00    +0.029 C 
ATOM     31  C   UNL     1      33.819 -24.247 -14.228  0.00  0.00    +0.140 C 
ENDBRANCH  24  26
ENDBRANCH   3  24
TORSDOF 4
ENDMDL
MODEL 9
REMARK VINA RESULT:     -12.4      3.926      5.960
REMARK  Name = 10200813
REMARK  4 active torsions:
REMARK  status: ('A' for Active; 'I' for Inactive)
REMARK    1  A    between atoms: C_3  and  C_24
REMARK    2  A    between atoms: C_8  and  C_11
REMARK    3  A    between atoms: N_10  and  C_16
REMARK    4  A    between atoms: C_24  and  C_26
REMARK                            x       y       z     vdW  Elec       q    Type
REMARK                         _______ _______ _______ _____ _____    ______ ____
ROOT
ATOM      1  O   UNL     1      37.163 -22.026 -19.299  0.00  0.00    -0.265 OA
ATOM      2  N   UNL     1      35.703 -20.453 -20.259  0.00  0.00    -0.272 N 
ATOM      3  C   UNL     1      35.195 -18.767 -22.559  0.00  0.00    +0.008 C 
ATOM      4  C   UNL     1      36.606 -19.272 -22.222  0.00  0.00    +0.022 C 
ATOM      5  C   UNL     1      34.139 -19.749 -22.028  0.00  0.00    +0.022 C 
ATOM      6  C   UNL     1      36.751 -19.549 -20.727  0.00  0.00    +0.094 C 
ATOM      7  C   UNL     1      34.331 -20.018 -20.537  0.00  0.00    +0.094 C 
ATOM      8  C   UNL     1      36.044 -21.605 -19.565  0.00  0.00    +0.303 C 
ENDROOT
BRANCH   8  11
ATOM      9  O   UNL     1      34.374 -23.160 -19.909  0.00  0.00    -0.265 OA
ATOM     10  N   UNL     1      34.660 -22.258 -17.740  0.00  0.00    -0.277 N 
ATOM     11  C   UNL     1      34.918 -22.437 -19.084  0.00  0.00    +0.303 C 
ATOM     12  H   UNL     1      35.236 -21.615 -17.266  0.00  0.00    +0.155 HD
BRANCH  10  16
ATOM     13  O   UNL     1      30.021 -23.359 -16.735  0.00  0.00    -0.407 OA
ATOM     14  O   UNL     1      28.369 -24.393 -15.489  0.00  0.00    -0.223 OA
ATOM     15  N   UNL     1      30.615 -24.623 -14.910  0.00  0.00    -0.287 N 
ATOM     16  C   UNL     1      33.660 -22.893 -16.968  0.00  0.00    +0.054 C 
ATOM     17  C   UNL     1      32.329 -22.739 -17.334  0.00  0.00    +0.054 C 
ATOM     18  C   UNL     1      34.046 -23.659 -15.859  0.00  0.00    +0.016 C 
ATOM     19  C   UNL     1      31.394 -23.380 -16.550  0.00  0.00    +0.167 A 
ATOM     20  C   UNL     1      31.769 -24.133 -15.459  0.00  0.00    +0.096 A 
ATOM     21  C   UNL     1      33.082 -24.300 -15.078  0.00  0.00    +0.022 C 
ATOM     22  C   UNL     1      29.557 -24.160 -15.675  0.00  0.00    +0.419 A 
ATOM     23  H   UNL     1      30.547 -25.201 -14.114  0.00  0.00    +0.172 HD
ENDBRANCH  10  16
ENDBRANCH   8  11
BRANCH   3  24
ATOM     24  C   UNL     1      35.037 -18.560 -24.064  0.00  0.00    +0.026 C 
BRANCH  24  26
ATOM     25  F   UNL     1      33.396 -13.323 -25.274  0.00  0.00    -0.204 F 
ATOM     26  C   UNL     1      34.599 -17.159 -24.388  0.00  0.00    -0.022 C 
ATOM     27  C   UNL     1      34.915 -16.124 -23.518  0.00  0.00    -0.002 C 
ATOM     28  C   UNL     1      33.882 -16.918 -25.552  0.00  0.00    -0.002 C 
ATOM     29  C   UNL     1      34.508 -14.824 -23.819  0.00  0.00    +0.029 C 
ATOM     30  C   UNL     1      33.475 -15.618 -25.853  0.00  0.00    +0.029 C 
ATOM     31  C   UNL     1      33.788 -14.572 -24.986  0.00  0.00    +0.140 C 
ENDBRANCH  24  26
ENDBRANCH   3  24
TORSDOF 4
ENDMDL
