MODEL 1
REMARK VINA RESULT:     -13.4      0.000      0.000
REMARK  Name = 23729147
REMARK  5 active torsions:
REMARK  status: ('A' for Active; 'I' for Inactive)
REMARK    1  A    between atoms: O_1  and  C_6
REMARK    2  A    between atoms: O_1  and  C_18
REMARK    3  A    between atoms: C_18  and  C_20
REMARK    4  A    between atoms: N_19  and  C_26
REMARK    5  A    between atoms: C_26  and  C_28
REMARK                            x       y       z     vdW  Elec       q    Type
REMARK                         _______ _______ _______ _____ _____    ______ ____
ROOT
ATOM      1  O   UNL     1      35.310 -18.013 -22.660  0.00  0.00    -0.479 OA
ENDROOT
BRANCH   1   6
ATOM      2  N   UNL     1      33.644 -13.950 -24.711  0.00  0.00    -0.332 NA
ATOM      3  N   UNL     1      34.068 -15.855 -26.125  0.00  0.00    -0.317 NA
ATOM      4  N   UNL     1      34.871 -17.862 -25.250  0.00  0.00    -0.335 N 
ATOM      5  N   UNL     1      33.262 -13.846 -27.022  0.00  0.00    -0.283 N 
ATOM      6  C   UNL     1      34.880 -16.709 -22.612  0.00  0.00    +0.130 C 
ATOM      7  C   UNL     1      34.469 -15.985 -23.744  0.00  0.00    +0.177 C 
ATOM      8  C   UNL     1      34.866 -16.106 -21.358  0.00  0.00    +0.033 C 
ATOM      9  C   UNL     1      34.040 -14.652 -23.634  0.00  0.00    +0.137 C 
ATOM     10  C   UNL     1      34.458 -16.528 -25.026  0.00  0.00    +0.181 C 
ATOM     11  C   UNL     1      34.445 -14.787 -21.236  0.00  0.00    +0.005 C 
ATOM     12  C   UNL     1      34.036 -14.074 -22.367  0.00  0.00    +0.030 C 
ATOM     13  C   UNL     1      33.679 -14.590 -25.897  0.00  0.00    +0.197 C 
ATOM     14  H   UNL     1      34.858 -18.236 -26.161  0.00  0.00    +0.144 HD
ATOM     15  H   UNL     1      35.169 -18.419 -24.495  0.00  0.00    +0.144 HD
ATOM     16  H   UNL     1      32.966 -12.914 -26.915  0.00  0.00    +0.156 HD
ATOM     17  H   UNL     1      33.265 -14.262 -27.915  0.00  0.00    +0.156 HD
ENDBRANCH   1   6
BRANCH   1  18
ATOM     18  C   UNL     1      35.939 -18.525 -21.500  0.00  0.00    +0.205 C 
BRANCH  18  20
ATOM     19  N   UNL     1      34.261 -21.840 -19.298  0.00  0.00    +0.390 N 
ATOM     20  C   UNL     1      35.364 -19.908 -21.207  0.00  0.00    +0.040 C 
ATOM     21  C   UNL     1      33.934 -19.807 -20.668  0.00  0.00    -0.019 C 
ATOM     22  C   UNL     1      36.241 -20.668 -20.207  0.00  0.00    -0.019 C 
ATOM     23  C   UNL     1      33.387 -21.182 -20.278  0.00  0.00    -0.077 C 
ATOM     24  C   UNL     1      35.618 -22.015 -19.831  0.00  0.00    -0.077 C 
ATOM     25  H   UNL     1      34.321 -21.240 -18.476  0.00  0.00    -0.079 HD
BRANCH  19  26
ATOM     26  C   UNL     1      33.699 -23.130 -18.897  0.00  0.00    -0.048 C 
BRANCH  26  28
ATOM     27  F   UNL     1      35.513 -23.280 -16.724  0.00  0.00    -0.205 F 
ATOM     28  C   UNL     1      33.259 -23.126 -17.457  0.00  0.00    -0.016 C 
ATOM     29  C   UNL     1      34.207 -23.203 -16.435  0.00  0.00    +0.134 C 
ATOM     30  C   UNL     1      31.903 -23.047 -17.146  0.00  0.00    -0.004 C 
ATOM     31  C   UNL     1      33.795 -23.201 -15.102  0.00  0.00    +0.029 C 
ATOM     32  C   UNL     1      31.492 -23.044 -15.813  0.00  0.00    -0.000 C 
ATOM     33  C   UNL     1      32.438 -23.121 -14.791  0.00  0.00    +0.002 C 
ENDBRANCH  26  28
ENDBRANCH  19  26
ENDBRANCH  18  20
ENDBRANCH   1  18
TORSDOF 5
ENDMDL
MODEL 2
REMARK VINA RESULT:     -12.9      3.687     10.227
REMARK  Name = 23729147
REMARK  5 active torsions:
REMARK  status: ('A' for Active; 'I' for Inactive)
REMARK    1  A    between atoms: O_1  and  C_6
REMARK    2  A    between atoms: O_1  and  C_18
REMARK    3  A    between atoms: C_18  and  C_20
REMARK    4  A    between atoms: N_19  and  C_26
REMARK    5  A    between atoms: C_26  and  C_28
REMARK                            x       y       z     vdW  Elec       q    Type
REMARK                         _______ _______ _______ _____ _____    ______ ____
ROOT
ATOM      1  O   UNL     1      35.090 -22.758 -17.503  0.00  0.00    -0.479 OA
ENDROOT
BRANCH   1   6
ATOM      2  N   UNL     1      36.120 -24.130 -12.971  0.00  0.00    -0.332 NA
ATOM      3  N   UNL     1      37.939 -23.469 -14.407  0.00  0.00    -0.317 NA
ATOM      4  N   UNL     1      37.564 -22.790 -16.607  0.00  0.00    -0.335 N 
ATOM      5  N   UNL     1      38.335 -24.148 -12.200  0.00  0.00    -0.283 N 
ATOM      6  C   UNL     1      34.736 -23.203 -16.252  0.00  0.00    +0.130 C 
ATOM      7  C   UNL     1      35.663 -23.442 -15.223  0.00  0.00    +0.177 C 
ATOM      8  C   UNL     1      33.380 -23.417 -16.031  0.00  0.00    +0.033 C 
ATOM      9  C   UNL     1      35.242 -23.898 -13.963  0.00  0.00    +0.137 C 
ATOM     10  C   UNL     1      37.033 -23.246 -15.378  0.00  0.00    +0.181 C 
ATOM     11  C   UNL     1      32.951 -23.870 -14.788  0.00  0.00    +0.005 C 
ATOM     12  C   UNL     1      33.879 -24.104 -13.769  0.00  0.00    +0.030 C 
ATOM     13  C   UNL     1      37.420 -23.903 -13.247  0.00  0.00    +0.197 C 
ATOM     14  H   UNL     1      38.534 -22.655 -16.704  0.00  0.00    +0.144 HD
ATOM     15  H   UNL     1      36.963 -22.604 -17.365  0.00  0.00    +0.144 HD
ATOM     16  H   UNL     1      38.012 -24.468 -11.328  0.00  0.00    +0.156 HD
ATOM     17  H   UNL     1      39.298 -23.999 -12.343  0.00  0.00    +0.156 HD
ENDBRANCH   1   6
BRANCH   1  18
ATOM     18  C   UNL     1      34.054 -22.647 -18.461  0.00  0.00    +0.205 C 
BRANCH  18  20
ATOM     19  N   UNL     1      35.498 -19.415 -20.937  0.00  0.00    +0.390 N 
ATOM     20  C   UNL     1      34.598 -21.906 -19.680  0.00  0.00    +0.040 C 
ATOM     21  C   UNL     1      35.964 -21.279 -19.379  0.00  0.00    -0.019 C 
ATOM     22  C   UNL     1      33.622 -20.821 -20.145  0.00  0.00    -0.019 C 
ATOM     23  C   UNL     1      36.469 -20.451 -20.562  0.00  0.00    -0.077 C 
ATOM     24  C   UNL     1      34.205 -20.008 -21.304  0.00  0.00    -0.077 C 
ATOM     25  H   UNL     1      35.349 -18.815 -20.126  0.00  0.00    -0.079 HD
BRANCH  19  26
ATOM     26  C   UNL     1      36.017 -18.600 -22.035  0.00  0.00    -0.048 C 
BRANCH  26  28
ATOM     27  F   UNL     1      35.428 -17.270 -24.468  0.00  0.00    -0.205 F 
ATOM     28  C   UNL     1      35.352 -17.250 -22.095  0.00  0.00    -0.016 C 
ATOM     29  C   UNL     1      35.092 -16.652 -23.328  0.00  0.00    +0.134 C 
ATOM     30  C   UNL     1      34.998 -16.599 -20.915  0.00  0.00    -0.004 C 
ATOM     31  C   UNL     1      34.476 -15.400 -23.379  0.00  0.00    +0.029 C 
ATOM     32  C   UNL     1      34.383 -15.348 -20.966  0.00  0.00    -0.000 C 
ATOM     33  C   UNL     1      34.123 -14.748 -22.198  0.00  0.00    +0.002 C 
ENDBRANCH  26  28
ENDBRANCH  19  26
ENDBRANCH  18  20
ENDBRANCH   1  18
TORSDOF 5
ENDMDL
MODEL 3
REMARK VINA RESULT:     -12.8      1.251      2.190
REMARK  Name = 23729147
REMARK  5 active torsions:
REMARK  status: ('A' for Active; 'I' for Inactive)
REMARK    1  A    between atoms: O_1  and  C_6
REMARK    2  A    between atoms: O_1  and  C_18
REMARK    3  A    between atoms: C_18  and  C_20
REMARK    4  A    between atoms: N_19  and  C_26
REMARK    5  A    between atoms: C_26  and  C_28
REMARK                            x       y       z     vdW  Elec       q    Type
REMARK                         _______ _______ _______ _____ _____    ______ ____
ROOT
ATOM      1  O   UNL     1      34.987 -17.944 -21.536  0.00  0.00    -0.479 OA
ENDROOT
BRANCH   1   6
ATOM      2  N   UNL     1      34.316 -14.359 -24.727  0.00  0.00    -0.332 NA
ATOM      3  N   UNL     1      34.404 -13.803 -22.383  0.00  0.00    -0.317 NA
ATOM      4  N   UNL     1      34.722 -15.444 -20.757  0.00  0.00    -0.335 N 
ATOM      5  N   UNL     1      34.083 -12.140 -24.003  0.00  0.00    -0.283 N 
ATOM      6  C   UNL     1      34.840 -17.457 -22.812  0.00  0.00    +0.130 C 
ATOM      7  C   UNL     1      34.647 -16.097 -23.107  0.00  0.00    +0.177 C 
ATOM      8  C   UNL     1      34.891 -18.392 -23.842  0.00  0.00    +0.033 C 
ATOM      9  C   UNL     1      34.501 -15.658 -24.433  0.00  0.00    +0.137 C 
ATOM     10  C   UNL     1      34.588 -15.111 -22.125  0.00  0.00    +0.181 C 
ATOM     11  C   UNL     1      34.747 -17.970 -25.158  0.00  0.00    +0.005 C 
ATOM     12  C   UNL     1      34.556 -16.615 -25.443  0.00  0.00    +0.030 C 
ATOM     13  C   UNL     1      34.278 -13.502 -23.686  0.00  0.00    +0.197 C 
ATOM     14  H   UNL     1      34.679 -14.739 -20.072  0.00  0.00    +0.144 HD
ATOM     15  H   UNL     1      34.860 -16.382 -20.489  0.00  0.00    +0.144 HD
ATOM     16  H   UNL     1      33.984 -11.862 -24.941  0.00  0.00    +0.156 HD
ATOM     17  H   UNL     1      34.047 -11.468 -23.283  0.00  0.00    +0.156 HD
ENDBRANCH   1   6
BRANCH   1  18
ATOM     18  C   UNL     1      36.046 -18.857 -21.314  0.00  0.00    +0.205 C 
BRANCH  18  20
ATOM     19  N   UNL     1      34.161 -22.018 -19.053  0.00  0.00    +0.390 N 
ATOM     20  C   UNL     1      35.448 -20.220 -20.979  0.00  0.00    +0.040 C 
ATOM     21  C   UNL     1      33.969 -20.096 -20.598  0.00  0.00    -0.019 C 
ATOM     22  C   UNL     1      36.220 -20.895 -19.841  0.00  0.00    -0.019 C 
ATOM     23  C   UNL     1      33.389 -21.443 -20.164  0.00  0.00    -0.077 C 
ATOM     24  C   UNL     1      35.566 -22.217 -19.431  0.00  0.00    -0.077 C 
ATOM     25  H   UNL     1      34.135 -21.358 -18.277  0.00  0.00    -0.079 HD
BRANCH  19  26
ATOM     26  C   UNL     1      33.565 -23.281 -18.617  0.00  0.00    -0.048 C 
BRANCH  26  28
ATOM     27  F   UNL     1      35.257 -23.577 -16.362  0.00  0.00    -0.205 F 
ATOM     28  C   UNL     1      33.066 -23.204 -17.198  0.00  0.00    -0.016 C 
ATOM     29  C   UNL     1      33.955 -23.359 -16.134  0.00  0.00    +0.134 C 
ATOM     30  C   UNL     1      31.713 -22.978 -16.950  0.00  0.00    -0.004 C 
ATOM     31  C   UNL     1      33.488 -23.288 -14.820  0.00  0.00    +0.029 C 
ATOM     32  C   UNL     1      31.247 -22.906 -15.637  0.00  0.00    -0.000 C 
ATOM     33  C   UNL     1      32.135 -23.062 -14.572  0.00  0.00    +0.002 C 
ENDBRANCH  26  28
ENDBRANCH  19  26
ENDBRANCH  18  20
ENDBRANCH   1  18
TORSDOF 5
ENDMDL
MODEL 4
REMARK VINA RESULT:     -12.7      3.650     10.321
REMARK  Name = 23729147
REMARK  5 active torsions:
REMARK  status: ('A' for Active; 'I' for Inactive)
REMARK    1  A    between atoms: O_1  and  C_6
REMARK    2  A    between atoms: O_1  and  C_18
REMARK    3  A    between atoms: C_18  and  C_20
REMARK    4  A    between atoms: N_19  and  C_26
REMARK    5  A    between atoms: C_26  and  C_28
REMARK                            x       y       z     vdW  Elec       q    Type
REMARK                         _______ _______ _______ _____ _____    ______ ____
ROOT
ATOM      1  O   UNL     1      34.338 -23.408 -17.614  0.00  0.00    -0.479 OA
ENDROOT
BRANCH   1   6
ATOM      2  N   UNL     1      33.764 -24.168 -12.862  0.00  0.00    -0.332 NA
ATOM      3  N   UNL     1      35.991 -24.280 -13.778  0.00  0.00    -0.317 NA
ATOM      4  N   UNL     1      36.388 -23.932 -16.050  0.00  0.00    -0.335 N 
ATOM      5  N   UNL     1      35.611 -24.633 -11.493  0.00  0.00    -0.283 N 
ATOM      6  C   UNL     1      33.572 -23.511 -16.478  0.00  0.00    +0.130 C 
ATOM      7  C   UNL     1      34.102 -23.799 -15.208  0.00  0.00    +0.177 C 
ATOM      8  C   UNL     1      32.204 -23.316 -16.633  0.00  0.00    +0.033 C 
ATOM      9  C   UNL     1      33.268 -23.894 -14.082  0.00  0.00    +0.137 C 
ATOM     10  C   UNL     1      35.461 -24.004 -14.984  0.00  0.00    +0.181 C 
ATOM     11  C   UNL     1      31.368 -23.408 -15.526  0.00  0.00    +0.005 C 
ATOM     12  C   UNL     1      31.903 -23.694 -14.266  0.00  0.00    +0.030 C 
ATOM     13  C   UNL     1      35.098 -24.346 -12.777  0.00  0.00    +0.197 C 
ATOM     14  H   UNL     1      37.347 -24.079 -15.879  0.00  0.00    +0.144 HD
ATOM     15  H   UNL     1      36.076 -23.733 -16.962  0.00  0.00    +0.144 HD
ATOM     16  H   UNL     1      35.003 -24.694 -10.722  0.00  0.00    +0.156 HD
ATOM     17  H   UNL     1      36.578 -24.772 -11.369  0.00  0.00    +0.156 HD
ENDBRANCH   1   6
BRANCH   1  18
ATOM     18  C   UNL     1      33.694 -22.936 -18.782  0.00  0.00    +0.205 C 
BRANCH  18  20
ATOM     19  N   UNL     1      35.605 -19.954 -21.255  0.00  0.00    +0.390 N 
ATOM     20  C   UNL     1      34.345 -21.619 -19.197  0.00  0.00    +0.040 C 
ATOM     21  C   UNL     1      33.541 -20.932 -20.306  0.00  0.00    -0.019 C 
ATOM     22  C   UNL     1      35.786 -21.842 -19.666  0.00  0.00    -0.019 C 
ATOM     23  C   UNL     1      34.240 -19.663 -20.797  0.00  0.00    -0.077 C 
ATOM     24  C   UNL     1      36.412 -20.542 -20.178  0.00  0.00    -0.077 C 
ATOM     25  H   UNL     1      35.545 -20.637 -22.011  0.00  0.00    -0.079 HD
BRANCH  19  26
ATOM     26  C   UNL     1      36.242 -18.741 -21.768  0.00  0.00    -0.048 C 
BRANCH  26  28
ATOM     27  F   UNL     1      35.429 -16.034 -21.978  0.00  0.00    -0.205 F 
ATOM     28  C   UNL     1      35.515 -18.191 -22.967  0.00  0.00    -0.016 C 
ATOM     29  C   UNL     1      35.143 -16.847 -23.004  0.00  0.00    +0.134 C 
ATOM     30  C   UNL     1      35.213 -19.029 -24.040  0.00  0.00    -0.004 C 
ATOM     31  C   UNL     1      34.468 -16.341 -24.116  0.00  0.00    +0.029 C 
ATOM     32  C   UNL     1      34.539 -18.523 -25.151  0.00  0.00    -0.000 C 
ATOM     33  C   UNL     1      34.166 -17.179 -25.189  0.00  0.00    +0.002 C 
ENDBRANCH  26  28
ENDBRANCH  19  26
ENDBRANCH  18  20
ENDBRANCH   1  18
TORSDOF 5
ENDMDL
MODEL 5
REMARK VINA RESULT:     -12.6      5.898     11.558
REMARK  Name = 23729147
REMARK  5 active torsions:
REMARK  status: ('A' for Active; 'I' for Inactive)
REMARK    1  A    between atoms: O_1  and  C_6
REMARK    2  A    between atoms: O_1  and  C_18
REMARK    3  A    between atoms: C_18  and  C_20
REMARK    4  A    between atoms: N_19  and  C_26
REMARK    5  A    between atoms: C_26  and  C_28
REMARK                            x       y       z     vdW  Elec       q    Type
REMARK                         _______ _______ _______ _____ _____    ______ ____
ROOT
ATOM      1  O   UNL     1      33.686 -13.726 -22.685  0.00  0.00    -0.479 OA
ENDROOT
BRANCH   1   6
ATOM      2  N   UNL     1      35.426 -18.222 -23.183  0.00  0.00    -0.332 NA
ATOM      3  N   UNL     1      35.405 -17.240 -20.982  0.00  0.00    -0.317 NA
ATOM      4  N   UNL     1      34.592 -15.084 -20.621  0.00  0.00    -0.335 N 
ATOM      5  N   UNL     1      36.227 -19.408 -21.325  0.00  0.00    -0.283 N 
ATOM      6  C   UNL     1      34.007 -14.836 -23.429  0.00  0.00    +0.130 C 
ATOM      7  C   UNL     1      34.575 -15.999 -22.883  0.00  0.00    +0.177 C 
ATOM      8  C   UNL     1      33.743 -14.764 -24.794  0.00  0.00    +0.033 C 
ATOM      9  C   UNL     1      34.883 -17.103 -23.695  0.00  0.00    +0.137 C 
ATOM     10  C   UNL     1      34.863 -16.136 -21.527  0.00  0.00    +0.181 C 
ATOM     11  C   UNL     1      34.045 -15.850 -25.608  0.00  0.00    +0.005 C 
ATOM     12  C   UNL     1      34.608 -17.004 -25.056  0.00  0.00    +0.030 C 
ATOM     13  C   UNL     1      35.657 -18.230 -21.854  0.00  0.00    +0.197 C 
ATOM     14  H   UNL     1      34.800 -15.193 -19.665  0.00  0.00    +0.144 HD
ATOM     15  H   UNL     1      34.194 -14.244 -20.946  0.00  0.00    +0.144 HD
ATOM     16  H   UNL     1      36.433 -20.165 -21.918  0.00  0.00    +0.156 HD
ATOM     17  H   UNL     1      36.417 -19.472 -20.360  0.00  0.00    +0.156 HD
ENDBRANCH   1   6
BRANCH   1  18
ATOM     18  C   UNL     1      32.329 -13.575 -22.311  0.00  0.00    +0.205 C 
BRANCH  18  20
ATOM     19  N   UNL     1      32.658  -9.285 -21.930  0.00  0.00    +0.390 N 
ATOM     20  C   UNL     1      31.965 -12.095 -22.396  0.00  0.00    +0.040 C 
ATOM     21  C   UNL     1      32.955 -11.333 -23.283  0.00  0.00    -0.019 C 
ATOM     22  C   UNL     1      31.923 -11.458 -21.003  0.00  0.00    -0.019 C 
ATOM     23  C   UNL     1      32.656  -9.833 -23.293  0.00  0.00    -0.077 C 
ATOM     24  C   UNL     1      31.658  -9.953 -21.087  0.00  0.00    -0.077 C 
ATOM     25  H   UNL     1      33.577  -9.457 -21.523  0.00  0.00    -0.079 HD
BRANCH  19  26
ATOM     26  C   UNL     1      32.421  -7.841 -21.959  0.00  0.00    -0.048 C 
BRANCH  26  28
ATOM     27  F   UNL     1      31.161  -6.134 -23.839  0.00  0.00    -0.205 F 
ATOM     28  C   UNL     1      33.160  -7.175 -23.090  0.00  0.00    -0.016 C 
ATOM     29  C   UNL     1      32.476  -6.346 -23.980  0.00  0.00    +0.134 C 
ATOM     30  C   UNL     1      34.528  -7.390 -23.247  0.00  0.00    -0.004 C 
ATOM     31  C   UNL     1      33.164  -5.732 -25.028  0.00  0.00    +0.029 C 
ATOM     32  C   UNL     1      35.215  -6.776 -24.294  0.00  0.00    -0.000 C 
ATOM     33  C   UNL     1      34.533  -5.947 -25.185  0.00  0.00    +0.002 C 
ENDBRANCH  26  28
ENDBRANCH  19  26
ENDBRANCH  18  20
ENDBRANCH   1  18
TORSDOF 5
ENDMDL
MODEL 6
REMARK VINA RESULT:     -12.4      3.430     10.108
REMARK  Name = 23729147
REMARK  5 active torsions:
REMARK  status: ('A' for Active; 'I' for Inactive)
REMARK    1  A    between atoms: O_1  and  C_6
REMARK    2  A    between atoms: O_1  and  C_18
REMARK    3  A    between atoms: C_18  and  C_20
REMARK    4  A    between atoms: N_19  and  C_26
REMARK    5  A    between atoms: C_26  and  C_28
REMARK                            x       y       z     vdW  Elec       q    Type
REMARK                         _______ _______ _______ _____ _____    ______ ____
ROOT
ATOM      1  O   UNL     1      33.067 -22.502 -18.050  0.00  0.00    -0.479 OA
ENDROOT
BRANCH   1   6
ATOM      2  N   UNL     1      32.543 -24.565 -13.696  0.00  0.00    -0.332 NA
ATOM      3  N   UNL     1      30.559 -23.930 -14.908  0.00  0.00    -0.317 NA
ATOM      4  N   UNL     1      30.688 -22.930 -17.011  0.00  0.00    -0.335 N 
ATOM      5  N   UNL     1      30.410 -24.934 -12.796  0.00  0.00    -0.283 N 
ATOM      6  C   UNL     1      33.562 -23.066 -16.899  0.00  0.00    +0.130 C 
ATOM      7  C   UNL     1      32.748 -23.540 -15.856  0.00  0.00    +0.177 C 
ATOM      8  C   UNL     1      34.946 -23.155 -16.798  0.00  0.00    +0.033 C 
ATOM      9  C   UNL     1      33.312 -24.107 -14.701  0.00  0.00    +0.137 C 
ATOM     10  C   UNL     1      31.358 -23.483 -15.895  0.00  0.00    +0.181 C 
ATOM     11  C   UNL     1      35.516 -23.714 -15.660  0.00  0.00    +0.005 C 
ATOM     12  C   UNL     1      34.700 -24.184 -14.626  0.00  0.00    +0.030 C 
ATOM     13  C   UNL     1      31.209 -24.451 -13.855  0.00  0.00    +0.197 C 
ATOM     14  H   UNL     1      29.704 -22.895 -17.027  0.00  0.00    +0.144 HD
ATOM     15  H   UNL     1      31.205 -22.582 -17.773  0.00  0.00    +0.144 HD
ATOM     16  H   UNL     1      30.832 -25.326 -11.999  0.00  0.00    +0.156 HD
ATOM     17  H   UNL     1      29.428 -24.879 -12.856  0.00  0.00    +0.156 HD
ENDBRANCH   1   6
BRANCH   1  18
ATOM     18  C   UNL     1      33.830 -22.675 -19.230  0.00  0.00    +0.205 C 
BRANCH  18  20
ATOM     19  N   UNL     1      35.701 -19.565 -21.573  0.00  0.00    +0.390 N 
ATOM     20  C   UNL     1      34.486 -21.343 -19.583  0.00  0.00    +0.040 C 
ATOM     21  C   UNL     1      33.655 -20.575 -20.616  0.00  0.00    -0.019 C 
ATOM     22  C   UNL     1      35.907 -21.553 -20.115  0.00  0.00    -0.019 C 
ATOM     23  C   UNL     1      34.356 -19.286 -21.049  0.00  0.00    -0.077 C 
ATOM     24  C   UNL     1      36.535 -20.231 -20.564  0.00  0.00    -0.077 C 
ATOM     25  H   UNL     1      35.604 -20.196 -22.368  0.00  0.00    -0.079 HD
BRANCH  19  26
ATOM     26  C   UNL     1      36.338 -18.330 -22.029  0.00  0.00    -0.048 C 
BRANCH  26  28
ATOM     27  F   UNL     1      35.374 -19.761 -24.279  0.00  0.00    -0.205 F 
ATOM     28  C   UNL     1      35.565 -17.682 -23.148  0.00  0.00    -0.016 C 
ATOM     29  C   UNL     1      35.121 -18.446 -24.227  0.00  0.00    +0.134 C 
ATOM     30  C   UNL     1      35.297 -16.315 -23.104  0.00  0.00    -0.004 C 
ATOM     31  C   UNL     1      34.407 -17.842 -25.263  0.00  0.00    +0.029 C 
ATOM     32  C   UNL     1      34.583 -15.710 -24.139  0.00  0.00    -0.000 C 
ATOM     33  C   UNL     1      34.138 -16.474 -25.218  0.00  0.00    +0.002 C 
ENDBRANCH  26  28
ENDBRANCH  19  26
ENDBRANCH  18  20
ENDBRANCH   1  18
TORSDOF 5
ENDMDL
MODEL 7
REMARK VINA RESULT:     -12.3      3.412      9.681
REMARK  Name = 23729147
REMARK  5 active torsions:
REMARK  status: ('A' for Active; 'I' for Inactive)
REMARK    1  A    between atoms: O_1  and  C_6
REMARK    2  A    between atoms: O_1  and  C_18
REMARK    3  A    between atoms: C_18  and  C_20
REMARK    4  A    between atoms: N_19  and  C_26
REMARK    5  A    between atoms: C_26  and  C_28
REMARK                            x       y       z     vdW  Elec       q    Type
REMARK                         _______ _______ _______ _____ _____    ______ ____
ROOT
ATOM      1  O   UNL     1      35.326 -22.372 -18.345  0.00  0.00    -0.479 OA
ENDROOT
BRANCH   1   6
ATOM      2  N   UNL     1      32.725 -24.014 -14.600  0.00  0.00    -0.332 NA
ATOM      3  N   UNL     1      31.565 -23.433 -16.631  0.00  0.00    -0.317 NA
ATOM      4  N   UNL     1      32.712 -22.633 -18.498  0.00  0.00    -0.335 N 
ATOM      5  N   UNL     1      30.396 -24.235 -14.766  0.00  0.00    -0.283 N 
ATOM      6  C   UNL     1      35.198 -22.844 -17.061  0.00  0.00    +0.130 C 
ATOM      7  C   UNL     1      33.967 -23.197 -16.483  0.00  0.00    +0.177 C 
ATOM      8  C   UNL     1      36.373 -22.965 -16.325  0.00  0.00    +0.033 C 
ATOM      9  C   UNL     1      33.898 -23.673 -15.163  0.00  0.00    +0.137 C 
ATOM     10  C   UNL     1      32.756 -23.101 -17.164  0.00  0.00    +0.181 C 
ATOM     11  C   UNL     1      36.317 -23.434 -15.018  0.00  0.00    +0.005 C 
ATOM     12  C   UNL     1      35.088 -23.783 -14.450  0.00  0.00    +0.030 C 
ATOM     13  C   UNL     1      31.622 -23.875 -15.364  0.00  0.00    +0.197 C 
ATOM     14  H   UNL     1      31.850 -22.570 -18.969  0.00  0.00    +0.144 HD
ATOM     15  H   UNL     1      33.543 -22.371 -18.956  0.00  0.00    +0.144 HD
ATOM     16  H   UNL     1      30.378 -24.566 -13.840  0.00  0.00    +0.156 HD
ATOM     17  H   UNL     1      29.557 -24.156 -15.277  0.00  0.00    +0.156 HD
ENDBRANCH   1   6
BRANCH   1  18
ATOM     18  C   UNL     1      36.522 -21.685 -18.660  0.00  0.00    +0.205 C 
BRANCH  18  20
ATOM     19  N   UNL     1      35.614 -18.708 -21.655  0.00  0.00    +0.390 N 
ATOM     20  C   UNL     1      36.359 -21.031 -20.030  0.00  0.00    +0.040 C 
ATOM     21  C   UNL     1      37.258 -19.797 -20.162  0.00  0.00    -0.019 C 
ATOM     22  C   UNL     1      34.900 -20.638 -20.282  0.00  0.00    -0.019 C 
ATOM     23  C   UNL     1      37.026 -19.079 -21.492  0.00  0.00    -0.077 C 
ATOM     24  C   UNL     1      34.746 -19.892 -21.610  0.00  0.00    -0.077 C 
ATOM     25  H   UNL     1      35.357 -18.099 -20.878  0.00  0.00    -0.079 HD
BRANCH  19  26
ATOM     26  C   UNL     1      35.419 -17.978 -22.908  0.00  0.00    -0.048 C 
BRANCH  26  28
ATOM     27  F   UNL     1      35.172 -16.066 -24.987  0.00  0.00    -0.205 F 
ATOM     28  C   UNL     1      35.025 -16.545 -22.665  0.00  0.00    -0.016 C 
ATOM     29  C   UNL     1      34.923 -15.656 -23.736  0.00  0.00    +0.134 C 
ATOM     30  C   UNL     1      34.764 -16.107 -21.368  0.00  0.00    -0.004 C 
ATOM     31  C   UNL     1      34.559 -14.328 -23.507  0.00  0.00    +0.029 C 
ATOM     32  C   UNL     1      34.400 -14.780 -21.139  0.00  0.00    -0.000 C 
ATOM     33  C   UNL     1      34.298 -13.890 -22.208  0.00  0.00    +0.002 C 
ENDBRANCH  26  28
ENDBRANCH  19  26
ENDBRANCH  18  20
ENDBRANCH   1  18
TORSDOF 5
ENDMDL
MODEL 8
REMARK VINA RESULT:     -12.1      6.005     11.781
REMARK  Name = 23729147
REMARK  5 active torsions:
REMARK  status: ('A' for Active; 'I' for Inactive)
REMARK    1  A    between atoms: O_1  and  C_6
REMARK    2  A    between atoms: O_1  and  C_18
REMARK    3  A    between atoms: C_18  and  C_20
REMARK    4  A    between atoms: N_19  and  C_26
REMARK    5  A    between atoms: C_26  and  C_28
REMARK                            x       y       z     vdW  Elec       q    Type
REMARK                         _______ _______ _______ _____ _____    ______ ____
ROOT
ATOM      1  O   UNL     1      33.351 -13.127 -22.564  0.00  0.00    -0.479 OA
ENDROOT
BRANCH   1   6
ATOM      2  N   UNL     1      35.055 -17.490 -23.806  0.00  0.00    -0.332 NA
ATOM      3  N   UNL     1      35.314 -16.769 -21.521  0.00  0.00    -0.317 NA
ATOM      4  N   UNL     1      34.534 -14.690 -20.808  0.00  0.00    -0.335 N 
ATOM      5  N   UNL     1      36.104 -18.861 -22.218  0.00  0.00    -0.283 N 
ATOM      6  C   UNL     1      33.583 -14.135 -23.468  0.00  0.00    +0.130 C 
ATOM      7  C   UNL     1      34.228 -15.339 -23.140  0.00  0.00    +0.177 C 
ATOM      8  C   UNL     1      33.141 -13.914 -24.769  0.00  0.00    +0.033 C 
ATOM      9  C   UNL     1      34.438 -16.334 -24.109  0.00  0.00    +0.137 C 
ATOM     10  C   UNL     1      34.693 -15.623 -21.858  0.00  0.00    +0.181 C 
ATOM     11  C   UNL     1      33.344 -14.891 -25.737  0.00  0.00    +0.005 C 
ATOM     12  C   UNL     1      33.986 -16.086 -25.402  0.00  0.00    +0.030 C 
ATOM     13  C   UNL     1      35.459 -17.645 -22.528  0.00  0.00    +0.197 C 
ATOM     14  H   UNL     1      34.866 -14.902 -19.906  0.00  0.00    +0.144 HD
ATOM     15  H   UNL     1      34.088 -13.828 -20.978  0.00  0.00    +0.144 HD
ATOM     16  H   UNL     1      36.238 -19.540 -22.918  0.00  0.00    +0.156 HD
ATOM     17  H   UNL     1      36.420 -19.031 -21.301  0.00  0.00    +0.156 HD
ENDBRANCH   1   6
BRANCH   1  18
ATOM     18  C   UNL     1      32.004 -12.748 -22.355  0.00  0.00    +0.205 C 
BRANCH  18  20
ATOM     19  N   UNL     1      33.110  -8.591 -21.961  0.00  0.00    +0.390 N 
ATOM     20  C   UNL     1      31.911 -11.226 -22.425  0.00  0.00    +0.040 C 
ATOM     21  C   UNL     1      33.003 -10.648 -23.330  0.00  0.00    -0.019 C 
ATOM     22  C   UNL     1      32.014 -10.604 -21.029  0.00  0.00    -0.019 C 
ATOM     23  C   UNL     1      32.980  -9.118 -23.326  0.00  0.00    -0.077 C 
ATOM     24  C   UNL     1      32.023  -9.075 -21.100  0.00  0.00    -0.077 C 
ATOM     25  H   UNL     1      33.991  -8.930 -21.575  0.00  0.00    -0.079 HD
BRANCH  19  26
ATOM     26  C   UNL     1      33.137  -7.128 -21.978  0.00  0.00    -0.048 C 
BRANCH  26  28
ATOM     27  F   UNL     1      35.713  -7.382 -23.133  0.00  0.00    -0.205 F 
ATOM     28  C   UNL     1      33.484  -6.591 -23.341  0.00  0.00    -0.016 C 
ATOM     29  C   UNL     1      34.773  -6.750 -23.850  0.00  0.00    +0.134 C 
ATOM     30  C   UNL     1      32.514  -5.932 -24.095  0.00  0.00    -0.004 C 
ATOM     31  C   UNL     1      35.091  -6.249 -25.113  0.00  0.00    +0.029 C 
ATOM     32  C   UNL     1      32.831  -5.431 -25.358  0.00  0.00    -0.000 C 
ATOM     33  C   UNL     1      34.121  -5.590 -25.866  0.00  0.00    +0.002 C 
ENDBRANCH  26  28
ENDBRANCH  19  26
ENDBRANCH  18  20
ENDBRANCH   1  18
TORSDOF 5
ENDMDL
MODEL 9
REMARK VINA RESULT:     -12.0      4.576      7.069
REMARK  Name = 23729147
REMARK  5 active torsions:
REMARK  status: ('A' for Active; 'I' for Inactive)
REMARK    1  A    between atoms: O_1  and  C_6
REMARK    2  A    between atoms: O_1  and  C_18
REMARK    3  A    between atoms: C_18  and  C_20
REMARK    4  A    between atoms: N_19  and  C_26
REMARK    5  A    between atoms: C_26  and  C_28
REMARK                            x       y       z     vdW  Elec       q    Type
REMARK                         _______ _______ _______ _____ _____    ______ ____
ROOT
ATOM      1  O   UNL     1      32.601 -11.655 -22.360  0.00  0.00    -0.479 OA
ENDROOT
BRANCH   1   6
ATOM      2  N   UNL     1      31.985  -7.184 -20.594  0.00  0.00    -0.332 NA
ATOM      3  N   UNL     1      32.641  -7.423 -22.901  0.00  0.00    -0.317 NA
ATOM      4  N   UNL     1      32.966  -9.524 -23.860  0.00  0.00    -0.335 N 
ATOM      5  N   UNL     1      32.318  -5.303 -21.955  0.00  0.00    -0.283 N 
ATOM      6  C   UNL     1      32.293 -10.771 -21.354  0.00  0.00    +0.130 C 
ATOM      7  C   UNL     1      32.303  -9.376 -21.517  0.00  0.00    +0.177 C 
ATOM      8  C   UNL     1      31.960 -11.326 -20.122  0.00  0.00    +0.033 C 
ATOM      9  C   UNL     1      31.980  -8.521 -20.449  0.00  0.00    +0.137 C 
ATOM     10  C   UNL     1      32.625  -8.757 -22.722  0.00  0.00    +0.181 C 
ATOM     11  C   UNL     1      31.640 -10.491 -19.058  0.00  0.00    +0.005 C 
ATOM     12  C   UNL     1      31.651  -9.103 -19.229  0.00  0.00    +0.030 C 
ATOM     13  C   UNL     1      32.315  -6.708 -21.812  0.00  0.00    +0.197 C 
ATOM     14  H   UNL     1      33.192  -9.075 -24.706  0.00  0.00    +0.144 HD
ATOM     15  H   UNL     1      32.976 -10.507 -23.807  0.00  0.00    +0.144 HD
ATOM     16  H   UNL     1      32.088  -4.730 -21.190  0.00  0.00    +0.156 HD
ATOM     17  H   UNL     1      32.550  -4.898 -22.823  0.00  0.00    +0.156 HD
ENDBRANCH   1   6
BRANCH   1  18
ATOM     18  C   UNL     1      32.214 -13.003 -22.171  0.00  0.00    +0.205 C 
BRANCH  18  20
ATOM     19  N   UNL     1      34.692 -16.530 -22.452  0.00  0.00    +0.390 N 
ATOM     20  C   UNL     1      33.464 -13.878 -22.226  0.00  0.00    +0.040 C 
ATOM     21  C   UNL     1      33.551 -14.634 -23.555  0.00  0.00    -0.019 C 
ATOM     22  C   UNL     1      33.489 -14.875 -21.062  0.00  0.00    -0.019 C 
ATOM     23  C   UNL     1      34.747 -15.588 -23.578  0.00  0.00    -0.077 C 
ATOM     24  C   UNL     1      34.687 -15.821 -21.166  0.00  0.00    -0.077 C 
ATOM     25  H   UNL     1      33.822 -17.057 -22.524  0.00  0.00    -0.079 HD
BRANCH  19  26
ATOM     26  C   UNL     1      35.813 -17.468 -22.516  0.00  0.00    -0.048 C 
BRANCH  26  28
ATOM     27  F   UNL     1      37.886 -18.888 -21.204  0.00  0.00    -0.205 F 
ATOM     28  C   UNL     1      35.567 -18.694 -21.677  0.00  0.00    -0.016 C 
ATOM     29  C   UNL     1      36.635 -19.345 -21.059  0.00  0.00    +0.134 C 
ATOM     30  C   UNL     1      34.270 -19.178 -21.520  0.00  0.00    -0.004 C 
ATOM     31  C   UNL     1      36.403 -20.482 -20.283  0.00  0.00    +0.029 C 
ATOM     32  C   UNL     1      34.038 -20.313 -20.744  0.00  0.00    -0.000 C 
ATOM     33  C   UNL     1      35.105 -20.966 -20.126  0.00  0.00    +0.002 C 
ENDBRANCH  26  28
ENDBRANCH  19  26
ENDBRANCH  18  20
ENDBRANCH   1  18
TORSDOF 5
ENDMDL
