MODEL 1
REMARK VINA RESULT:     -13.4      0.000      0.000
REMARK  Name = 46911863
REMARK  3 active torsions:
REMARK  status: ('A' for Active; 'I' for Inactive)
REMARK    1  A    between atoms: C_5  and  C_18
REMARK    2  A    between atoms: C_7  and  C_12
REMARK    3  A    between atoms: C_18  and  C_20
REMARK                            x       y       z     vdW  Elec       q    Type
REMARK                         _______ _______ _______ _____ _____    ______ ____
ROOT
ATOM      1  N   UNL     1      34.508 -22.085 -18.590  0.00  0.00    -0.190 N 
ATOM      2  N   UNL     1      35.571 -22.461 -17.838  0.00  0.00    -0.162 NA
ATOM      3  N   UNL     1      33.308 -21.186 -20.190  0.00  0.00    -0.126 NA
ATOM      4  N   UNL     1      32.450 -21.808 -19.306  0.00  0.00    -0.127 NA
ATOM      5  C   UNL     1      34.533 -21.363 -19.747  0.00  0.00    +0.228 A 
ATOM      6  C   UNL     1      33.178 -22.345 -18.349  0.00  0.00    +0.187 A 
ATOM      7  C   UNL     1      35.251 -23.141 -16.774  0.00  0.00    +0.104 C 
ATOM      8  C   UNL     1      32.862 -23.097 -17.201  0.00  0.00    +0.042 C 
ATOM      9  C   UNL     1      33.848 -23.513 -16.397  0.00  0.00    +0.024 C 
ENDROOT
BRANCH   7  12
ATOM     10  N   UNL     1      37.451 -24.709 -14.348  0.00  0.00    -0.208 N 
ATOM     11  N   UNL     1      38.336 -23.800 -14.792  0.00  0.00    -0.176 NA
ATOM     12  C   UNL     1      36.330 -23.606 -15.863  0.00  0.00    +0.056 C 
ATOM     13  C   UNL     1      36.233 -24.635 -14.957  0.00  0.00    +0.087 C 
ATOM     14  C   UNL     1      37.645 -23.129 -15.717  0.00  0.00    +0.121 C 
ATOM     15  C   UNL     1      37.837 -25.643 -13.317  0.00  0.00    +0.140 C 
ENDBRANCH   7  12
BRANCH   5  18
ATOM     16  F   UNL     1      36.417 -21.880 -21.104  0.00  0.00    -0.191 F 
ATOM     17  F   UNL     1      36.764 -20.613 -19.401  0.00  0.00    -0.191 F 
ATOM     18  C   UNL     1      35.825 -20.856 -20.387  0.00  0.00    +0.335 C 
BRANCH  18  20
ATOM     19  N   UNL     1      34.950 -16.264 -23.576  0.00  0.00    -0.244 NA
ATOM     20  C   UNL     1      35.592 -19.652 -21.235  0.00  0.00    +0.045 C 
ATOM     21  C   UNL     1      35.141 -19.795 -22.544  0.00  0.00    +0.003 C 
ATOM     22  C   UNL     1      34.919 -18.663 -23.347  0.00  0.00    +0.018 C 
ATOM     23  C   UNL     1      35.823 -18.382 -20.724  0.00  0.00    +0.003 C 
ATOM     24  C   UNL     1      35.152 -17.370 -22.834  0.00  0.00    +0.081 C 
ATOM     25  C   UNL     1      35.603 -17.257 -21.522  0.00  0.00    +0.019 C 
ATOM     26  C   UNL     1      34.465 -18.777 -24.668  0.00  0.00    +0.003 C 
ATOM     27  C   UNL     1      34.256 -17.640 -25.434  0.00  0.00    +0.021 C 
ATOM     28  C   UNL     1      34.510 -16.418 -24.846  0.00  0.00    +0.099 C 
ENDBRANCH  18  20
ENDBRANCH   5  18
TORSDOF 3
ENDMDL
MODEL 2
REMARK VINA RESULT:     -13.3      2.863      9.317
REMARK  Name = 46911863
REMARK  3 active torsions:
REMARK  status: ('A' for Active; 'I' for Inactive)
REMARK    1  A    between atoms: C_5  and  C_18
REMARK    2  A    between atoms: C_7  and  C_12
REMARK    3  A    between atoms: C_18  and  C_20
REMARK                            x       y       z     vdW  Elec       q    Type
REMARK                         _______ _______ _______ _____ _____    ______ ____
ROOT
ATOM      1  N   UNL     1      34.683 -17.288 -23.948  0.00  0.00    -0.190 N 
ATOM      2  N   UNL     1      34.510 -16.028 -23.475  0.00  0.00    -0.162 NA
ATOM      3  N   UNL     1      35.324 -19.378 -24.105  0.00  0.00    -0.126 NA
ATOM      4  N   UNL     1      34.597 -19.064 -25.235  0.00  0.00    -0.127 NA
ATOM      5  C   UNL     1      35.364 -18.305 -23.347  0.00  0.00    +0.228 A 
ATOM      6  C   UNL     1      34.216 -17.808 -25.133  0.00  0.00    +0.187 A 
ATOM      7  C   UNL     1      33.819 -15.258 -24.267  0.00  0.00    +0.104 C 
ATOM      8  C   UNL     1      33.458 -16.958 -25.961  0.00  0.00    +0.042 C 
ATOM      9  C   UNL     1      33.234 -15.695 -25.576  0.00  0.00    +0.024 C 
ENDROOT
BRANCH   7  12
ATOM     10  N   UNL     1      32.776 -12.076 -22.862  0.00  0.00    -0.208 N 
ATOM     11  N   UNL     1      33.665 -11.573 -23.736  0.00  0.00    -0.176 NA
ATOM     12  C   UNL     1      33.565 -13.850 -23.862  0.00  0.00    +0.056 C 
ATOM     13  C   UNL     1      32.678 -13.436 -22.898  0.00  0.00    +0.087 C 
ATOM     14  C   UNL     1      34.143 -12.662 -24.344  0.00  0.00    +0.121 C 
ATOM     15  C   UNL     1      32.035 -11.187 -22.000  0.00  0.00    +0.140 C 
ENDBRANCH   7  12
BRANCH   5  18
ATOM     16  F   UNL     1      35.656 -16.981 -21.392  0.00  0.00    -0.191 F 
ATOM     17  F   UNL     1      37.408 -17.943 -22.185  0.00  0.00    -0.191 F 
ATOM     18  C   UNL     1      36.056 -18.161 -21.992  0.00  0.00    +0.335 C 
BRANCH  18  20
ATOM     19  N   UNL     1      35.153 -22.638 -18.651  0.00  0.00    -0.244 NA
ATOM     20  C   UNL     1      35.808 -19.339 -21.112  0.00  0.00    +0.045 C 
ATOM     21  C   UNL     1      34.506 -19.703 -20.781  0.00  0.00    +0.003 C 
ATOM     22  C   UNL     1      34.268 -20.813 -19.952  0.00  0.00    +0.018 C 
ATOM     23  C   UNL     1      36.875 -20.079 -20.617  0.00  0.00    +0.003 C 
ATOM     24  C   UNL     1      35.346 -21.569 -19.447  0.00  0.00    +0.081 C 
ATOM     25  C   UNL     1      36.637 -21.181 -19.794  0.00  0.00    +0.019 C 
ATOM     26  C   UNL     1      32.968 -21.203 -19.604  0.00  0.00    +0.003 C 
ATOM     27  C   UNL     1      32.766 -22.304 -18.784  0.00  0.00    +0.021 C 
ATOM     28  C   UNL     1      33.883 -22.981 -18.338  0.00  0.00    +0.099 C 
ENDBRANCH  18  20
ENDBRANCH   5  18
TORSDOF 3
ENDMDL
MODEL 3
REMARK VINA RESULT:     -13.2      5.161      8.553
REMARK  Name = 46911863
REMARK  3 active torsions:
REMARK  status: ('A' for Active; 'I' for Inactive)
REMARK    1  A    between atoms: C_5  and  C_18
REMARK    2  A    between atoms: C_7  and  C_12
REMARK    3  A    between atoms: C_18  and  C_20
REMARK                            x       y       z     vdW  Elec       q    Type
REMARK                         _______ _______ _______ _____ _____    ______ ____
ROOT
ATOM      1  N   UNL     1      33.993 -15.605 -23.555  0.00  0.00    -0.190 N 
ATOM      2  N   UNL     1      34.446 -16.424 -22.573  0.00  0.00    -0.162 NA
ATOM      3  N   UNL     1      33.065 -13.902 -24.575  0.00  0.00    -0.126 NA
ATOM      4  N   UNL     1      33.513 -14.787 -25.535  0.00  0.00    -0.127 NA
ATOM      5  C   UNL     1      33.361 -14.407 -23.399  0.00  0.00    +0.228 A 
ATOM      6  C   UNL     1      34.069 -15.806 -24.914  0.00  0.00    +0.187 A 
ATOM      7  C   UNL     1      35.006 -17.515 -23.013  0.00  0.00    +0.104 C 
ATOM      8  C   UNL     1      34.694 -16.986 -25.361  0.00  0.00    +0.042 C 
ATOM      9  C   UNL     1      35.174 -17.856 -24.464  0.00  0.00    +0.024 C 
ENDROOT
BRANCH   7  12
ATOM     10  N   UNL     1      35.735 -20.210 -20.691  0.00  0.00    -0.208 N 
ATOM     11  N   UNL     1      36.915 -19.577 -20.565  0.00  0.00    -0.176 NA
ATOM     12  C   UNL     1      35.538 -18.498 -22.033  0.00  0.00    +0.056 C 
ATOM     13  C   UNL     1      34.875 -19.604 -21.559  0.00  0.00    +0.087 C 
ATOM     14  C   UNL     1      36.787 -18.531 -21.387  0.00  0.00    +0.121 C 
ATOM     15  C   UNL     1      35.486 -21.417 -19.940  0.00  0.00    +0.140 C 
ENDBRANCH   7  12
BRANCH   5  18
ATOM     16  F   UNL     1      34.183 -13.895 -21.226  0.00  0.00    -0.191 F 
ATOM     17  F   UNL     1      32.149 -14.578 -21.359  0.00  0.00    -0.191 F 
ATOM     18  C   UNL     1      33.064 -13.790 -22.032  0.00  0.00    +0.335 C 
BRANCH  18  20
ATOM     19  N   UNL     1      31.258  -8.444 -22.449  0.00  0.00    -0.244 NA
ATOM     20  C   UNL     1      32.597 -12.379 -22.147  0.00  0.00    +0.045 C 
ATOM     21  C   UNL     1      33.375 -11.436 -22.813  0.00  0.00    +0.003 C 
ATOM     22  C   UNL     1      32.938 -10.105 -22.924  0.00  0.00    +0.018 C 
ATOM     23  C   UNL     1      31.383 -11.997 -21.590  0.00  0.00    +0.003 C 
ATOM     24  C   UNL     1      31.706  -9.711 -22.362  0.00  0.00    +0.081 C 
ATOM     25  C   UNL     1      30.950 -10.674 -21.701  0.00  0.00    +0.019 C 
ATOM     26  C   UNL     1      33.701  -9.136 -23.589  0.00  0.00    +0.003 C 
ATOM     27  C   UNL     1      33.241  -7.830 -23.682  0.00  0.00    +0.021 C 
ATOM     28  C   UNL     1      32.024  -7.538 -23.101  0.00  0.00    +0.099 C 
ENDBRANCH  18  20
ENDBRANCH   5  18
TORSDOF 3
ENDMDL
MODEL 4
REMARK VINA RESULT:     -12.9      6.971     12.366
REMARK  Name = 46911863
REMARK  3 active torsions:
REMARK  status: ('A' for Active; 'I' for Inactive)
REMARK    1  A    between atoms: C_5  and  C_18
REMARK    2  A    between atoms: C_7  and  C_12
REMARK    3  A    between atoms: C_18  and  C_20
REMARK                            x       y       z     vdW  Elec       q    Type
REMARK                         _______ _______ _______ _____ _____    ______ ____
ROOT
ATOM      1  N   UNL     1      32.543 -11.598 -22.550  0.00  0.00    -0.190 N 
ATOM      2  N   UNL     1      32.755 -10.441 -23.224  0.00  0.00    -0.162 NA
ATOM      3  N   UNL     1      32.528 -13.728 -22.033  0.00  0.00    -0.126 NA
ATOM      4  N   UNL     1      31.902 -13.034 -21.017  0.00  0.00    -0.127 NA
ATOM      5  C   UNL     1      32.905 -12.854 -22.939  0.00  0.00    +0.228 A 
ATOM      6  C   UNL     1      31.915 -11.756 -21.335  0.00  0.00    +0.187 A 
ATOM      7  C   UNL     1      32.293  -9.384 -22.616  0.00  0.00    +0.104 C 
ATOM      8  C   UNL     1      31.441 -10.596 -20.694  0.00  0.00    +0.042 C 
ATOM      9  C   UNL     1      31.606  -9.405 -21.284  0.00  0.00    +0.024 C 
ENDROOT
BRANCH   7  12
ATOM     10  N   UNL     1      32.058  -6.085 -24.115  0.00  0.00    -0.208 N 
ATOM     11  N   UNL     1      33.391  -6.215 -24.241  0.00  0.00    -0.176 NA
ATOM     12  C   UNL     1      32.459  -8.054 -23.258  0.00  0.00    +0.056 C 
ATOM     13  C   UNL     1      31.453  -7.159 -23.532  0.00  0.00    +0.087 C 
ATOM     14  C   UNL     1      33.629  -7.420 -23.716  0.00  0.00    +0.121 C 
ATOM     15  C   UNL     1      31.409  -4.883 -24.580  0.00  0.00    +0.140 C 
ENDBRANCH   7  12
BRANCH   5  18
ATOM     16  F   UNL     1      34.801 -12.399 -24.301  0.00  0.00    -0.191 F 
ATOM     17  F   UNL     1      32.914 -12.626 -25.306  0.00  0.00    -0.191 F 
ATOM     18  C   UNL     1      33.638 -13.144 -24.249  0.00  0.00    +0.335 C 
BRANCH  18  20
ATOM     19  N   UNL     1      34.638 -18.669 -24.953  0.00  0.00    -0.244 NA
ATOM     20  C   UNL     1      33.907 -14.600 -24.425  0.00  0.00    +0.045 C 
ATOM     21  C   UNL     1      34.647 -15.295 -23.474  0.00  0.00    +0.003 C 
ATOM     22  C   UNL     1      34.902 -16.668 -23.636  0.00  0.00    +0.018 C 
ATOM     23  C   UNL     1      33.421 -15.270 -25.541  0.00  0.00    +0.003 C 
ATOM     24  C   UNL     1      34.412 -17.354 -24.766  0.00  0.00    +0.081 C 
ATOM     25  C   UNL     1      33.676 -16.634 -25.702  0.00  0.00    +0.019 C 
ATOM     26  C   UNL     1      35.644 -17.393 -22.694  0.00  0.00    +0.003 C 
ATOM     27  C   UNL     1      35.878 -18.747 -22.883  0.00  0.00    +0.021 C 
ATOM     28  C   UNL     1      35.358 -19.333 -24.020  0.00  0.00    +0.099 C 
ENDBRANCH  18  20
ENDBRANCH   5  18
TORSDOF 3
ENDMDL
MODEL 5
REMARK VINA RESULT:     -12.6      4.223      7.222
REMARK  Name = 46911863
REMARK  3 active torsions:
REMARK  status: ('A' for Active; 'I' for Inactive)
REMARK    1  A    between atoms: C_5  and  C_18
REMARK    2  A    between atoms: C_7  and  C_12
REMARK    3  A    between atoms: C_18  and  C_20
REMARK                            x       y       z     vdW  Elec       q    Type
REMARK                         _______ _______ _______ _____ _____    ______ ____
ROOT
ATOM      1  N   UNL     1      34.558 -17.162 -23.290  0.00  0.00    -0.190 N 
ATOM      2  N   UNL     1      34.792 -17.864 -22.154  0.00  0.00    -0.162 NA
ATOM      3  N   UNL     1      34.062 -15.517 -24.651  0.00  0.00    -0.126 NA
ATOM      4  N   UNL     1      34.316 -16.641 -25.409  0.00  0.00    -0.127 NA
ATOM      5  C   UNL     1      34.212 -15.847 -23.387  0.00  0.00    +0.228 A 
ATOM      6  C   UNL     1      34.613 -17.624 -24.585  0.00  0.00    +0.187 A 
ATOM      7  C   UNL     1      35.098 -19.114 -22.359  0.00  0.00    +0.104 C 
ATOM      8  C   UNL     1      34.963 -18.974 -24.778  0.00  0.00    +0.042 C 
ATOM      9  C   UNL     1      35.213 -19.747 -23.714  0.00  0.00    +0.024 C 
ENDROOT
BRANCH   7  12
ATOM     10  N   UNL     1      35.141 -21.402 -19.540  0.00  0.00    -0.208 N 
ATOM     11  N   UNL     1      36.445 -21.078 -19.493  0.00  0.00    -0.176 NA
ATOM     12  C   UNL     1      35.372 -19.991 -21.191  0.00  0.00    +0.056 C 
ATOM     13  C   UNL     1      34.454 -20.777 -20.539  0.00  0.00    +0.087 C 
ATOM     14  C   UNL     1      36.580 -20.215 -20.504  0.00  0.00    +0.121 C 
ATOM     15  C   UNL     1      34.599 -22.336 -18.582  0.00  0.00    +0.140 C 
ENDBRANCH   7  12
BRANCH   5  18
ATOM     16  F   UNL     1      35.196 -14.941 -21.421  0.00  0.00    -0.191 F 
ATOM     17  F   UNL     1      33.126 -15.506 -21.299  0.00  0.00    -0.191 F 
ATOM     18  C   UNL     1      34.035 -14.937 -22.171  0.00  0.00    +0.335 C 
BRANCH  18  20
ATOM     19  N   UNL     1      32.545  -9.693 -23.684  0.00  0.00    -0.244 NA
ATOM     20  C   UNL     1      33.635 -13.556 -22.563  0.00  0.00    +0.045 C 
ATOM     21  C   UNL     1      32.591 -12.916 -21.901  0.00  0.00    +0.003 C 
ATOM     22  C   UNL     1      32.211 -11.613 -22.267  0.00  0.00    +0.018 C 
ATOM     23  C   UNL     1      34.302 -12.900 -23.590  0.00  0.00    +0.003 C 
ATOM     24  C   UNL     1      32.884 -10.941 -23.308  0.00  0.00    +0.081 C 
ATOM     25  C   UNL     1      33.923 -11.605 -23.953  0.00  0.00    +0.019 C 
ATOM     26  C   UNL     1      31.164 -10.945 -21.617  0.00  0.00    +0.003 C 
ATOM     27  C   UNL     1      30.813  -9.659 -22.002  0.00  0.00    +0.021 C 
ATOM     28  C   UNL     1      31.529  -9.082 -23.031  0.00  0.00    +0.099 C 
ENDBRANCH  18  20
ENDBRANCH   5  18
TORSDOF 3
ENDMDL
MODEL 6
REMARK VINA RESULT:     -12.6      6.689     12.513
REMARK  Name = 46911863
REMARK  3 active torsions:
REMARK  status: ('A' for Active; 'I' for Inactive)
REMARK    1  A    between atoms: C_5  and  C_18
REMARK    2  A    between atoms: C_7  and  C_12
REMARK    3  A    between atoms: C_18  and  C_20
REMARK                            x       y       z     vdW  Elec       q    Type
REMARK                         _______ _______ _______ _____ _____    ______ ____
ROOT
ATOM      1  N   UNL     1      32.690 -11.104 -22.602  0.00  0.00    -0.190 N 
ATOM      2  N   UNL     1      33.240 -10.120 -23.356  0.00  0.00    -0.162 NA
ATOM      3  N   UNL     1      32.140 -13.093 -21.864  0.00  0.00    -0.126 NA
ATOM      4  N   UNL     1      31.549 -12.152 -21.046  0.00  0.00    -0.127 NA
ATOM      5  C   UNL     1      32.818 -12.449 -22.787  0.00  0.00    +0.228 A 
ATOM      6  C   UNL     1      31.884 -10.961 -21.496  0.00  0.00    +0.187 A 
ATOM      7  C   UNL     1      32.942  -8.918 -22.951  0.00  0.00    +0.104 C 
ATOM      8  C   UNL     1      31.592  -9.650 -21.072  0.00  0.00    +0.042 C 
ATOM      9  C   UNL     1      32.092  -8.612 -21.754  0.00  0.00    +0.024 C 
ENDROOT
BRANCH   7  12
ATOM     10  N   UNL     1      33.638  -5.913 -24.868  0.00  0.00    -0.208 N 
ATOM     11  N   UNL     1      34.919  -6.263 -24.662  0.00  0.00    -0.176 NA
ATOM     12  C   UNL     1      33.481  -7.751 -23.699  0.00  0.00    +0.056 C 
ATOM     13  C   UNL     1      32.736  -6.772 -24.312  0.00  0.00    +0.087 C 
ATOM     14  C   UNL     1      34.817  -7.387 -23.948  0.00  0.00    +0.121 C 
ATOM     15  C   UNL     1      33.332  -4.720 -25.620  0.00  0.00    +0.140 C 
ENDBRANCH   7  12
BRANCH   5  18
ATOM     16  F   UNL     1      34.699 -12.227 -24.227  0.00  0.00    -0.191 F 
ATOM     17  F   UNL     1      32.904 -13.037 -25.090  0.00  0.00    -0.191 F 
ATOM     18  C   UNL     1      33.641 -13.063 -23.920  0.00  0.00    +0.335 C 
BRANCH  18  20
ATOM     19  N   UNL     1      35.409 -18.281 -22.631  0.00  0.00    -0.244 NA
ATOM     20  C   UNL     1      34.104 -14.441 -23.590  0.00  0.00    +0.045 C 
ATOM     21  C   UNL     1      33.991 -15.461 -24.529  0.00  0.00    +0.003 C 
ATOM     22  C   UNL     1      34.427 -16.762 -24.222  0.00  0.00    +0.018 C 
ATOM     23  C   UNL     1      34.650 -14.714 -22.342  0.00  0.00    +0.003 C 
ATOM     24  C   UNL     1      34.983 -17.046 -22.958  0.00  0.00    +0.081 C 
ATOM     25  C   UNL     1      35.083 -16.007 -22.037  0.00  0.00    +0.019 C 
ATOM     26  C   UNL     1      34.325 -17.808 -25.149  0.00  0.00    +0.003 C 
ATOM     27  C   UNL     1      34.764 -19.080 -24.815  0.00  0.00    +0.021 C 
ATOM     28  C   UNL     1      35.294 -19.263 -23.554  0.00  0.00    +0.099 C 
ENDBRANCH  18  20
ENDBRANCH   5  18
TORSDOF 3
ENDMDL
MODEL 7
REMARK VINA RESULT:     -12.2      2.255      3.264
REMARK  Name = 46911863
REMARK  3 active torsions:
REMARK  status: ('A' for Active; 'I' for Inactive)
REMARK    1  A    between atoms: C_5  and  C_18
REMARK    2  A    between atoms: C_7  and  C_12
REMARK    3  A    between atoms: C_18  and  C_20
REMARK                            x       y       z     vdW  Elec       q    Type
REMARK                         _______ _______ _______ _____ _____    ______ ____
ROOT
ATOM      1  N   UNL     1      32.998 -23.242 -16.346  0.00  0.00    -0.190 N 
ATOM      2  N   UNL     1      34.058 -23.713 -15.643  0.00  0.00    -0.162 NA
ATOM      3  N   UNL     1      31.773 -22.481 -17.997  0.00  0.00    -0.126 NA
ATOM      4  N   UNL     1      30.984 -22.540 -16.866  0.00  0.00    -0.127 NA
ATOM      5  C   UNL     1      32.972 -22.905 -17.667  0.00  0.00    +0.228 A 
ATOM      6  C   UNL     1      31.726 -22.998 -15.880  0.00  0.00    +0.187 A 
ATOM      7  C   UNL     1      33.797 -23.944 -14.388  0.00  0.00    +0.104 C 
ATOM      8  C   UNL     1      31.469 -23.272 -14.523  0.00  0.00    +0.042 C 
ATOM      9  C   UNL     1      32.456 -23.742 -13.749  0.00  0.00    +0.024 C 
ENDROOT
BRANCH   7  12
ATOM     10  N   UNL     1      36.767 -25.295 -12.794  0.00  0.00    -0.208 N 
ATOM     11  N   UNL     1      36.068 -25.088 -11.664  0.00  0.00    -0.176 NA
ATOM     12  C   UNL     1      34.880 -24.459 -13.510  0.00  0.00    +0.056 C 
ATOM     13  C   UNL     1      36.100 -24.935 -13.927  0.00  0.00    +0.087 C 
ATOM     14  C   UNL     1      34.916 -24.578 -12.108  0.00  0.00    +0.121 C 
ATOM     15  C   UNL     1      38.097 -25.851 -12.722  0.00  0.00    +0.140 C 
ENDBRANCH   7  12
BRANCH   5  18
ATOM     16  F   UNL     1      34.110 -24.195 -19.311  0.00  0.00    -0.191 F 
ATOM     17  F   UNL     1      35.323 -23.233 -17.819  0.00  0.00    -0.191 F 
ATOM     18  C   UNL     1      34.191 -23.022 -18.583  0.00  0.00    +0.335 C 
BRANCH  18  20
ATOM     19  N   UNL     1      34.708 -18.505 -21.952  0.00  0.00    -0.244 NA
ATOM     20  C   UNL     1      34.337 -21.832 -19.470  0.00  0.00    +0.045 C 
ATOM     21  C   UNL     1      35.601 -21.328 -19.760  0.00  0.00    +0.003 C 
ATOM     22  C   UNL     1      35.744 -20.206 -20.596  0.00  0.00    +0.018 C 
ATOM     23  C   UNL     1      33.213 -21.221 -20.010  0.00  0.00    +0.003 C 
ATOM     24  C   UNL     1      34.607 -19.581 -21.148  0.00  0.00    +0.081 C 
ATOM     25  C   UNL     1      33.355 -20.106 -20.839  0.00  0.00    +0.019 C 
ATOM     26  C   UNL     1      37.004 -19.678 -20.906  0.00  0.00    +0.003 C 
ATOM     27  C   UNL     1      37.111 -18.570 -21.734  0.00  0.00    +0.021 C 
ATOM     28  C   UNL     1      35.943 -18.026 -22.227  0.00  0.00    +0.099 C 
ENDBRANCH  18  20
ENDBRANCH   5  18
TORSDOF 3
ENDMDL
MODEL 8
REMARK VINA RESULT:     -12.1      8.573     14.161
REMARK  Name = 46911863
REMARK  3 active torsions:
REMARK  status: ('A' for Active; 'I' for Inactive)
REMARK    1  A    between atoms: C_5  and  C_18
REMARK    2  A    between atoms: C_7  and  C_12
REMARK    3  A    between atoms: C_18  and  C_20
REMARK                            x       y       z     vdW  Elec       q    Type
REMARK                         _______ _______ _______ _____ _____    ______ ____
ROOT
ATOM      1  N   UNL     1      32.089  -8.695 -21.280  0.00  0.00    -0.190 N 
ATOM      2  N   UNL     1      32.073  -8.021 -22.457  0.00  0.00    -0.162 NA
ATOM      3  N   UNL     1      32.010 -10.328 -19.820  0.00  0.00    -0.126 NA
ATOM      4  N   UNL     1      32.200  -9.146 -19.134  0.00  0.00    -0.127 NA
ATOM      5  C   UNL     1      31.947 -10.039 -21.101  0.00  0.00    +0.228 A 
ATOM      6  C   UNL     1      32.247  -8.171 -20.017  0.00  0.00    +0.187 A 
ATOM      7  C   UNL     1      32.224  -6.733 -22.329  0.00  0.00    +0.104 C 
ATOM      8  C   UNL     1      32.425  -6.778 -19.911  0.00  0.00    +0.042 C 
ATOM      9  C   UNL     1      32.424  -6.029 -21.021  0.00  0.00    +0.024 C 
ENDROOT
BRANCH   7  12
ATOM     10  N   UNL     1      32.752  -4.973 -25.461  0.00  0.00    -0.208 N 
ATOM     11  N   UNL     1      31.624  -4.330 -25.113  0.00  0.00    -0.176 NA
ATOM     12  C   UNL     1      32.219  -5.882 -23.548  0.00  0.00    +0.056 C 
ATOM     13  C   UNL     1      33.151  -5.913 -24.557  0.00  0.00    +0.087 C 
ATOM     14  C   UNL     1      31.304  -4.889 -23.943  0.00  0.00    +0.121 C 
ATOM     15  C   UNL     1      33.415  -4.638 -26.698  0.00  0.00    +0.140 C 
ENDBRANCH   7  12
BRANCH   5  18
ATOM     16  F   UNL     1      32.208 -10.453 -23.429  0.00  0.00    -0.191 F 
ATOM     17  F   UNL     1      30.392 -11.153 -22.515  0.00  0.00    -0.191 F 
ATOM     18  C   UNL     1      31.744 -11.020 -22.256  0.00  0.00    +0.335 C 
BRANCH  18  20
ATOM     19  N   UNL     1      34.167 -16.023 -21.202  0.00  0.00    -0.244 NA
ATOM     20  C   UNL     1      32.387 -12.337 -21.988  0.00  0.00    +0.045 C 
ATOM     21  C   UNL     1      33.230 -12.910 -22.935  0.00  0.00    +0.003 C 
ATOM     22  C   UNL     1      33.839 -14.153 -22.686  0.00  0.00    +0.018 C 
ATOM     23  C   UNL     1      32.147 -13.001 -20.791  0.00  0.00    +0.003 C 
ATOM     24  C   UNL     1      33.600 -14.832 -21.473  0.00  0.00    +0.081 C 
ATOM     25  C   UNL     1      32.752 -14.236 -20.544  0.00  0.00    +0.019 C 
ATOM     26  C   UNL     1      34.693 -14.752 -23.621  0.00  0.00    +0.003 C 
ATOM     27  C   UNL     1      35.278 -15.979 -23.345  0.00  0.00    +0.021 C 
ATOM     28  C   UNL     1      34.986 -16.568 -22.131  0.00  0.00    +0.099 C 
ENDBRANCH  18  20
ENDBRANCH   5  18
TORSDOF 3
ENDMDL
MODEL 9
REMARK VINA RESULT:     -11.6      2.450      8.681
REMARK  Name = 46911863
REMARK  3 active torsions:
REMARK  status: ('A' for Active; 'I' for Inactive)
REMARK    1  A    between atoms: C_5  and  C_18
REMARK    2  A    between atoms: C_7  and  C_12
REMARK    3  A    between atoms: C_18  and  C_20
REMARK                            x       y       z     vdW  Elec       q    Type
REMARK                         _______ _______ _______ _____ _____    ______ ____
ROOT
ATOM      1  N   UNL     1      35.710 -20.587 -20.255  0.00  0.00    -0.190 N 
ATOM      2  N   UNL     1      35.018 -20.155 -21.338  0.00  0.00    -0.162 NA
ATOM      3  N   UNL     1      36.251 -21.692 -18.441  0.00  0.00    -0.126 NA
ATOM      4  N   UNL     1      37.273 -20.811 -18.730  0.00  0.00    -0.127 NA
ATOM      5  C   UNL     1      35.326 -21.545 -19.363  0.00  0.00    +0.228 A 
ATOM      6  C   UNL     1      36.940 -20.152 -19.820  0.00  0.00    +0.187 A 
ATOM      7  C   UNL     1      35.624 -19.219 -22.012  0.00  0.00    +0.104 C 
ATOM      8  C   UNL     1      37.579 -19.152 -20.577  0.00  0.00    +0.042 C 
ATOM      9  C   UNL     1      36.972 -18.663 -21.666  0.00  0.00    +0.024 C 
ENDROOT
BRANCH   7  12
ATOM     10  N   UNL     1      34.224 -17.279 -24.743  0.00  0.00    -0.208 N 
ATOM     11  N   UNL     1      33.796 -18.478 -25.174  0.00  0.00    -0.176 NA
ATOM     12  C   UNL     1      34.964 -18.657 -23.220  0.00  0.00    +0.056 C 
ATOM     13  C   UNL     1      34.928 -17.331 -23.577  0.00  0.00    +0.087 C 
ATOM     14  C   UNL     1      34.250 -19.316 -24.238  0.00  0.00    +0.121 C 
ATOM     15  C   UNL     1      33.923 -16.093 -25.509  0.00  0.00    +0.140 C 
ENDBRANCH   7  12
BRANCH   5  18
ATOM     16  F   UNL     1      34.152 -23.375 -20.328  0.00  0.00    -0.191 F 
ATOM     17  F   UNL     1      33.077 -21.523 -20.137  0.00  0.00    -0.191 F 
ATOM     18  C   UNL     1      34.002 -22.303 -19.468  0.00  0.00    +0.335 C 
BRANCH  18  20
ATOM     19  N   UNL     1      32.127 -23.942 -14.388  0.00  0.00    -0.244 NA
ATOM     20  C   UNL     1      33.499 -22.732 -18.132  0.00  0.00    +0.045 C 
ATOM     21  C   UNL     1      32.146 -22.621 -17.826  0.00  0.00    +0.003 C 
ATOM     22  C   UNL     1      31.667 -23.025 -16.568  0.00  0.00    +0.018 C 
ATOM     23  C   UNL     1      34.377 -23.244 -17.186  0.00  0.00    +0.003 C 
ATOM     24  C   UNL     1      32.553 -23.547 -15.603  0.00  0.00    +0.081 C 
ATOM     25  C   UNL     1      33.900 -23.645 -15.936  0.00  0.00    +0.019 C 
ATOM     26  C   UNL     1      30.309 -22.926 -16.233  0.00  0.00    +0.003 C 
ATOM     27  C   UNL     1      29.868 -23.333 -14.983  0.00  0.00    +0.021 C 
ATOM     28  C   UNL     1      30.809 -23.831 -14.104  0.00  0.00    +0.099 C 
ENDBRANCH  18  20
ENDBRANCH   5  18
TORSDOF 3
ENDMDL
