MODEL 1
REMARK VINA RESULT:     -13.0      0.000      0.000
REMARK  Name = 3822
REMARK  5 active torsions:
REMARK  status: ('A' for Active; 'I' for Inactive)
REMARK    1  A    between atoms: N_1  and  C_17
REMARK    2  A    between atoms: C_2  and  C_9
REMARK    3  A    between atoms: C_9  and  C_11
REMARK    4  A    between atoms: C_17  and  C_18
REMARK    5  A    between atoms: C_18  and  N_21
REMARK                            x       y       z     vdW  Elec       q    Type
REMARK                         _______ _______ _______ _____ _____    ______ ____
ROOT
ATOM      1  N   UNL     1      35.999 -20.202 -20.969  0.00  0.00    +0.388 N 
ATOM      2  C   UNL     1      35.779 -18.246 -23.149  0.00  0.00    +0.058 C 
ATOM      3  C   UNL     1      37.109 -18.573 -22.470  0.00  0.00    -0.015 C 
ATOM      4  C   UNL     1      34.751 -19.355 -22.930  0.00  0.00    -0.015 C 
ATOM      5  C   UNL     1      36.939 -19.075 -21.034  0.00  0.00    -0.077 C 
ATOM      6  C   UNL     1      34.676 -19.811 -21.470  0.00  0.00    -0.077 C 
ATOM      7  H   UNL     1      36.357 -20.948 -21.566  0.00  0.00    -0.080 HD
ENDROOT
BRANCH   2   9
ATOM      8  O   UNL     1      35.266 -16.630 -21.482  0.00  0.00    -0.291 OA
ATOM      9  C   UNL     1      35.234 -16.931 -22.672  0.00  0.00    +0.172 C 
BRANCH   9  11
ATOM     10  F   UNL     1      33.046 -13.390 -26.394  0.00  0.00    -0.204 F 
ATOM     11  C   UNL     1      34.651 -15.986 -23.666  0.00  0.00    +0.035 C 
ATOM     12  C   UNL     1      34.337 -16.456 -24.921  0.00  0.00    +0.005 C 
ATOM     13  C   UNL     1      34.445 -14.677 -23.290  0.00  0.00    +0.005 C 
ATOM     14  C   UNL     1      33.791 -15.572 -25.851  0.00  0.00    +0.030 C 
ATOM     15  C   UNL     1      33.898 -13.792 -24.220  0.00  0.00    +0.030 C 
ATOM     16  C   UNL     1      33.571 -14.239 -25.501  0.00  0.00    +0.140 C 
ENDBRANCH   9  11
ENDBRANCH   2   9
BRANCH   1  17
ATOM     17  C   UNL     1      35.899 -20.705 -19.598  0.00  0.00    -0.052 C 
BRANCH  17  18
ATOM     18  C   UNL     1      35.524 -22.180 -19.604  0.00  0.00    +0.091 C 
BRANCH  18  21
ATOM     19  O   UNL     1      36.118 -23.007 -17.025  0.00  0.00    -0.267 OA
ATOM     20  O   UNL     1      32.772 -21.931 -20.108  0.00  0.00    -0.246 OA
ATOM     21  N   UNL     1      34.506 -22.461 -18.628  0.00  0.00    -0.251 N 
ATOM     22  N   UNL     1      32.210 -22.593 -18.004  0.00  0.00    -0.306 N 
ATOM     23  C   UNL     1      34.938 -22.879 -17.345  0.00  0.00    +0.265 A 
ATOM     24  C   UNL     1      33.139 -22.303 -18.990  0.00  0.00    +0.330 A 
ATOM     25  C   UNL     1      33.884 -23.167 -16.353  0.00  0.00    +0.072 A 
ATOM     26  C   UNL     1      32.549 -23.014 -16.715  0.00  0.00    +0.065 A 
ATOM     27  C   UNL     1      34.215 -23.589 -15.062  0.00  0.00    +0.006 C 
ATOM     28  C   UNL     1      31.535 -23.283 -15.791  0.00  0.00    +0.017 C 
ATOM     29  C   UNL     1      33.203 -23.858 -14.139  0.00  0.00    +0.000 C 
ATOM     30  C   UNL     1      31.865 -23.704 -14.503  0.00  0.00    +0.001 C 
ATOM     31  H   UNL     1      31.256 -22.494 -18.224  0.00  0.00    +0.170 HD
ENDBRANCH  18  21
ENDBRANCH  17  18
ENDBRANCH   1  17
TORSDOF 5
ENDMDL
MODEL 2
REMARK VINA RESULT:     -13.0      6.124      9.421
REMARK  Name = 3822
REMARK  5 active torsions:
REMARK  status: ('A' for Active; 'I' for Inactive)
REMARK    1  A    between atoms: N_1  and  C_17
REMARK    2  A    between atoms: C_2  and  C_9
REMARK    3  A    between atoms: C_9  and  C_11
REMARK    4  A    between atoms: C_17  and  C_18
REMARK    5  A    between atoms: C_18  and  N_21
REMARK                            x       y       z     vdW  Elec       q    Type
REMARK                         _______ _______ _______ _____ _____    ______ ____
ROOT
ATOM      1  N   UNL     1      31.897 -11.882 -21.681  0.00  0.00    +0.388 N 
ATOM      2  C   UNL     1      31.473  -8.983 -21.478  0.00  0.00    +0.058 C 
ATOM      3  C   UNL     1      31.439  -9.726 -22.813  0.00  0.00    -0.015 C 
ATOM      4  C   UNL     1      31.250  -9.933 -20.302  0.00  0.00    -0.015 C 
ATOM      5  C   UNL     1      32.272 -11.011 -22.803  0.00  0.00    -0.077 C 
ATOM      6  C   UNL     1      32.103 -11.201 -20.398  0.00  0.00    -0.077 C 
ATOM      7  H   UNL     1      30.905 -12.103 -21.768  0.00  0.00    -0.080 HD
ENDROOT
BRANCH   2   9
ATOM      8  O   UNL     1      33.317  -8.178 -20.209  0.00  0.00    -0.291 OA
ATOM      9  C   UNL     1      32.764  -8.237 -21.305  0.00  0.00    +0.172 C 
BRANCH   9  11
ATOM     10  F   UNL     1      35.046  -5.708 -25.729  0.00  0.00    -0.204 F 
ATOM     11  C   UNL     1      33.374  -7.561 -22.485  0.00  0.00    +0.035 C 
ATOM     12  C   UNL     1      34.643  -7.926 -22.874  0.00  0.00    +0.005 C 
ATOM     13  C   UNL     1      32.643  -6.598 -23.145  0.00  0.00    +0.005 C 
ATOM     14  C   UNL     1      35.213  -7.294 -23.979  0.00  0.00    +0.030 C 
ATOM     15  C   UNL     1      33.213  -5.966 -24.251  0.00  0.00    +0.030 C 
ATOM     16  C   UNL     1      34.498  -6.314 -24.668  0.00  0.00    +0.140 C 
ENDBRANCH   9  11
ENDBRANCH   2   9
BRANCH   1  17
ATOM     17  C   UNL     1      32.661 -13.130 -21.726  0.00  0.00    -0.052 C 
BRANCH  17  18
ATOM     18  C   UNL     1      33.700 -13.074 -22.836  0.00  0.00    +0.091 C 
BRANCH  18  21
ATOM     19  O   UNL     1      34.928 -15.103 -21.401  0.00  0.00    -0.267 OA
ATOM     20  O   UNL     1      32.963 -13.815 -25.442  0.00  0.00    -0.246 OA
ATOM     21  N   UNL     1      33.939 -14.377 -23.391  0.00  0.00    -0.251 N 
ATOM     22  N   UNL     1      33.788 -15.922 -25.199  0.00  0.00    -0.306 N 
ATOM     23  C   UNL     1      34.578 -15.328 -22.557  0.00  0.00    +0.265 A 
ATOM     24  C   UNL     1      33.525 -14.647 -24.725  0.00  0.00    +0.330 A 
ATOM     25  C   UNL     1      34.820 -16.663 -23.140  0.00  0.00    +0.072 A 
ATOM     26  C   UNL     1      34.416 -16.918 -24.447  0.00  0.00    +0.065 A 
ATOM     27  C   UNL     1      35.447 -17.664 -22.393  0.00  0.00    +0.006 C 
ATOM     28  C   UNL     1      34.636 -18.175 -25.017  0.00  0.00    +0.017 C 
ATOM     29  C   UNL     1      35.668 -18.919 -22.963  0.00  0.00    +0.000 C 
ATOM     30  C   UNL     1      35.262 -19.174 -24.272  0.00  0.00    +0.001 C 
ATOM     31  H   UNL     1      33.514 -16.139 -26.120  0.00  0.00    +0.170 HD
ENDBRANCH  18  21
ENDBRANCH  17  18
ENDBRANCH   1  17
TORSDOF 5
ENDMDL
MODEL 3
REMARK VINA RESULT:     -12.8      0.693      1.818
REMARK  Name = 3822
REMARK  5 active torsions:
REMARK  status: ('A' for Active; 'I' for Inactive)
REMARK    1  A    between atoms: N_1  and  C_17
REMARK    2  A    between atoms: C_2  and  C_9
REMARK    3  A    between atoms: C_9  and  C_11
REMARK    4  A    between atoms: C_17  and  C_18
REMARK    5  A    between atoms: C_18  and  N_21
REMARK                            x       y       z     vdW  Elec       q    Type
REMARK                         _______ _______ _______ _____ _____    ______ ____
ROOT
ATOM      1  N   UNL     1      35.960 -20.251 -20.909  0.00  0.00    +0.388 N 
ATOM      2  C   UNL     1      35.746 -18.322 -23.113  0.00  0.00    +0.058 C 
ATOM      3  C   UNL     1      37.079 -18.660 -22.445  0.00  0.00    -0.015 C 
ATOM      4  C   UNL     1      34.703 -19.411 -22.867  0.00  0.00    -0.015 C 
ATOM      5  C   UNL     1      36.917 -19.140 -21.000  0.00  0.00    -0.077 C 
ATOM      6  C   UNL     1      34.638 -19.845 -21.400  0.00  0.00    -0.077 C 
ATOM      7  H   UNL     1      36.299 -21.011 -21.500  0.00  0.00    -0.080 HD
ENDROOT
BRANCH   2   9
ATOM      8  O   UNL     1      35.313 -16.659 -21.469  0.00  0.00    -0.291 OA
ATOM      9  C   UNL     1      35.228 -16.992 -22.648  0.00  0.00    +0.172 C 
BRANCH   9  11
ATOM     10  F   UNL     1      32.892 -13.541 -26.365  0.00  0.00    -0.204 F 
ATOM     11  C   UNL     1      34.605 -16.071 -23.641  0.00  0.00    +0.035 C 
ATOM     12  C   UNL     1      34.401 -16.522 -24.926  0.00  0.00    +0.005 C 
ATOM     13  C   UNL     1      34.254 -14.802 -23.235  0.00  0.00    +0.005 C 
ATOM     14  C   UNL     1      33.818 -15.660 -25.854  0.00  0.00    +0.030 C 
ATOM     15  C   UNL     1      33.670 -13.940 -24.163  0.00  0.00    +0.030 C 
ATOM     16  C   UNL     1      33.452 -14.368 -25.473  0.00  0.00    +0.140 C 
ENDBRANCH   9  11
ENDBRANCH   2   9
BRANCH   1  17
ATOM     17  C   UNL     1      35.868 -20.734 -19.531  0.00  0.00    -0.052 C 
BRANCH  17  18
ATOM     18  C   UNL     1      35.446 -22.195 -19.510  0.00  0.00    +0.091 C 
BRANCH  18  21
ATOM     19  O   UNL     1      32.695 -22.409 -19.249  0.00  0.00    -0.267 OA
ATOM     20  O   UNL     1      36.854 -22.724 -17.138  0.00  0.00    -0.246 OA
ATOM     21  N   UNL     1      34.812 -22.537 -18.266  0.00  0.00    -0.251 N 
ATOM     22  N   UNL     1      34.947 -23.108 -15.957  0.00  0.00    -0.306 N 
ATOM     23  C   UNL     1      33.397 -22.613 -18.261  0.00  0.00    +0.265 A 
ATOM     24  C   UNL     1      35.622 -22.785 -17.123  0.00  0.00    +0.330 A 
ATOM     25  C   UNL     1      32.758 -22.963 -16.977  0.00  0.00    +0.072 A 
ATOM     26  C   UNL     1      33.556 -23.200 -15.862  0.00  0.00    +0.065 A 
ATOM     27  C   UNL     1      31.367 -23.056 -16.876  0.00  0.00    +0.006 C 
ATOM     28  C   UNL     1      32.970 -23.532 -14.637  0.00  0.00    +0.017 C 
ATOM     29  C   UNL     1      30.782 -23.388 -15.652  0.00  0.00    +0.000 C 
ATOM     30  C   UNL     1      31.583 -23.625 -14.535  0.00  0.00    +0.001 C 
ATOM     31  H   UNL     1      35.480 -23.284 -15.148  0.00  0.00    +0.170 HD
ENDBRANCH  18  21
ENDBRANCH  17  18
ENDBRANCH   1  17
TORSDOF 5
ENDMDL
MODEL 4
REMARK VINA RESULT:     -12.8      4.411      9.699
REMARK  Name = 3822
REMARK  5 active torsions:
REMARK  status: ('A' for Active; 'I' for Inactive)
REMARK    1  A    between atoms: N_1  and  C_17
REMARK    2  A    between atoms: C_2  and  C_9
REMARK    3  A    between atoms: C_9  and  C_11
REMARK    4  A    between atoms: C_17  and  C_18
REMARK    5  A    between atoms: C_18  and  N_21
REMARK                            x       y       z     vdW  Elec       q    Type
REMARK                         _______ _______ _______ _____ _____    ______ ____
ROOT
ATOM      1  N   UNL     1      35.578 -16.273 -23.235  0.00  0.00    +0.388 N 
ATOM      2  C   UNL     1      35.950 -18.781 -21.752  0.00  0.00    +0.058 C 
ATOM      3  C   UNL     1      36.446 -18.593 -23.186  0.00  0.00    -0.015 C 
ATOM      4  C   UNL     1      35.724 -17.438 -21.058  0.00  0.00    -0.015 C 
ATOM      5  C   UNL     1      35.643 -17.547 -23.963  0.00  0.00    -0.077 C 
ATOM      6  C   UNL     1      34.940 -16.450 -21.925  0.00  0.00    -0.077 C 
ATOM      7  H   UNL     1      36.533 -15.946 -23.081  0.00  0.00    -0.080 HD
ENDROOT
BRANCH   2   9
ATOM      8  O   UNL     1      33.834 -19.480 -22.582  0.00  0.00    -0.291 OA
ATOM      9  C   UNL     1      34.695 -19.603 -21.715  0.00  0.00    +0.172 C 
BRANCH   9  11
ATOM     10  F   UNL     1      33.976 -23.264 -17.560  0.00  0.00    -0.204 F 
ATOM     11  C   UNL     1      34.502 -20.580 -20.605  0.00  0.00    +0.035 C 
ATOM     12  C   UNL     1      33.221 -20.879 -20.202  0.00  0.00    +0.005 C 
ATOM     13  C   UNL     1      35.615 -21.149 -20.026  0.00  0.00    +0.005 C 
ATOM     14  C   UNL     1      33.041 -21.794 -19.164  0.00  0.00    +0.030 C 
ATOM     15  C   UNL     1      35.436 -22.063 -18.988  0.00  0.00    +0.030 C 
ATOM     16  C   UNL     1      34.149 -22.386 -18.556  0.00  0.00    +0.140 C 
ENDBRANCH   9  11
ENDBRANCH   2   9
BRANCH   1  17
ATOM     17  C   UNL     1      34.860 -15.270 -24.022  0.00  0.00    -0.052 C 
BRANCH  17  18
ATOM     18  C   UNL     1      33.447 -15.092 -23.489  0.00  0.00    +0.091 C 
BRANCH  18  21
ATOM     19  O   UNL     1      32.279 -14.261 -21.115  0.00  0.00    -0.267 OA
ATOM     20  O   UNL     1      34.038 -12.991 -25.257  0.00  0.00    -0.246 OA
ATOM     21  N   UNL     1      33.167 -13.710 -23.207  0.00  0.00    -0.251 N 
ATOM     22  N   UNL     1      33.209 -11.413 -23.841  0.00  0.00    -0.306 N 
ATOM     23  C   UNL     1      32.566 -13.414 -21.958  0.00  0.00    +0.265 A 
ATOM     24  C   UNL     1      33.507 -12.725 -24.175  0.00  0.00    +0.330 A 
ATOM     25  C   UNL     1      32.282 -11.992 -21.682  0.00  0.00    +0.072 A 
ATOM     26  C   UNL     1      32.613 -11.034 -22.635  0.00  0.00    +0.065 A 
ATOM     27  C   UNL     1      31.686 -11.605 -20.478  0.00  0.00    +0.006 C 
ATOM     28  C   UNL     1      32.351  -9.683 -22.393  0.00  0.00    +0.017 C 
ATOM     29  C   UNL     1      31.424 -10.255 -20.236  0.00  0.00    +0.000 C 
ATOM     30  C   UNL     1      31.757  -9.296 -21.192  0.00  0.00    +0.001 C 
ATOM     31  H   UNL     1      33.431 -10.708 -24.491  0.00  0.00    +0.170 HD
ENDBRANCH  18  21
ENDBRANCH  17  18
ENDBRANCH   1  17
TORSDOF 5
ENDMDL
MODEL 5
REMARK VINA RESULT:     -12.6      4.266      9.726
REMARK  Name = 3822
REMARK  5 active torsions:
REMARK  status: ('A' for Active; 'I' for Inactive)
REMARK    1  A    between atoms: N_1  and  C_17
REMARK    2  A    between atoms: C_2  and  C_9
REMARK    3  A    between atoms: C_9  and  C_11
REMARK    4  A    between atoms: C_17  and  C_18
REMARK    5  A    between atoms: C_18  and  N_21
REMARK                            x       y       z     vdW  Elec       q    Type
REMARK                         _______ _______ _______ _____ _____    ______ ____
ROOT
ATOM      1  N   UNL     1      35.615 -16.277 -23.148  0.00  0.00    +0.388 N 
ATOM      2  C   UNL     1      35.927 -19.021 -22.148  0.00  0.00    +0.058 C 
ATOM      3  C   UNL     1      36.052 -18.668 -23.630  0.00  0.00    -0.015 C 
ATOM      4  C   UNL     1      36.126 -17.793 -21.261  0.00  0.00    -0.015 C 
ATOM      5  C   UNL     1      35.265 -17.412 -24.013  0.00  0.00    -0.077 C 
ATOM      6  C   UNL     1      35.324 -16.581 -21.742  0.00  0.00    -0.077 C 
ATOM      7  H   UNL     1      36.617 -16.109 -23.235  0.00  0.00    -0.080 HD
ENDROOT
BRANCH   2   9
ATOM      8  O   UNL     1      33.618 -19.430 -22.547  0.00  0.00    -0.291 OA
ATOM      9  C   UNL     1      34.604 -19.666 -21.853  0.00  0.00    +0.172 C 
BRANCH   9  11
ATOM     10  F   UNL     1      34.208 -23.183 -17.534  0.00  0.00    -0.204 F 
ATOM     11  C   UNL     1      34.498 -20.604 -20.700  0.00  0.00    +0.035 C 
ATOM     12  C   UNL     1      33.248 -20.913 -20.210  0.00  0.00    +0.005 C 
ATOM     13  C   UNL     1      35.654 -21.130 -20.167  0.00  0.00    +0.005 C 
ATOM     14  C   UNL     1      33.149 -21.792 -19.131  0.00  0.00    +0.030 C 
ATOM     15  C   UNL     1      35.555 -22.008 -19.088  0.00  0.00    +0.030 C 
ATOM     16  C   UNL     1      34.303 -22.339 -18.570  0.00  0.00    +0.140 C 
ENDBRANCH   9  11
ENDBRANCH   2   9
BRANCH   1  17
ATOM     17  C   UNL     1      34.898 -15.073 -23.570  0.00  0.00    -0.052 C 
BRANCH  17  18
ATOM     18  C   UNL     1      33.439 -15.152 -23.148  0.00  0.00    +0.091 C 
BRANCH  18  21
ATOM     19  O   UNL     1      33.510 -12.721 -24.480  0.00  0.00    -0.267 OA
ATOM     20  O   UNL     1      32.432 -14.981 -20.531  0.00  0.00    -0.246 OA
ATOM     21  N   UNL     1      33.006 -13.924 -22.539  0.00  0.00    -0.251 N 
ATOM     22  N   UNL     1      32.113 -12.732 -20.679  0.00  0.00    -0.306 N 
ATOM     23  C   UNL     1      33.094 -12.747 -23.324  0.00  0.00    +0.265 A 
ATOM     24  C   UNL     1      32.512 -13.950 -21.205  0.00  0.00    +0.330 A 
ATOM     25  C   UNL     1      32.647 -11.492 -22.687  0.00  0.00    +0.072 A 
ATOM     26  C   UNL     1      32.170 -11.525 -21.380  0.00  0.00    +0.065 A 
ATOM     27  C   UNL     1      32.701 -10.281 -23.383  0.00  0.00    +0.006 C 
ATOM     28  C   UNL     1      31.744 -10.347 -20.759  0.00  0.00    +0.017 C 
ATOM     29  C   UNL     1      32.276  -9.105 -22.762  0.00  0.00    +0.000 C 
ATOM     30  C   UNL     1      31.797  -9.139 -21.453  0.00  0.00    +0.001 C 
ATOM     31  H   UNL     1      31.768 -12.717 -19.757  0.00  0.00    +0.170 HD
ENDBRANCH  18  21
ENDBRANCH  17  18
ENDBRANCH   1  17
TORSDOF 5
ENDMDL
MODEL 6
REMARK VINA RESULT:     -12.5      4.948     10.786
REMARK  Name = 3822
REMARK  5 active torsions:
REMARK  status: ('A' for Active; 'I' for Inactive)
REMARK    1  A    between atoms: N_1  and  C_17
REMARK    2  A    between atoms: C_2  and  C_9
REMARK    3  A    between atoms: C_9  and  C_11
REMARK    4  A    between atoms: C_17  and  C_18
REMARK    5  A    between atoms: C_18  and  N_21
REMARK                            x       y       z     vdW  Elec       q    Type
REMARK                         _______ _______ _______ _____ _____    ______ ____
ROOT
ATOM      1  N   UNL     1      33.931 -14.786 -21.961  0.00  0.00    +0.388 N 
ATOM      2  C   UNL     1      35.601 -17.147 -22.469  0.00  0.00    +0.058 C 
ATOM      3  C   UNL     1      35.319 -16.095 -23.541  0.00  0.00    -0.015 C 
ATOM      4  C   UNL     1      35.361 -16.595 -21.065  0.00  0.00    -0.015 C 
ATOM      5  C   UNL     1      34.001 -15.350 -23.315  0.00  0.00    -0.077 C 
ATOM      6  C   UNL     1      34.033 -15.842 -20.947  0.00  0.00    -0.077 C 
ATOM      7  H   UNL     1      34.722 -14.152 -21.840  0.00  0.00    -0.080 HD
ENDROOT
BRANCH   2   9
ATOM      8  O   UNL     1      34.124 -18.529 -23.720  0.00  0.00    -0.291 OA
ATOM      9  C   UNL     1      34.777 -18.382 -22.690  0.00  0.00    +0.172 C 
BRANCH   9  11
ATOM     10  F   UNL     1      34.713 -22.339 -18.751  0.00  0.00    -0.204 F 
ATOM     11  C   UNL     1      34.759 -19.438 -21.638  0.00  0.00    +0.035 C 
ATOM     12  C   UNL     1      33.545 -19.868 -21.152  0.00  0.00    +0.005 C 
ATOM     13  C   UNL     1      35.960 -19.947 -21.193  0.00  0.00    +0.005 C 
ATOM     14  C   UNL     1      33.529 -20.857 -20.168  0.00  0.00    +0.030 C 
ATOM     15  C   UNL     1      35.944 -20.935 -20.209  0.00  0.00    +0.030 C 
ATOM     16  C   UNL     1      34.729 -21.390 -19.696  0.00  0.00    +0.140 C 
ENDBRANCH   9  11
ENDBRANCH   2   9
BRANCH   1  17
ATOM     17  C   UNL     1      32.692 -14.027 -21.786  0.00  0.00    -0.052 C 
BRANCH  17  18
ATOM     18  C   UNL     1      32.349 -13.274 -23.063  0.00  0.00    +0.091 C 
BRANCH  18  21
ATOM     19  O   UNL     1      34.434 -11.979 -24.352  0.00  0.00    -0.267 OA
ATOM     20  O   UNL     1      30.769 -11.577 -21.478  0.00  0.00    -0.246 OA
ATOM     21  N   UNL     1      32.593 -11.865 -22.916  0.00  0.00    -0.251 N 
ATOM     22  N   UNL     1      32.021  -9.745 -21.989  0.00  0.00    -0.306 N 
ATOM     23  C   UNL     1      33.692 -11.321 -23.627  0.00  0.00    +0.265 A 
ATOM     24  C   UNL     1      31.730 -11.097 -22.087  0.00  0.00    +0.330 A 
ATOM     25  C   UNL     1      33.933  -9.874 -23.467  0.00  0.00    +0.072 A 
ATOM     26  C   UNL     1      33.087  -9.129 -22.650  0.00  0.00    +0.065 A 
ATOM     27  C   UNL     1      34.997  -9.251 -24.125  0.00  0.00    +0.006 C 
ATOM     28  C   UNL     1      33.298  -7.758 -22.485  0.00  0.00    +0.017 C 
ATOM     29  C   UNL     1      35.208  -7.880 -23.960  0.00  0.00    +0.000 C 
ATOM     30  C   UNL     1      34.359  -7.136 -23.142  0.00  0.00    +0.001 C 
ATOM     31  H   UNL     1      31.442  -9.187 -21.421  0.00  0.00    +0.170 HD
ENDBRANCH  18  21
ENDBRANCH  17  18
ENDBRANCH   1  17
TORSDOF 5
ENDMDL
MODEL 7
REMARK VINA RESULT:     -12.4      6.001      9.487
REMARK  Name = 3822
REMARK  5 active torsions:
REMARK  status: ('A' for Active; 'I' for Inactive)
REMARK    1  A    between atoms: N_1  and  C_17
REMARK    2  A    between atoms: C_2  and  C_9
REMARK    3  A    between atoms: C_9  and  C_11
REMARK    4  A    between atoms: C_17  and  C_18
REMARK    5  A    between atoms: C_18  and  N_21
REMARK                            x       y       z     vdW  Elec       q    Type
REMARK                         _______ _______ _______ _____ _____    ______ ____
ROOT
ATOM      1  N   UNL     1      31.704 -11.807 -21.492  0.00  0.00    +0.388 N 
ATOM      2  C   UNL     1      31.468  -8.880 -21.476  0.00  0.00    +0.058 C 
ATOM      3  C   UNL     1      31.404  -9.701 -22.763  0.00  0.00    -0.015 C 
ATOM      4  C   UNL     1      31.166  -9.737 -20.248  0.00  0.00    -0.015 C 
ATOM      5  C   UNL     1      32.150 -11.034 -22.658  0.00  0.00    -0.077 C 
ATOM      6  C   UNL     1      31.936 -11.061 -20.249  0.00  0.00    -0.077 C 
ATOM      7  H   UNL     1      30.701 -11.968 -21.583  0.00  0.00    -0.080 HD
ENDROOT
BRANCH   2   9
ATOM      8  O   UNL     1      33.386  -8.201 -20.245  0.00  0.00    -0.291 OA
ATOM      9  C   UNL     1      32.802  -8.208 -21.326  0.00  0.00    +0.172 C 
BRANCH   9  11
ATOM     10  F   UNL     1      35.105  -5.724 -25.765  0.00  0.00    -0.204 F 
ATOM     11  C   UNL     1      33.416  -7.545 -22.511  0.00  0.00    +0.035 C 
ATOM     12  C   UNL     1      32.680  -6.608 -23.200  0.00  0.00    +0.005 C 
ATOM     13  C   UNL     1      34.699  -7.894 -22.872  0.00  0.00    +0.005 C 
ATOM     14  C   UNL     1      33.256  -5.987 -24.309  0.00  0.00    +0.030 C 
ATOM     15  C   UNL     1      35.274  -7.274 -23.981  0.00  0.00    +0.030 C 
ATOM     16  C   UNL     1      34.553  -6.320 -24.700  0.00  0.00    +0.140 C 
ENDBRANCH   9  11
ENDBRANCH   2   9
BRANCH   1  17
ATOM     17  C   UNL     1      32.385 -13.102 -21.445  0.00  0.00    -0.052 C 
BRANCH  17  18
ATOM     18  C   UNL     1      33.441 -13.182 -22.537  0.00  0.00    +0.091 C 
BRANCH  18  21
ATOM     19  O   UNL     1      33.244 -14.707 -24.844  0.00  0.00    -0.267 OA
ATOM     20  O   UNL     1      34.813 -14.461 -20.447  0.00  0.00    -0.246 OA
ATOM     21  N   UNL     1      33.987 -14.508 -22.636  0.00  0.00    -0.251 N 
ATOM     22  N   UNL     1      35.166 -16.344 -21.677  0.00  0.00    -0.306 N 
ATOM     23  C   UNL     1      33.819 -15.186 -23.869  0.00  0.00    +0.265 A 
ATOM     24  C   UNL     1      34.665 -15.062 -21.515  0.00  0.00    +0.330 A 
ATOM     25  C   UNL     1      34.383 -16.547 -23.958  0.00  0.00    +0.072 A 
ATOM     26  C   UNL     1      35.041 -17.085 -22.855  0.00  0.00    +0.065 A 
ATOM     27  C   UNL     1      34.262 -17.294 -25.133  0.00  0.00    +0.006 C 
ATOM     28  C   UNL     1      35.581 -18.372 -22.918  0.00  0.00    +0.017 C 
ATOM     29  C   UNL     1      34.801 -18.581 -25.196  0.00  0.00    +0.000 C 
ATOM     30  C   UNL     1      35.460 -19.118 -24.091  0.00  0.00    +0.001 C 
ATOM     31  H   UNL     1      35.639 -16.755 -20.918  0.00  0.00    +0.170 HD
ENDBRANCH  18  21
ENDBRANCH  17  18
ENDBRANCH   1  17
TORSDOF 5
ENDMDL
MODEL 8
REMARK VINA RESULT:     -12.4      1.092      1.365
REMARK  Name = 3822
REMARK  5 active torsions:
REMARK  status: ('A' for Active; 'I' for Inactive)
REMARK    1  A    between atoms: N_1  and  C_17
REMARK    2  A    between atoms: C_2  and  C_9
REMARK    3  A    between atoms: C_9  and  C_11
REMARK    4  A    between atoms: C_17  and  C_18
REMARK    5  A    between atoms: C_18  and  N_21
REMARK                            x       y       z     vdW  Elec       q    Type
REMARK                         _______ _______ _______ _____ _____    ______ ____
ROOT
ATOM      1  N   UNL     1      35.203 -19.974 -21.520  0.00  0.00    +0.388 N 
ATOM      2  C   UNL     1      35.679 -17.855 -23.498  0.00  0.00    +0.058 C 
ATOM      3  C   UNL     1      36.761 -18.332 -22.529  0.00  0.00    -0.015 C 
ATOM      4  C   UNL     1      34.569 -18.893 -23.654  0.00  0.00    -0.015 C 
ATOM      5  C   UNL     1      36.188 -18.921 -21.237  0.00  0.00    -0.077 C 
ATOM      6  C   UNL     1      34.085 -19.446 -22.310  0.00  0.00    -0.077 C 
ATOM      7  H   UNL     1      35.664 -20.700 -22.069  0.00  0.00    -0.080 HD
ENDROOT
BRANCH   2   9
ATOM      8  O   UNL     1      35.112 -16.206 -21.880  0.00  0.00    -0.291 OA
ATOM      9  C   UNL     1      35.101 -16.539 -23.062  0.00  0.00    +0.172 C 
BRANCH   9  11
ATOM     10  F   UNL     1      32.885 -13.144 -26.902  0.00  0.00    -0.204 F 
ATOM     11  C   UNL     1      34.510 -15.633 -24.088  0.00  0.00    +0.035 C 
ATOM     12  C   UNL     1      34.097 -16.170 -25.286  0.00  0.00    +0.005 C 
ATOM     13  C   UNL     1      34.397 -14.291 -23.797  0.00  0.00    +0.005 C 
ATOM     14  C   UNL     1      33.543 -15.322 -26.245  0.00  0.00    +0.030 C 
ATOM     15  C   UNL     1      33.843 -13.443 -24.756  0.00  0.00    +0.030 C 
ATOM     16  C   UNL     1      33.417 -13.958 -25.980  0.00  0.00    +0.140 C 
ENDBRANCH   9  11
ENDBRANCH   2   9
BRANCH   1  17
ATOM     17  C   UNL     1      34.715 -20.565 -20.274  0.00  0.00    -0.052 C 
BRANCH  17  18
ATOM     18  C   UNL     1      35.641 -21.684 -19.822  0.00  0.00    +0.091 C 
BRANCH  18  21
ATOM     19  O   UNL     1      37.232 -21.821 -17.556  0.00  0.00    -0.267 OA
ATOM     20  O   UNL     1      33.077 -22.776 -19.474  0.00  0.00    -0.246 OA
ATOM     21  N   UNL     1      35.185 -22.272 -18.592  0.00  0.00    -0.251 N 
ATOM     22  N   UNL     1      33.490 -23.351 -17.311  0.00  0.00    -0.306 N 
ATOM     23  C   UNL     1      36.095 -22.284 -17.505  0.00  0.00    +0.265 A 
ATOM     24  C   UNL     1      33.865 -22.798 -18.525  0.00  0.00    +0.330 A 
ATOM     25  C   UNL     1      35.615 -22.892 -16.248  0.00  0.00    +0.072 A 
ATOM     26  C   UNL     1      34.324 -23.409 -16.191  0.00  0.00    +0.065 A 
ATOM     27  C   UNL     1      36.444 -22.953 -15.124  0.00  0.00    +0.006 C 
ATOM     28  C   UNL     1      33.852 -23.989 -15.011  0.00  0.00    +0.017 C 
ATOM     29  C   UNL     1      35.972 -23.533 -13.945  0.00  0.00    +0.000 C 
ATOM     30  C   UNL     1      34.678 -24.050 -13.889  0.00  0.00    +0.001 C 
ATOM     31  H   UNL     1      32.583 -23.725 -17.233  0.00  0.00    +0.170 HD
ENDBRANCH  18  21
ENDBRANCH  17  18
ENDBRANCH   1  17
TORSDOF 5
ENDMDL
MODEL 9
REMARK VINA RESULT:     -12.2      3.135      5.647
REMARK  Name = 3822
REMARK  5 active torsions:
REMARK  status: ('A' for Active; 'I' for Inactive)
REMARK    1  A    between atoms: N_1  and  C_17
REMARK    2  A    between atoms: C_2  and  C_9
REMARK    3  A    between atoms: C_9  and  C_11
REMARK    4  A    between atoms: C_17  and  C_18
REMARK    5  A    between atoms: C_18  and  N_21
REMARK                            x       y       z     vdW  Elec       q    Type
REMARK                         _______ _______ _______ _____ _____    ______ ____
ROOT
ATOM      1  N   UNL     1      34.460 -15.935 -22.803  0.00  0.00    +0.388 N 
ATOM      2  C   UNL     1      32.693 -13.715 -23.560  0.00  0.00    +0.058 C 
ATOM      3  C   UNL     1      33.187 -14.751 -24.569  0.00  0.00    -0.015 C 
ATOM      4  C   UNL     1      32.795 -14.235 -22.127  0.00  0.00    -0.015 C 
ATOM      5  C   UNL     1      34.519 -15.389 -24.166  0.00  0.00    -0.077 C 
ATOM      6  C   UNL     1      34.151 -14.882 -21.829  0.00  0.00    -0.077 C 
ATOM      7  H   UNL     1      33.711 -16.627 -22.771  0.00  0.00    -0.080 HD
ENDROOT
BRANCH   2   9
ATOM      8  O   UNL     1      34.481 -12.361 -24.350  0.00  0.00    -0.291 OA
ATOM      9  C   UNL     1      33.442 -12.421 -23.698  0.00  0.00    +0.172 C 
BRANCH   9  11
ATOM     10  F   UNL     1      31.438  -7.849 -21.197  0.00  0.00    -0.204 F 
ATOM     11  C   UNL     1      32.908 -11.201 -23.031  0.00  0.00    +0.035 C 
ATOM     12  C   UNL     1      33.401  -9.971 -23.406  0.00  0.00    +0.005 C 
ATOM     13  C   UNL     1      31.938 -11.348 -22.063  0.00  0.00    +0.005 C 
ATOM     14  C   UNL     1      32.901  -8.829 -22.781  0.00  0.00    +0.030 C 
ATOM     15  C   UNL     1      31.437 -10.205 -21.438  0.00  0.00    +0.030 C 
ATOM     16  C   UNL     1      31.918  -8.946 -21.797  0.00  0.00    +0.140 C 
ENDBRANCH   9  11
ENDBRANCH   2   9
BRANCH   1  17
ATOM     17  C   UNL     1      35.721 -16.594 -22.461  0.00  0.00    -0.052 C 
BRANCH  17  18
ATOM     18  C   UNL     1      35.738 -18.016 -23.002  0.00  0.00    +0.091 C 
BRANCH  18  21
ATOM     19  O   UNL     1      33.502 -19.407 -22.137  0.00  0.00    -0.267 OA
ATOM     20  O   UNL     1      38.091 -18.678 -21.617  0.00  0.00    -0.246 OA
ATOM     21  N   UNL     1      35.791 -18.977 -21.935  0.00  0.00    -0.251 N 
ATOM     22  N   UNL     1      37.018 -20.174 -20.279  0.00  0.00    -0.306 N 
ATOM     23  C   UNL     1      34.578 -19.621 -21.584  0.00  0.00    +0.265 A 
ATOM     24  C   UNL     1      37.037 -19.237 -21.300  0.00  0.00    +0.330 A 
ATOM     25  C   UNL     1      34.646 -20.605 -20.486  0.00  0.00    +0.072 A 
ATOM     26  C   UNL     1      35.867 -20.851 -19.866  0.00  0.00    +0.065 A 
ATOM     27  C   UNL     1      33.499 -21.286 -20.067  0.00  0.00    +0.006 C 
ATOM     28  C   UNL     1      35.951 -21.778 -18.823  0.00  0.00    +0.017 C 
ATOM     29  C   UNL     1      33.583 -22.212 -19.026  0.00  0.00    +0.000 C 
ATOM     30  C   UNL     1      34.808 -22.458 -18.406  0.00  0.00    +0.001 C 
ATOM     31  H   UNL     1      37.865 -20.375 -19.818  0.00  0.00    +0.170 HD
ENDBRANCH  18  21
ENDBRANCH  17  18
ENDBRANCH   1  17
TORSDOF 5
ENDMDL
