MODEL 1
REMARK VINA RESULT:     -13.2      0.000      0.000
REMARK  Name = 23650961
REMARK  5 active torsions:
REMARK  status: ('A' for Active; 'I' for Inactive)
REMARK    1  A    between atoms: N_1  and  C_23
REMARK    2  A    between atoms: C_5  and  C_12
REMARK    3  A    between atoms: C_23  and  C_24
REMARK    4  A    between atoms: C_24  and  C_25
REMARK    5  A    between atoms: C_25  and  C_27
REMARK                            x       y       z     vdW  Elec       q    Type
REMARK                         _______ _______ _______ _____ _____    ______ ____
ROOT
ATOM      1  N   UNL     1      34.786 -18.285 -25.188  0.00  0.00    -0.268 N 
ATOM      2  N   UNL     1      33.786 -16.232 -25.729  0.00  0.00    -0.342 NA
ATOM      3  N   UNL     1      34.946 -16.531 -23.638  0.00  0.00    -0.170 NA
ATOM      4  C   UNL     1      34.497 -16.974 -24.840  0.00  0.00    +0.144 C 
ATOM      5  C   UNL     1      33.931 -14.411 -24.160  0.00  0.00    +0.061 C 
ATOM      6  C   UNL     1      33.522 -14.962 -25.358  0.00  0.00    +0.123 C 
ATOM      7  C   UNL     1      34.646 -15.252 -23.331  0.00  0.00    +0.113 C 
ATOM      8  C   UNL     1      32.740 -14.155 -26.344  0.00  0.00    +0.067 C 
ATOM      9  H   UNL     1      34.465 -18.615 -26.058  0.00  0.00    +0.159 HD
ENDROOT
BRANCH   5  12
ATOM     10  N   UNL     1      34.396 -11.999 -24.212  0.00  0.00    -0.314 N 
ATOM     11  N   UNL     1      32.664 -12.663 -22.988  0.00  0.00    -0.315 N 
ATOM     12  C   UNL     1      33.643 -13.056 -23.774  0.00  0.00    +0.171 C 
ATOM     13  C   UNL     1      33.869 -10.854 -23.672  0.00  0.00    +0.059 C 
ATOM     14  C   UNL     1      32.788 -11.294 -22.913  0.00  0.00    +0.055 C 
ATOM     15  C   UNL     1      32.014 -10.354 -22.213  0.00  0.00    -0.008 C 
ATOM     16  C   UNL     1      34.233  -9.511 -23.780  0.00  0.00    +0.011 C 
ATOM     17  C   UNL     1      33.452  -8.588 -23.077  0.00  0.00    -0.021 C 
ATOM     18  C   UNL     1      32.362  -8.999 -22.307  0.00  0.00    -0.007 C 
ATOM     19  C   UNL     1      30.840 -10.743 -21.375  0.00  0.00    +0.032 C 
ATOM     20  C   UNL     1      33.790  -7.136 -23.154  0.00  0.00    +0.031 C 
ATOM     21  H   UNL     1      35.177 -12.052 -24.808  0.00  0.00    +0.149 HD
ATOM     22  H   UNL     1      31.987 -13.227 -22.547  0.00  0.00    +0.149 HD
ENDBRANCH   5  12
BRANCH   1  23
ATOM     23  C   UNL     1      35.530 -19.191 -24.348  0.00  0.00    +0.098 C 
BRANCH  23  24
ATOM     24  C   UNL     1      34.827 -19.389 -23.008  0.00  0.00    +0.022 C 
BRANCH  24  25
ATOM     25  C   UNL     1      35.798 -19.353 -21.827  0.00  0.00    +0.002 C 
BRANCH  25  27
ATOM     26  N   UNL     1      33.978 -22.350 -19.304  0.00  0.00    +0.385 N 
ATOM     27  C   UNL     1      35.190 -20.012 -20.591  0.00  0.00    -0.004 C 
ATOM     28  C   UNL     1      36.012 -21.229 -20.155  0.00  0.00    -0.023 C 
ATOM     29  C   UNL     1      33.739 -20.432 -20.848  0.00  0.00    -0.023 C 
ATOM     30  C   UNL     1      35.355 -21.953 -18.980  0.00  0.00    -0.077 C 
ATOM     31  C   UNL     1      33.157 -21.182 -19.649  0.00  0.00    -0.077 C 
ATOM     32  C   UNL     1      33.380 -23.086 -18.190  0.00  0.00    -0.101 C 
ATOM     33  H   UNL     1      34.012 -22.963 -20.120  0.00  0.00    -0.080 HD
ENDBRANCH  25  27
ENDBRANCH  24  25
ENDBRANCH  23  24
ENDBRANCH   1  23
TORSDOF 5
ENDMDL
MODEL 2
REMARK VINA RESULT:     -12.6      2.167      3.898
REMARK  Name = 23650961
REMARK  5 active torsions:
REMARK  status: ('A' for Active; 'I' for Inactive)
REMARK    1  A    between atoms: N_1  and  C_23
REMARK    2  A    between atoms: C_5  and  C_12
REMARK    3  A    between atoms: C_23  and  C_24
REMARK    4  A    between atoms: C_24  and  C_25
REMARK    5  A    between atoms: C_25  and  C_27
REMARK                            x       y       z     vdW  Elec       q    Type
REMARK                         _______ _______ _______ _____ _____    ______ ____
ROOT
ATOM      1  N   UNL     1      33.464 -14.906 -23.346  0.00  0.00    -0.268 N 
ATOM      2  N   UNL     1      32.305 -13.168 -22.278  0.00  0.00    -0.342 NA
ATOM      3  N   UNL     1      33.884 -12.704 -24.038  0.00  0.00    -0.170 NA
ATOM      4  C   UNL     1      33.209 -13.550 -23.217  0.00  0.00    +0.144 C 
ATOM      5  C   UNL     1      32.712 -10.896 -22.963  0.00  0.00    +0.061 C 
ATOM      6  C   UNL     1      32.082 -11.841 -22.179  0.00  0.00    +0.123 C 
ATOM      7  C   UNL     1      33.613 -11.391 -23.885  0.00  0.00    +0.113 C 
ATOM      8  C   UNL     1      31.085 -11.434 -21.143  0.00  0.00    +0.067 C 
ATOM      9  H   UNL     1      32.980 -15.527 -22.755  0.00  0.00    +0.159 HD
ENDROOT
BRANCH   5  12
ATOM     10  N   UNL     1      32.106  -8.718 -23.925  0.00  0.00    -0.314 N 
ATOM     11  N   UNL     1      32.552  -8.767 -21.748  0.00  0.00    -0.315 N 
ATOM     12  C   UNL     1      32.468  -9.483 -22.849  0.00  0.00    +0.171 C 
ATOM     13  C   UNL     1      31.949  -7.427 -23.489  0.00  0.00    +0.059 C 
ATOM     14  C   UNL     1      32.231  -7.483 -22.127  0.00  0.00    +0.055 C 
ATOM     15  C   UNL     1      32.161  -6.306 -21.363  0.00  0.00    -0.008 C 
ATOM     16  C   UNL     1      31.592  -6.250 -24.150  0.00  0.00    +0.011 C 
ATOM     17  C   UNL     1      31.527  -5.088 -23.375  0.00  0.00    -0.021 C 
ATOM     18  C   UNL     1      31.806  -5.113 -22.006  0.00  0.00    -0.007 C 
ATOM     19  C   UNL     1      32.450  -6.281 -19.898  0.00  0.00    +0.032 C 
ATOM     20  C   UNL     1      31.151  -3.796 -24.024  0.00  0.00    +0.031 C 
ATOM     21  H   UNL     1      31.982  -9.037 -24.847  0.00  0.00    +0.149 HD
ATOM     22  H   UNL     1      32.792  -9.081 -20.846  0.00  0.00    +0.149 HD
ENDBRANCH   5  12
BRANCH   1  23
ATOM     23  C   UNL     1      34.397 -15.459 -24.297  0.00  0.00    +0.098 C 
BRANCH  23  24
ATOM     24  C   UNL     1      35.442 -16.320 -23.593  0.00  0.00    +0.022 C 
BRANCH  24  25
ATOM     25  C   UNL     1      35.058 -17.800 -23.566  0.00  0.00    +0.002 C 
BRANCH  25  27
ATOM     26  N   UNL     1      36.238 -20.640 -20.534  0.00  0.00    +0.385 N 
ATOM     27  C   UNL     1      35.301 -18.409 -22.187  0.00  0.00    -0.004 C 
ATOM     28  C   UNL     1      36.789 -18.704 -21.970  0.00  0.00    -0.023 C 
ATOM     29  C   UNL     1      34.487 -19.694 -22.001  0.00  0.00    -0.023 C 
ATOM     30  C   UNL     1      37.028 -19.406 -20.633  0.00  0.00    -0.077 C 
ATOM     31  C   UNL     1      34.802 -20.363 -20.662  0.00  0.00    -0.077 C 
ATOM     32  C   UNL     1      36.516 -21.327 -19.272  0.00  0.00    -0.101 C 
ATOM     33  H   UNL     1      36.511 -21.251 -21.305  0.00  0.00    -0.080 HD
ENDBRANCH  25  27
ENDBRANCH  24  25
ENDBRANCH  23  24
ENDBRANCH   1  23
TORSDOF 5
ENDMDL
MODEL 3
REMARK VINA RESULT:     -12.6      4.002     12.426
REMARK  Name = 23650961
REMARK  5 active torsions:
REMARK  status: ('A' for Active; 'I' for Inactive)
REMARK    1  A    between atoms: N_1  and  C_23
REMARK    2  A    between atoms: C_5  and  C_12
REMARK    3  A    between atoms: C_23  and  C_24
REMARK    4  A    between atoms: C_24  and  C_25
REMARK    5  A    between atoms: C_25  and  C_27
REMARK                            x       y       z     vdW  Elec       q    Type
REMARK                         _______ _______ _______ _____ _____    ______ ____
ROOT
ATOM      1  N   UNL     1      35.133 -20.670 -20.909  0.00  0.00    -0.268 N 
ATOM      2  N   UNL     1      34.445 -22.071 -19.156  0.00  0.00    -0.342 NA
ATOM      3  N   UNL     1      36.592 -20.979 -19.097  0.00  0.00    -0.170 NA
ATOM      4  C   UNL     1      35.399 -21.258 -19.682  0.00  0.00    +0.144 C 
ATOM      5  C   UNL     1      35.918 -22.411 -17.282  0.00  0.00    +0.061 C 
ATOM      6  C   UNL     1      34.736 -22.627 -17.962  0.00  0.00    +0.123 C 
ATOM      7  C   UNL     1      36.818 -21.569 -17.904  0.00  0.00    +0.113 C 
ATOM      8  C   UNL     1      33.680 -23.519 -17.395  0.00  0.00    +0.067 C 
ATOM      9  H   UNL     1      34.271 -20.866 -21.340  0.00  0.00    +0.159 HD
ENDROOT
BRANCH   5  12
ATOM     10  N   UNL     1      35.436 -22.804 -14.905  0.00  0.00    -0.314 N 
ATOM     11  N   UNL     1      37.237 -23.801 -15.745  0.00  0.00    -0.315 N 
ATOM     12  C   UNL     1      36.219 -23.009 -16.010  0.00  0.00    +0.171 C 
ATOM     13  C   UNL     1      35.986 -23.506 -13.863  0.00  0.00    +0.059 C 
ATOM     14  C   UNL     1      37.108 -24.120 -14.412  0.00  0.00    +0.055 C 
ATOM     15  C   UNL     1      37.913 -24.932 -13.596  0.00  0.00    -0.008 C 
ATOM     16  C   UNL     1      35.608 -23.652 -12.527  0.00  0.00    +0.011 C 
ATOM     17  C   UNL     1      36.421 -24.463 -11.729  0.00  0.00    -0.021 C 
ATOM     18  C   UNL     1      37.553 -25.093 -12.251  0.00  0.00    -0.007 C 
ATOM     19  C   UNL     1      39.133 -25.625 -14.107  0.00  0.00    +0.032 C 
ATOM     20  C   UNL     1      36.069 -24.661 -10.291  0.00  0.00    +0.031 C 
ATOM     21  H   UNL     1      34.624 -22.250 -14.866  0.00  0.00    +0.149 HD
ATOM     22  H   UNL     1      37.940 -24.100 -16.366  0.00  0.00    +0.149 HD
ENDBRANCH   5  12
BRANCH   1  23
ATOM     23  C   UNL     1      36.049 -19.786 -21.588  0.00  0.00    +0.098 C 
BRANCH  23  24
ATOM     24  C   UNL     1      35.294 -18.810 -22.486  0.00  0.00    +0.022 C 
BRANCH  24  25
ATOM     25  C   UNL     1      35.435 -17.360 -22.022  0.00  0.00    +0.002 C 
BRANCH  25  27
ATOM     26  N   UNL     1      33.452 -14.969 -25.023  0.00  0.00    +0.385 N 
ATOM     27  C   UNL     1      35.238 -16.387 -23.182  0.00  0.00    -0.004 C 
ATOM     28  C   UNL     1      34.403 -15.177 -22.749  0.00  0.00    -0.023 C 
ATOM     29  C   UNL     1      34.569 -17.078 -24.374  0.00  0.00    -0.023 C 
ATOM     30  C   UNL     1      34.117 -14.248 -23.929  0.00  0.00    -0.077 C 
ATOM     31  C   UNL     1      34.278 -16.086 -25.501  0.00  0.00    -0.077 C 
ATOM     32  C   UNL     1      33.138 -14.057 -26.123  0.00  0.00    -0.101 C 
ATOM     33  H   UNL     1      32.580 -15.355 -24.660  0.00  0.00    -0.080 HD
ENDBRANCH  25  27
ENDBRANCH  24  25
ENDBRANCH  23  24
ENDBRANCH   1  23
TORSDOF 5
ENDMDL
MODEL 4
REMARK VINA RESULT:     -12.5      0.921      2.040
REMARK  Name = 23650961
REMARK  5 active torsions:
REMARK  status: ('A' for Active; 'I' for Inactive)
REMARK    1  A    between atoms: N_1  and  C_23
REMARK    2  A    between atoms: C_5  and  C_12
REMARK    3  A    between atoms: C_23  and  C_24
REMARK    4  A    between atoms: C_24  and  C_25
REMARK    5  A    between atoms: C_25  and  C_27
REMARK                            x       y       z     vdW  Elec       q    Type
REMARK                         _______ _______ _______ _____ _____    ______ ____
ROOT
ATOM      1  N   UNL     1      34.200 -17.726 -25.394  0.00  0.00    -0.268 N 
ATOM      2  N   UNL     1      33.958 -15.485 -26.047  0.00  0.00    -0.342 NA
ATOM      3  N   UNL     1      33.999 -16.097 -23.717  0.00  0.00    -0.170 NA
ATOM      4  C   UNL     1      34.048 -16.394 -25.041  0.00  0.00    +0.144 C 
ATOM      5  C   UNL     1      33.748 -13.788 -24.352  0.00  0.00    +0.061 C 
ATOM      6  C   UNL     1      33.809 -14.199 -25.669  0.00  0.00    +0.123 C 
ATOM      7  C   UNL     1      33.849 -14.792 -23.410  0.00  0.00    +0.113 C 
ATOM      8  C   UNL     1      33.712 -13.209 -26.784  0.00  0.00    +0.067 C 
ATOM      9  H   UNL     1      34.237 -17.951 -26.351  0.00  0.00    +0.159 HD
ENDROOT
BRANCH   5  12
ATOM     10  N   UNL     1      32.518 -11.988 -23.219  0.00  0.00    -0.314 N 
ATOM     11  N   UNL     1      34.410 -11.425 -24.242  0.00  0.00    -0.315 N 
ATOM     12  C   UNL     1      33.588 -12.414 -23.960  0.00  0.00    +0.171 C 
ATOM     13  C   UNL     1      32.659 -10.640 -23.013  0.00  0.00    +0.059 C 
ATOM     14  C   UNL     1      33.847 -10.312 -23.660  0.00  0.00    +0.055 C 
ATOM     15  C   UNL     1      34.293  -8.979 -23.641  0.00  0.00    -0.008 C 
ATOM     16  C   UNL     1      31.873  -9.706 -22.335  0.00  0.00    +0.011 C 
ATOM     17  C   UNL     1      32.330  -8.385 -22.327  0.00  0.00    -0.021 C 
ATOM     18  C   UNL     1      33.518  -8.025 -22.967  0.00  0.00    -0.007 C 
ATOM     19  C   UNL     1      35.555  -8.545 -24.311  0.00  0.00    +0.032 C 
ATOM     20  C   UNL     1      31.534  -7.340 -21.617  0.00  0.00    +0.031 C 
ATOM     21  H   UNL     1      31.779 -12.550 -22.894  0.00  0.00    +0.149 HD
ATOM     22  H   UNL     1      35.247 -11.471 -24.758  0.00  0.00    +0.149 HD
ENDBRANCH   5  12
BRANCH   1  23
ATOM     23  C   UNL     1      34.309 -18.801 -24.437  0.00  0.00    +0.098 C 
BRANCH  23  24
ATOM     24  C   UNL     1      35.693 -18.816 -23.795  0.00  0.00    +0.022 C 
BRANCH  24  25
ATOM     25  C   UNL     1      35.633 -18.686 -22.273  0.00  0.00    +0.002 C 
BRANCH  25  27
ATOM     26  N   UNL     1      34.437 -21.515 -19.236  0.00  0.00    +0.385 N 
ATOM     27  C   UNL     1      35.228 -20.006 -21.621  0.00  0.00    -0.004 C 
ATOM     28  C   UNL     1      33.822 -19.913 -21.018  0.00  0.00    -0.023 C 
ATOM     29  C   UNL     1      36.230 -20.416 -20.538  0.00  0.00    -0.023 C 
ATOM     30  C   UNL     1      33.449 -21.197 -20.276  0.00  0.00    -0.077 C 
ATOM     31  C   UNL     1      35.777 -21.684 -19.812  0.00  0.00    -0.077 C 
ATOM     32  C   UNL     1      34.040 -22.716 -18.502  0.00  0.00    -0.101 C 
ATOM     33  H   UNL     1      34.471 -20.730 -18.585  0.00  0.00    -0.080 HD
ENDBRANCH  25  27
ENDBRANCH  24  25
ENDBRANCH  23  24
ENDBRANCH   1  23
TORSDOF 5
ENDMDL
MODEL 5
REMARK VINA RESULT:     -12.4      1.540      3.186
REMARK  Name = 23650961
REMARK  5 active torsions:
REMARK  status: ('A' for Active; 'I' for Inactive)
REMARK    1  A    between atoms: N_1  and  C_23
REMARK    2  A    between atoms: C_5  and  C_12
REMARK    3  A    between atoms: C_23  and  C_24
REMARK    4  A    between atoms: C_24  and  C_25
REMARK    5  A    between atoms: C_25  and  C_27
REMARK                            x       y       z     vdW  Elec       q    Type
REMARK                         _______ _______ _______ _____ _____    ______ ____
ROOT
ATOM      1  N   UNL     1      33.950 -16.173 -23.577  0.00  0.00    -0.268 N 
ATOM      2  N   UNL     1      33.059 -14.330 -22.430  0.00  0.00    -0.342 NA
ATOM      3  N   UNL     1      34.261 -14.037 -24.497  0.00  0.00    -0.170 NA
ATOM      4  C   UNL     1      33.750 -14.803 -23.499  0.00  0.00    +0.144 C 
ATOM      5  C   UNL     1      33.361 -12.124 -23.346  0.00  0.00    +0.061 C 
ATOM      6  C   UNL     1      32.884 -12.993 -22.385  0.00  0.00    +0.123 C 
ATOM      7  C   UNL     1      34.049 -12.709 -24.390  0.00  0.00    +0.113 C 
ATOM      8  C   UNL     1      32.122 -12.485 -21.204  0.00  0.00    +0.067 C 
ATOM      9  H   UNL     1      33.583 -16.737 -22.858  0.00  0.00    +0.159 HD
ENDROOT
BRANCH   5  12
ATOM     10  N   UNL     1      31.988 -10.140 -22.881  0.00  0.00    -0.314 N 
ATOM     11  N   UNL     1      34.060  -9.783 -23.602  0.00  0.00    -0.315 N 
ATOM     12  C   UNL     1      33.169 -10.700 -23.288  0.00  0.00    +0.171 C 
ATOM     13  C   UNL     1      32.126  -8.777 -22.937  0.00  0.00    +0.059 C 
ATOM     14  C   UNL     1      33.428  -8.579 -23.389  0.00  0.00    +0.055 C 
ATOM     15  C   UNL     1      33.901  -7.267 -23.560  0.00  0.00    -0.008 C 
ATOM     16  C   UNL     1      31.251  -7.731 -22.639  0.00  0.00    +0.011 C 
ATOM     17  C   UNL     1      31.738  -6.432 -22.815  0.00  0.00    -0.021 C 
ATOM     18  C   UNL     1      33.039  -6.202 -23.267  0.00  0.00    -0.007 C 
ATOM     19  C   UNL     1      35.283  -6.969 -24.042  0.00  0.00    +0.032 C 
ATOM     20  C   UNL     1      30.849  -5.271 -22.512  0.00  0.00    +0.031 C 
ATOM     21  H   UNL     1      31.182 -10.629 -22.598  0.00  0.00    +0.149 HD
ATOM     22  H   UNL     1      34.981  -9.927 -23.920  0.00  0.00    +0.149 HD
ENDBRANCH   5  12
BRANCH   1  23
ATOM     23  C   UNL     1      34.664 -16.819 -24.652  0.00  0.00    +0.098 C 
BRANCH  23  24
ATOM     24  C   UNL     1      35.393 -18.061 -24.149  0.00  0.00    +0.022 C 
BRANCH  24  25
ATOM     25  C   UNL     1      35.753 -17.967 -22.665  0.00  0.00    +0.002 C 
BRANCH  25  27
ATOM     26  N   UNL     1      35.283 -20.923 -19.551  0.00  0.00    +0.385 N 
ATOM     27  C   UNL     1      35.649 -19.329 -21.984  0.00  0.00    -0.004 C 
ATOM     28  C   UNL     1      34.282 -19.508 -21.316  0.00  0.00    -0.023 C 
ATOM     29  C   UNL     1      36.760 -19.511 -20.945  0.00  0.00    -0.023 C 
ATOM     30  C   UNL     1      34.206 -20.828 -20.547  0.00  0.00    -0.077 C 
ATOM     31  C   UNL     1      36.603 -20.831 -20.188  0.00  0.00    -0.077 C 
ATOM     32  C   UNL     1      35.167 -22.166 -18.788  0.00  0.00    -0.101 C 
ATOM     33  H   UNL     1      35.187 -20.135 -18.909  0.00  0.00    -0.080 HD
ENDBRANCH  25  27
ENDBRANCH  24  25
ENDBRANCH  23  24
ENDBRANCH   1  23
TORSDOF 5
ENDMDL
MODEL 6
REMARK VINA RESULT:     -12.4      2.311     10.854
REMARK  Name = 23650961
REMARK  5 active torsions:
REMARK  status: ('A' for Active; 'I' for Inactive)
REMARK    1  A    between atoms: N_1  and  C_23
REMARK    2  A    between atoms: C_5  and  C_12
REMARK    3  A    between atoms: C_23  and  C_24
REMARK    4  A    between atoms: C_24  and  C_25
REMARK    5  A    between atoms: C_25  and  C_27
REMARK                            x       y       z     vdW  Elec       q    Type
REMARK                         _______ _______ _______ _____ _____    ______ ____
ROOT
ATOM      1  N   UNL     1      35.478 -19.040 -22.847  0.00  0.00    -0.268 N 
ATOM      2  N   UNL     1      35.960 -20.369 -20.973  0.00  0.00    -0.342 NA
ATOM      3  N   UNL     1      33.682 -19.893 -21.601  0.00  0.00    -0.170 NA
ATOM      4  C   UNL     1      35.025 -19.791 -21.773  0.00  0.00    +0.144 C 
ATOM      5  C   UNL     1      34.141 -21.260 -19.672  0.00  0.00    +0.061 C 
ATOM      6  C   UNL     1      35.485 -21.091 -19.938  0.00  0.00    +0.123 C 
ATOM      7  C   UNL     1      33.277 -20.631 -20.546  0.00  0.00    +0.113 C 
ATOM      8  C   UNL     1      36.522 -21.722 -19.066  0.00  0.00    +0.067 C 
ATOM      9  H   UNL     1      36.450 -18.960 -22.980  0.00  0.00    +0.159 HD
ENDROOT
BRANCH   5  12
ATOM     10  N   UNL     1      32.306 -22.189 -18.329  0.00  0.00    -0.314 N 
ATOM     11  N   UNL     1      34.374 -22.666 -17.671  0.00  0.00    -0.315 N 
ATOM     12  C   UNL     1      33.645 -22.032 -18.565  0.00  0.00    +0.171 C 
ATOM     13  C   UNL     1      32.164 -22.972 -17.212  0.00  0.00    +0.059 C 
ATOM     14  C   UNL     1      33.468 -23.257 -16.820  0.00  0.00    +0.055 C 
ATOM     15  C   UNL     1      33.684 -24.056 -15.684  0.00  0.00    -0.008 C 
ATOM     16  C   UNL     1      31.039 -23.441 -16.531  0.00  0.00    +0.011 C 
ATOM     17  C   UNL     1      31.271 -24.234 -15.403  0.00  0.00    -0.021 C 
ATOM     18  C   UNL     1      32.569 -24.538 -14.985  0.00  0.00    -0.007 C 
ATOM     19  C   UNL     1      35.052 -24.407 -15.197  0.00  0.00    +0.032 C 
ATOM     20  C   UNL     1      30.109 -24.768 -14.632  0.00  0.00    +0.031 C 
ATOM     21  H   UNL     1      31.574 -21.807 -18.865  0.00  0.00    +0.149 HD
ATOM     22  H   UNL     1      35.357 -22.708 -17.621  0.00  0.00    +0.149 HD
ENDBRANCH   5  12
BRANCH   1  23
ATOM     23  C   UNL     1      34.605 -18.369 -23.779  0.00  0.00    +0.098 C 
BRANCH  23  24
ATOM     24  C   UNL     1      34.766 -16.855 -23.679  0.00  0.00    +0.022 C 
BRANCH  24  25
ATOM     25  C   UNL     1      34.970 -16.383 -22.239  0.00  0.00    +0.002 C 
BRANCH  25  27
ATOM     26  N   UNL     1      32.209 -13.061 -22.214  0.00  0.00    +0.385 N 
ATOM     27  C   UNL     1      34.426 -14.971 -22.037  0.00  0.00    -0.004 C 
ATOM     28  C   UNL     1      33.263 -14.966 -21.039  0.00  0.00    -0.023 C 
ATOM     29  C   UNL     1      33.970 -14.361 -23.366  0.00  0.00    -0.023 C 
ATOM     30  C   UNL     1      32.648 -13.572 -20.908  0.00  0.00    -0.077 C 
ATOM     31  C   UNL     1      33.331 -12.987 -23.158  0.00  0.00    -0.077 C 
ATOM     32  C   UNL     1      31.577 -11.751 -22.065  0.00  0.00    -0.101 C 
ATOM     33  H   UNL     1      31.522 -13.714 -22.592  0.00  0.00    -0.080 HD
ENDBRANCH  25  27
ENDBRANCH  24  25
ENDBRANCH  23  24
ENDBRANCH   1  23
TORSDOF 5
ENDMDL
MODEL 7
REMARK VINA RESULT:     -12.3      2.680     11.294
REMARK  Name = 23650961
REMARK  5 active torsions:
REMARK  status: ('A' for Active; 'I' for Inactive)
REMARK    1  A    between atoms: N_1  and  C_23
REMARK    2  A    between atoms: C_5  and  C_12
REMARK    3  A    between atoms: C_23  and  C_24
REMARK    4  A    between atoms: C_24  and  C_25
REMARK    5  A    between atoms: C_25  and  C_27
REMARK                            x       y       z     vdW  Elec       q    Type
REMARK                         _______ _______ _______ _____ _____    ______ ____
ROOT
ATOM      1  N   UNL     1      32.441  -9.936 -22.686  0.00  0.00    -0.268 N 
ATOM      2  N   UNL     1      32.410 -12.143 -21.889  0.00  0.00    -0.342 NA
ATOM      3  N   UNL     1      33.704 -11.548 -23.832  0.00  0.00    -0.170 NA
ATOM      4  C   UNL     1      32.866 -11.251 -22.806  0.00  0.00    +0.144 C 
ATOM      5  C   UNL     1      33.694 -13.822 -23.041  0.00  0.00    +0.061 C 
ATOM      6  C   UNL     1      32.842 -13.413 -22.035  0.00  0.00    +0.123 C 
ATOM      7  C   UNL     1      34.097 -12.836 -23.920  0.00  0.00    +0.113 C 
ATOM      8  C   UNL     1      32.334 -14.385 -21.020  0.00  0.00    +0.067 C 
ATOM      9  H   UNL     1      31.834  -9.711 -21.945  0.00  0.00    +0.159 HD
ENDROOT
BRANCH   5  12
ATOM     10  N   UNL     1      33.887 -15.915 -24.314  0.00  0.00    -0.314 N 
ATOM     11  N   UNL     1      34.844 -15.866 -22.309  0.00  0.00    -0.315 N 
ATOM     12  C   UNL     1      34.148 -15.179 -23.190  0.00  0.00    +0.171 C 
ATOM     13  C   UNL     1      34.450 -17.154 -24.147  0.00  0.00    +0.059 C 
ATOM     14  C   UNL     1      35.042 -17.099 -22.888  0.00  0.00    +0.055 C 
ATOM     15  C   UNL     1      35.719 -18.228 -22.399  0.00  0.00    -0.008 C 
ATOM     16  C   UNL     1      34.491 -18.285 -24.964  0.00  0.00    +0.011 C 
ATOM     17  C   UNL     1      35.169 -19.401 -24.462  0.00  0.00    -0.021 C 
ATOM     18  C   UNL     1      35.772 -19.375 -23.203  0.00  0.00    -0.007 C 
ATOM     19  C   UNL     1      36.379 -18.251 -21.059  0.00  0.00    +0.032 C 
ATOM     20  C   UNL     1      35.249 -20.641 -25.290  0.00  0.00    +0.031 C 
ATOM     21  H   UNL     1      33.385 -15.609 -25.103  0.00  0.00    +0.149 HD
ATOM     22  H   UNL     1      35.157 -15.563 -21.425  0.00  0.00    +0.149 HD
ENDBRANCH   5  12
BRANCH   1  23
ATOM     23  C   UNL     1      32.841  -8.880 -23.584  0.00  0.00    +0.098 C 
BRANCH  23  24
ATOM     24  C   UNL     1      33.725  -7.864 -22.867  0.00  0.00    +0.022 C 
BRANCH  24  25
ATOM     25  C   UNL     1      34.600  -7.065 -23.833  0.00  0.00    +0.002 C 
BRANCH  25  27
ATOM     26  N   UNL     1      32.952  -3.794 -26.124  0.00  0.00    +0.385 N 
ATOM     27  C   UNL     1      33.750  -6.314 -24.855  0.00  0.00    -0.004 C 
ATOM     28  C   UNL     1      34.632  -5.594 -25.881  0.00  0.00    -0.023 C 
ATOM     29  C   UNL     1      32.826  -5.303 -24.168  0.00  0.00    -0.023 C 
ATOM     30  C   UNL     1      33.792  -4.757 -26.848  0.00  0.00    -0.077 C 
ATOM     31  C   UNL     1      32.045  -4.477 -25.191  0.00  0.00    -0.077 C 
ATOM     32  C   UNL     1      32.194  -2.967 -27.062  0.00  0.00    -0.101 C 
ATOM     33  H   UNL     1      33.567  -3.189 -25.578  0.00  0.00    -0.080 HD
ENDBRANCH  25  27
ENDBRANCH  24  25
ENDBRANCH  23  24
ENDBRANCH   1  23
TORSDOF 5
ENDMDL
MODEL 8
REMARK VINA RESULT:     -12.2      2.712     11.236
REMARK  Name = 23650961
REMARK  5 active torsions:
REMARK  status: ('A' for Active; 'I' for Inactive)
REMARK    1  A    between atoms: N_1  and  C_23
REMARK    2  A    between atoms: C_5  and  C_12
REMARK    3  A    between atoms: C_23  and  C_24
REMARK    4  A    between atoms: C_24  and  C_25
REMARK    5  A    between atoms: C_25  and  C_27
REMARK                            x       y       z     vdW  Elec       q    Type
REMARK                         _______ _______ _______ _____ _____    ______ ____
ROOT
ATOM      1  N   UNL     1      31.776  -9.783 -22.667  0.00  0.00    -0.268 N 
ATOM      2  N   UNL     1      32.008 -11.863 -21.605  0.00  0.00    -0.342 NA
ATOM      3  N   UNL     1      33.171 -11.387 -23.661  0.00  0.00    -0.170 NA
ATOM      4  C   UNL     1      32.337 -11.051 -22.644  0.00  0.00    +0.144 C 
ATOM      5  C   UNL     1      33.431 -13.532 -22.598  0.00  0.00    +0.061 C 
ATOM      6  C   UNL     1      32.570 -13.089 -21.613  0.00  0.00    +0.123 C 
ATOM      7  C   UNL     1      33.698 -12.629 -23.607  0.00  0.00    +0.113 C 
ATOM      8  C   UNL     1      32.201 -13.972 -20.466  0.00  0.00    +0.067 C 
ATOM      9  H   UNL     1      31.171  -9.530 -21.934  0.00  0.00    +0.159 HD
ENDROOT
BRANCH   5  12
ATOM     10  N   UNL     1      34.597 -15.382 -21.478  0.00  0.00    -0.314 N 
ATOM     11  N   UNL     1      34.093 -15.664 -23.624  0.00  0.00    -0.315 N 
ATOM     12  C   UNL     1      34.024 -14.842 -22.598  0.00  0.00    +0.171 C 
ATOM     13  C   UNL     1      35.065 -16.629 -21.803  0.00  0.00    +0.059 C 
ATOM     14  C   UNL     1      34.738 -16.782 -23.148  0.00  0.00    +0.055 C 
ATOM     15  C   UNL     1      35.083 -17.975 -23.806  0.00  0.00    -0.008 C 
ATOM     16  C   UNL     1      35.726 -17.608 -21.059  0.00  0.00    +0.011 C 
ATOM     17  C   UNL     1      36.063 -18.788 -21.729  0.00  0.00    -0.021 C 
ATOM     18  C   UNL     1      35.748 -18.971 -23.078  0.00  0.00    -0.007 C 
ATOM     19  C   UNL     1      34.769 -18.217 -25.246  0.00  0.00    +0.032 C 
ATOM     20  C   UNL     1      36.770 -19.874 -20.987  0.00  0.00    +0.031 C 
ATOM     21  H   UNL     1      34.662 -14.951 -20.596  0.00  0.00    +0.149 HD
ATOM     22  H   UNL     1      33.755 -15.511 -24.537  0.00  0.00    +0.149 HD
ENDBRANCH   5  12
BRANCH   1  23
ATOM     23  C   UNL     1      32.032  -8.814 -23.705  0.00  0.00    +0.098 C 
BRANCH  23  24
ATOM     24  C   UNL     1      32.498  -7.489 -23.106  0.00  0.00    +0.022 C 
BRANCH  24  25
ATOM     25  C   UNL     1      33.945  -7.158 -23.474  0.00  0.00    +0.002 C 
BRANCH  25  27
ATOM     26  N   UNL     1      33.628  -4.778 -27.064  0.00  0.00    +0.385 N 
ATOM     27  C   UNL     1      34.016  -5.951 -24.406  0.00  0.00    -0.004 C 
ATOM     28  C   UNL     1      32.629  -5.598 -24.955  0.00  0.00    -0.023 C 
ATOM     29  C   UNL     1      34.981  -6.208 -25.567  0.00  0.00    -0.023 C 
ATOM     30  C   UNL     1      32.706  -4.454 -25.967  0.00  0.00    -0.077 C 
ATOM     31  C   UNL     1      34.981  -5.043 -26.559  0.00  0.00    -0.077 C 
ATOM     32  C   UNL     1      33.652  -3.697 -28.050  0.00  0.00    -0.101 C 
ATOM     33  H   UNL     1      33.290  -5.627 -27.518  0.00  0.00    -0.080 HD
ENDBRANCH  25  27
ENDBRANCH  24  25
ENDBRANCH  23  24
ENDBRANCH   1  23
TORSDOF 5
ENDMDL
MODEL 9
REMARK VINA RESULT:     -12.1      3.353     11.796
REMARK  Name = 23650961
REMARK  5 active torsions:
REMARK  status: ('A' for Active; 'I' for Inactive)
REMARK    1  A    between atoms: N_1  and  C_23
REMARK    2  A    between atoms: C_5  and  C_12
REMARK    3  A    between atoms: C_23  and  C_24
REMARK    4  A    between atoms: C_24  and  C_25
REMARK    5  A    between atoms: C_25  and  C_27
REMARK                            x       y       z     vdW  Elec       q    Type
REMARK                         _______ _______ _______ _____ _____    ______ ____
ROOT
ATOM      1  N   UNL     1      35.034 -19.826 -21.748  0.00  0.00    -0.268 N 
ATOM      2  N   UNL     1      34.198 -21.256 -20.086  0.00  0.00    -0.342 NA
ATOM      3  N   UNL     1      36.469 -20.457 -20.002  0.00  0.00    -0.170 NA
ATOM      4  C   UNL     1      35.240 -20.535 -20.575  0.00  0.00    +0.144 C 
ATOM      5  C   UNL     1      35.643 -21.924 -18.281  0.00  0.00    +0.061 C 
ATOM      6  C   UNL     1      34.433 -21.935 -18.945  0.00  0.00    +0.123 C 
ATOM      7  C   UNL     1      36.635 -21.160 -18.863  0.00  0.00    +0.113 C 
ATOM      8  C   UNL     1      33.278 -22.724 -18.417  0.00  0.00    +0.067 C 
ATOM      9  H   UNL     1      34.147 -19.875 -22.170  0.00  0.00    +0.159 HD
ENDROOT
BRANCH   5  12
ATOM     10  N   UNL     1      37.139 -23.053 -16.692  0.00  0.00    -0.314 N 
ATOM     11  N   UNL     1      34.976 -23.014 -16.183  0.00  0.00    -0.315 N 
ATOM     12  C   UNL     1      35.884 -22.653 -17.065  0.00  0.00    +0.171 C 
ATOM     13  C   UNL     1      37.032 -23.716 -15.497  0.00  0.00    +0.059 C 
ATOM     14  C   UNL     1      35.673 -23.678 -15.199  0.00  0.00    +0.055 C 
ATOM     15  C   UNL     1      35.213 -24.280 -14.016  0.00  0.00    -0.008 C 
ATOM     16  C   UNL     1      37.980 -24.327 -14.674  0.00  0.00    +0.011 C 
ATOM     17  C   UNL     1      37.505 -24.921 -13.500  0.00  0.00    -0.021 C 
ATOM     18  C   UNL     1      36.148 -24.900 -13.175  0.00  0.00    -0.007 C 
ATOM     19  C   UNL     1      33.772 -24.284 -13.624  0.00  0.00    +0.032 C 
ATOM     20  C   UNL     1      38.471 -25.590 -12.577  0.00  0.00    +0.031 C 
ATOM     21  H   UNL     1      37.970 -22.895 -17.194  0.00  0.00    +0.149 HD
ATOM     22  H   UNL     1      34.006 -22.847 -16.219  0.00  0.00    +0.149 HD
ENDBRANCH   5  12
BRANCH   1  23
ATOM     23  C   UNL     1      36.047 -19.017 -22.384  0.00  0.00    +0.098 C 
BRANCH  23  24
ATOM     24  C   UNL     1      35.821 -18.954 -23.892  0.00  0.00    +0.022 C 
BRANCH  24  25
ATOM     25  C   UNL     1      34.481 -18.313 -24.255  0.00  0.00    +0.002 C 
BRANCH  25  27
ATOM     26  N   UNL     1      33.591 -14.109 -24.695  0.00  0.00    +0.385 N 
ATOM     27  C   UNL     1      34.653 -16.840 -24.619  0.00  0.00    -0.004 C 
ATOM     28  C   UNL     1      34.576 -15.953 -23.372  0.00  0.00    -0.023 C 
ATOM     29  C   UNL     1      33.596 -16.397 -25.636  0.00  0.00    -0.023 C 
ATOM     30  C   UNL     1      34.646 -14.470 -23.739  0.00  0.00    -0.077 C 
ATOM     31  C   UNL     1      33.700 -14.899 -25.928  0.00  0.00    -0.077 C 
ATOM     32  C   UNL     1      33.639 -12.679 -24.996  0.00  0.00    -0.101 C 
ATOM     33  H   UNL     1      32.690 -14.322 -24.264  0.00  0.00    -0.080 HD
ENDBRANCH  25  27
ENDBRANCH  24  25
ENDBRANCH  23  24
ENDBRANCH   1  23
TORSDOF 5
ENDMDL
