MODEL 1
REMARK VINA RESULT:     -13.6      0.000      0.000
REMARK  Name = 11610553
REMARK  5 active torsions:
REMARK  status: ('A' for Active; 'I' for Inactive)
REMARK    1  A    between atoms: C_1  and  C_9
REMARK    2  A    between atoms: C_4  and  O_19
REMARK    3  A    between atoms: C_10  and  C_14
REMARK    4  A    between atoms: O_19  and  C_20
REMARK    5  A    between atoms: C_20  and  C_22
REMARK                            x       y       z     vdW  Elec       q    Type
REMARK                         _______ _______ _______ _____ _____    ______ ____
ROOT
ATOM      1  C   UNL     1      32.295  -9.616 -21.392  0.00  0.00    +0.015 C 
ATOM      2  C   UNL     1      31.890 -10.730 -20.658  0.00  0.00    +0.004 C 
ATOM      3  C   UNL     1      32.695  -9.763 -22.720  0.00  0.00    +0.004 C 
ATOM      4  C   UNL     1      32.287 -12.132 -22.576  0.00  0.00    +0.139 C 
ATOM      5  C   UNL     1      31.886 -11.992 -21.252  0.00  0.00    +0.037 C 
ATOM      6  C   UNL     1      32.692 -11.024 -23.314  0.00  0.00    +0.037 C 
ENDROOT
BRANCH   1   9
ATOM      7  N   UNL     1      31.828  -8.101 -19.514  0.00  0.00    -0.236 N 
ATOM      8  N   UNL     1      31.912  -6.823 -19.108  0.00  0.00    -0.180 NA
ATOM      9  C   UNL     1      32.299  -8.311 -20.778  0.00  0.00    +0.067 C 
ATOM     10  C   UNL     1      32.720  -7.083 -21.229  0.00  0.00    +0.036 C 
ATOM     11  C   UNL     1      32.458  -6.206 -20.159  0.00  0.00    +0.119 C 
ATOM     12  H   UNL     1      31.461  -8.821 -18.952  0.00  0.00    +0.174 HD
BRANCH  10  14
ATOM     13  N   UNL     1      34.408  -6.337 -25.036  0.00  0.00    -0.242 NA
ATOM     14  C   UNL     1      33.291  -6.831 -22.517  0.00  0.00    +0.006 C 
ATOM     15  C   UNL     1      32.563  -6.144 -23.485  0.00  0.00    +0.021 C 
ATOM     16  C   UNL     1      34.579  -7.269 -22.813  0.00  0.00    +0.021 C 
ATOM     17  C   UNL     1      33.160  -5.925 -24.716  0.00  0.00    +0.099 C 
ATOM     18  C   UNL     1      35.086  -7.001 -24.074  0.00  0.00    +0.099 C 
ENDBRANCH  10  14
ENDBRANCH   1   9
BRANCH   4  19
ATOM     19  O   UNL     1      32.284 -13.371 -23.160  0.00  0.00    -0.468 OA
BRANCH  19  20
ATOM     20  C   UNL     1      33.165 -13.565 -24.258  0.00  0.00    +0.264 C 
BRANCH  20  22
ATOM     21  N   UNL     1      34.182 -15.301 -22.912  0.00  0.00    -0.406 NA
ATOM     22  C   UNL     1      33.803 -14.909 -24.150  0.00  0.00    +0.152 C 
ATOM     23  C   UNL     1      34.982 -17.357 -23.881  0.00  0.00    +0.026 C 
ATOM     24  C   UNL     1      34.764 -16.507 -22.776  0.00  0.00    +0.113 C 
ATOM     25  C   UNL     1      33.975 -15.671 -25.289  0.00  0.00    +0.031 C 
ATOM     26  C   UNL     1      34.574 -16.913 -25.145  0.00  0.00    +0.005 C 
ATOM     27  C   UNL     1      35.592 -18.611 -23.702  0.00  0.00    +0.002 C 
ATOM     28  C   UNL     1      35.169 -16.950 -21.520  0.00  0.00    +0.085 C 
ATOM     29  C   UNL     1      35.988 -19.028 -22.434  0.00  0.00    -0.004 C 
ATOM     30  C   UNL     1      35.776 -18.196 -21.342  0.00  0.00    -0.019 C 
ENDBRANCH  20  22
ENDBRANCH  19  20
ENDBRANCH   4  19
TORSDOF 5
ENDMDL
MODEL 2
REMARK VINA RESULT:     -13.3      5.575     10.007
REMARK  Name = 11610553
REMARK  5 active torsions:
REMARK  status: ('A' for Active; 'I' for Inactive)
REMARK    1  A    between atoms: C_1  and  C_9
REMARK    2  A    between atoms: C_4  and  O_19
REMARK    3  A    between atoms: C_10  and  C_14
REMARK    4  A    between atoms: O_19  and  C_20
REMARK    5  A    between atoms: C_20  and  C_22
REMARK                            x       y       z     vdW  Elec       q    Type
REMARK                         _______ _______ _______ _____ _____    ______ ____
ROOT
ATOM      1  C   UNL     1      34.967 -18.811 -22.596  0.00  0.00    +0.015 C 
ATOM      2  C   UNL     1      33.805 -19.410 -22.110  0.00  0.00    +0.004 C 
ATOM      3  C   UNL     1      36.194 -19.071 -21.985  0.00  0.00    +0.004 C 
ATOM      4  C   UNL     1      35.095 -20.522 -20.408  0.00  0.00    +0.139 C 
ATOM      5  C   UNL     1      33.870 -20.268 -21.012  0.00  0.00    +0.037 C 
ATOM      6  C   UNL     1      36.259 -19.929 -20.887  0.00  0.00    +0.037 C 
ENDROOT
BRANCH   1   9
ATOM      7  N   UNL     1      35.157 -18.348 -25.002  0.00  0.00    -0.236 N 
ATOM      8  N   UNL     1      35.046 -17.383 -25.930  0.00  0.00    -0.180 NA
ATOM      9  C   UNL     1      34.901 -17.923 -23.731  0.00  0.00    +0.067 C 
ATOM     10  C   UNL     1      34.602 -16.585 -23.836  0.00  0.00    +0.036 C 
ATOM     11  C   UNL     1      34.707 -16.309 -25.212  0.00  0.00    +0.119 C 
ATOM     12  H   UNL     1      35.399 -19.277 -25.218  0.00  0.00    +0.174 HD
BRANCH  10  14
ATOM     13  N   UNL     1      33.614 -14.051 -20.595  0.00  0.00    -0.242 NA
ATOM     14  C   UNL     1      34.267 -15.729 -22.739  0.00  0.00    +0.006 C 
ATOM     15  C   UNL     1      34.807 -15.961 -21.477  0.00  0.00    +0.021 C 
ATOM     16  C   UNL     1      33.400 -14.655 -22.926  0.00  0.00    +0.021 C 
ATOM     17  C   UNL     1      34.453 -15.103 -20.448  0.00  0.00    +0.099 C 
ATOM     18  C   UNL     1      33.108 -13.855 -21.833  0.00  0.00    +0.099 C 
ENDBRANCH  10  14
ENDBRANCH   1   9
BRANCH   4  19
ATOM     19  O   UNL     1      35.159 -21.365 -19.330  0.00  0.00    -0.468 OA
BRANCH  19  20
ATOM     20  C   UNL     1      34.364 -22.542 -19.389  0.00  0.00    +0.264 C 
BRANCH  20  22
ATOM     21  N   UNL     1      32.423 -22.738 -17.957  0.00  0.00    -0.406 NA
ATOM     22  C   UNL     1      33.770 -22.808 -18.046  0.00  0.00    +0.152 C 
ATOM     23  C   UNL     1      32.616 -23.278 -15.617  0.00  0.00    +0.026 C 
ATOM     24  C   UNL     1      31.850 -22.970 -16.761  0.00  0.00    +0.113 C 
ATOM     25  C   UNL     1      34.601 -23.101 -16.984  0.00  0.00    +0.031 C 
ATOM     26  C   UNL     1      34.009 -23.340 -15.753  0.00  0.00    +0.005 C 
ATOM     27  C   UNL     1      31.986 -23.514 -14.383  0.00  0.00    +0.002 C 
ATOM     28  C   UNL     1      30.466 -22.909 -16.625  0.00  0.00    +0.085 C 
ATOM     29  C   UNL     1      30.600 -23.447 -14.276  0.00  0.00    -0.004 C 
ATOM     30  C   UNL     1      29.839 -23.144 -15.398  0.00  0.00    -0.019 C 
ENDBRANCH  20  22
ENDBRANCH  19  20
ENDBRANCH   4  19
TORSDOF 5
ENDMDL
MODEL 3
REMARK VINA RESULT:     -13.2      5.189      9.523
REMARK  Name = 11610553
REMARK  5 active torsions:
REMARK  status: ('A' for Active; 'I' for Inactive)
REMARK    1  A    between atoms: C_1  and  C_9
REMARK    2  A    between atoms: C_4  and  O_19
REMARK    3  A    between atoms: C_10  and  C_14
REMARK    4  A    between atoms: O_19  and  C_20
REMARK    5  A    between atoms: C_20  and  C_22
REMARK                            x       y       z     vdW  Elec       q    Type
REMARK                         _______ _______ _______ _____ _____    ______ ____
ROOT
ATOM      1  C   UNL     1      35.267 -18.176 -22.765  0.00  0.00    +0.015 C 
ATOM      2  C   UNL     1      36.557 -18.249 -22.241  0.00  0.00    +0.004 C 
ATOM      3  C   UNL     1      34.248 -18.960 -22.225  0.00  0.00    +0.004 C 
ATOM      4  C   UNL     1      35.808 -19.888 -20.642  0.00  0.00    +0.139 C 
ATOM      5  C   UNL     1      36.828 -19.108 -21.175  0.00  0.00    +0.037 C 
ATOM      6  C   UNL     1      34.519 -19.819 -21.160  0.00  0.00    +0.037 C 
ENDROOT
BRANCH   1   9
ATOM      7  N   UNL     1      35.285 -17.615 -25.158  0.00  0.00    -0.236 N 
ATOM      8  N   UNL     1      34.953 -16.667 -26.050  0.00  0.00    -0.180 NA
ATOM      9  C   UNL     1      34.986 -17.288 -23.867  0.00  0.00    +0.067 C 
ATOM     10  C   UNL     1      34.418 -16.037 -23.919  0.00  0.00    +0.036 C 
ATOM     11  C   UNL     1      34.424 -15.706 -25.287  0.00  0.00    +0.119 C 
ATOM     12  H   UNL     1      35.706 -18.468 -25.411  0.00  0.00    +0.174 HD
BRANCH  10  14
ATOM     13  N   UNL     1      33.033 -13.854 -20.570  0.00  0.00    -0.242 NA
ATOM     14  C   UNL     1      33.949 -15.299 -22.786  0.00  0.00    +0.006 C 
ATOM     15  C   UNL     1      34.497 -15.524 -21.526  0.00  0.00    +0.021 C 
ATOM     16  C   UNL     1      32.942 -14.349 -22.935  0.00  0.00    +0.021 C 
ATOM     17  C   UNL     1      34.009 -14.784 -20.461  0.00  0.00    +0.099 C 
ATOM     18  C   UNL     1      32.524 -13.661 -21.807  0.00  0.00    +0.099 C 
ENDBRANCH  10  14
ENDBRANCH   1   9
BRANCH   4  19
ATOM     19  O   UNL     1      36.074 -20.731 -19.596  0.00  0.00    -0.468 OA
BRANCH  19  20
ATOM     20  C   UNL     1      35.675 -22.087 -19.748  0.00  0.00    +0.264 C 
BRANCH  20  22
ATOM     21  N   UNL     1      35.390 -22.862 -17.473  0.00  0.00    -0.406 NA
ATOM     22  C   UNL     1      34.782 -22.471 -18.616  0.00  0.00    +0.152 C 
ATOM     23  C   UNL     1      33.209 -23.191 -16.504  0.00  0.00    +0.026 C 
ATOM     24  C   UNL     1      34.617 -23.218 -16.430  0.00  0.00    +0.113 C 
ATOM     25  C   UNL     1      33.413 -22.413 -18.783  0.00  0.00    +0.031 C 
ATOM     26  C   UNL     1      32.619 -22.780 -17.706  0.00  0.00    +0.005 C 
ATOM     27  C   UNL     1      32.432 -23.569 -15.395  0.00  0.00    +0.002 C 
ATOM     28  C   UNL     1      35.202 -23.626 -15.234  0.00  0.00    +0.085 C 
ATOM     29  C   UNL     1      33.043 -23.974 -14.212  0.00  0.00    -0.004 C 
ATOM     30  C   UNL     1      34.430 -24.003 -14.132  0.00  0.00    -0.019 C 
ENDBRANCH  20  22
ENDBRANCH  19  20
ENDBRANCH   4  19
TORSDOF 5
ENDMDL
MODEL 4
REMARK VINA RESULT:     -13.1      5.743     12.361
REMARK  Name = 11610553
REMARK  5 active torsions:
REMARK  status: ('A' for Active; 'I' for Inactive)
REMARK    1  A    between atoms: C_1  and  C_9
REMARK    2  A    between atoms: C_4  and  O_19
REMARK    3  A    between atoms: C_10  and  C_14
REMARK    4  A    between atoms: O_19  and  C_20
REMARK    5  A    between atoms: C_20  and  C_22
REMARK                            x       y       z     vdW  Elec       q    Type
REMARK                         _______ _______ _______ _____ _____    ______ ____
ROOT
ATOM      1  C   UNL     1      33.951 -22.013 -18.765  0.00  0.00    +0.015 C 
ATOM      2  C   UNL     1      35.309 -22.206 -19.017  0.00  0.00    +0.004 C 
ATOM      3  C   UNL     1      33.209 -21.144 -19.565  0.00  0.00    +0.004 C 
ATOM      4  C   UNL     1      35.180 -20.665 -20.863  0.00  0.00    +0.139 C 
ATOM      5  C   UNL     1      35.925 -21.530 -20.070  0.00  0.00    +0.037 C 
ATOM      6  C   UNL     1      33.825 -20.467 -20.617  0.00  0.00    +0.037 C 
ENDROOT
BRANCH   1   9
ATOM      7  N   UNL     1      31.967 -22.929 -17.642  0.00  0.00    -0.236 N 
ATOM      8  N   UNL     1      31.552 -23.597 -16.552  0.00  0.00    -0.180 NA
ATOM      9  C   UNL     1      33.314 -22.712 -17.676  0.00  0.00    +0.067 C 
ATOM     10  C   UNL     1      33.814 -23.277 -16.528  0.00  0.00    +0.036 C 
ATOM     11  C   UNL     1      32.684 -23.807 -15.875  0.00  0.00    +0.119 C 
ATOM     12  H   UNL     1      31.356 -22.625 -18.350  0.00  0.00    +0.174 HD
BRANCH  10  14
ATOM     13  N   UNL     1      37.893 -23.300 -15.405  0.00  0.00    -0.242 NA
ATOM     14  C   UNL     1      35.194 -23.285 -16.149  0.00  0.00    +0.006 C 
ATOM     15  C   UNL     1      35.956 -22.124 -16.247  0.00  0.00    +0.021 C 
ATOM     16  C   UNL     1      35.786 -24.454 -15.676  0.00  0.00    +0.021 C 
ATOM     17  C   UNL     1      37.287 -22.183 -15.867  0.00  0.00    +0.099 C 
ATOM     18  C   UNL     1      37.125 -24.409 -15.322  0.00  0.00    +0.099 C 
ENDBRANCH  10  14
ENDBRANCH   1   9
BRANCH   4  19
ATOM     19  O   UNL     1      35.785 -20.000 -21.897  0.00  0.00    -0.468 OA
BRANCH  19  20
ATOM     20  C   UNL     1      36.016 -18.609 -21.718  0.00  0.00    +0.264 C 
BRANCH  20  22
ATOM     21  N   UNL     1      35.174 -16.535 -22.638  0.00  0.00    -0.406 NA
ATOM     22  C   UNL     1      35.392 -17.854 -22.844  0.00  0.00    +0.152 C 
ATOM     23  C   UNL     1      34.250 -16.411 -24.861  0.00  0.00    +0.026 C 
ATOM     24  C   UNL     1      34.611 -15.821 -23.631  0.00  0.00    +0.113 C 
ATOM     25  C   UNL     1      35.074 -18.518 -24.011  0.00  0.00    +0.031 C 
ATOM     26  C   UNL     1      34.494 -17.780 -25.032  0.00  0.00    +0.005 C 
ATOM     27  C   UNL     1      33.664 -15.635 -25.876  0.00  0.00    +0.002 C 
ATOM     28  C   UNL     1      34.369 -14.460 -23.462  0.00  0.00    +0.085 C 
ATOM     29  C   UNL     1      33.433 -14.277 -25.679  0.00  0.00    -0.004 C 
ATOM     30  C   UNL     1      33.786 -13.689 -24.471  0.00  0.00    -0.019 C 
ENDBRANCH  20  22
ENDBRANCH  19  20
ENDBRANCH   4  19
TORSDOF 5
ENDMDL
MODEL 5
REMARK VINA RESULT:     -13.1      5.200      9.579
REMARK  Name = 11610553
REMARK  5 active torsions:
REMARK  status: ('A' for Active; 'I' for Inactive)
REMARK    1  A    between atoms: C_1  and  C_9
REMARK    2  A    between atoms: C_4  and  O_19
REMARK    3  A    between atoms: C_10  and  C_14
REMARK    4  A    between atoms: O_19  and  C_20
REMARK    5  A    between atoms: C_20  and  C_22
REMARK                            x       y       z     vdW  Elec       q    Type
REMARK                         _______ _______ _______ _____ _____    ______ ____
ROOT
ATOM      1  C   UNL     1      35.297 -18.065 -22.908  0.00  0.00    +0.015 C 
ATOM      2  C   UNL     1      34.375 -18.960 -22.364  0.00  0.00    +0.004 C 
ATOM      3  C   UNL     1      36.604 -18.030 -22.423  0.00  0.00    +0.004 C 
ATOM      4  C   UNL     1      36.066 -19.777 -20.856  0.00  0.00    +0.139 C 
ATOM      5  C   UNL     1      34.762 -19.818 -21.334  0.00  0.00    +0.037 C 
ATOM      6  C   UNL     1      36.991 -18.888 -21.395  0.00  0.00    +0.037 C 
ENDROOT
BRANCH   1   9
ATOM      7  N   UNL     1      35.089 -17.486 -25.287  0.00  0.00    -0.236 N 
ATOM      8  N   UNL     1      34.654 -16.541 -26.137  0.00  0.00    -0.180 NA
ATOM      9  C   UNL     1      34.897 -17.177 -23.972  0.00  0.00    +0.067 C 
ATOM     10  C   UNL     1      34.294 -15.942 -23.961  0.00  0.00    +0.036 C 
ATOM     11  C   UNL     1      34.170 -15.600 -25.321  0.00  0.00    +0.119 C 
ATOM     12  H   UNL     1      35.507 -18.326 -25.585  0.00  0.00    +0.174 HD
BRANCH  10  14
ATOM     13  N   UNL     1      33.154 -13.821 -20.482  0.00  0.00    -0.242 NA
ATOM     14  C   UNL     1      33.908 -15.225 -22.784  0.00  0.00    +0.006 C 
ATOM     15  C   UNL     1      34.572 -15.443 -21.580  0.00  0.00    +0.021 C 
ATOM     16  C   UNL     1      32.866 -14.302 -22.834  0.00  0.00    +0.021 C 
ATOM     17  C   UNL     1      34.161 -14.724 -20.469  0.00  0.00    +0.099 C 
ATOM     18  C   UNL     1      32.531 -13.634 -21.667  0.00  0.00    +0.099 C 
ENDBRANCH  10  14
ENDBRANCH   1   9
BRANCH   4  19
ATOM     19  O   UNL     1      36.446 -20.620 -19.845  0.00  0.00    -0.468 OA
BRANCH  19  20
ATOM     20  C   UNL     1      35.574 -21.704 -19.554  0.00  0.00    +0.264 C 
BRANCH  20  22
ATOM     21  N   UNL     1      34.740 -22.780 -17.552  0.00  0.00    -0.406 NA
ATOM     22  C   UNL     1      35.774 -22.135 -18.139  0.00  0.00    +0.152 C 
ATOM     23  C   UNL     1      36.069 -22.947 -15.549  0.00  0.00    +0.026 C 
ATOM     24  C   UNL     1      34.882 -23.182 -16.275  0.00  0.00    +0.113 C 
ATOM     25  C   UNL     1      36.971 -21.860 -17.510  0.00  0.00    +0.031 C 
ATOM     26  C   UNL     1      37.115 -22.276 -16.195  0.00  0.00    +0.005 C 
ATOM     27  C   UNL     1      36.183 -23.381 -14.217  0.00  0.00    +0.002 C 
ATOM     28  C   UNL     1      33.843 -23.850 -15.633  0.00  0.00    +0.085 C 
ATOM     29  C   UNL     1      35.128 -24.046 -13.600  0.00  0.00    -0.004 C 
ATOM     30  C   UNL     1      33.957 -24.281 -14.309  0.00  0.00    -0.019 C 
ENDBRANCH  20  22
ENDBRANCH  19  20
ENDBRANCH   4  19
TORSDOF 5
ENDMDL
MODEL 6
REMARK VINA RESULT:     -13.1      7.315     13.820
REMARK  Name = 11610553
REMARK  5 active torsions:
REMARK  status: ('A' for Active; 'I' for Inactive)
REMARK    1  A    between atoms: C_1  and  C_9
REMARK    2  A    between atoms: C_4  and  O_19
REMARK    3  A    between atoms: C_10  and  C_14
REMARK    4  A    between atoms: O_19  and  C_20
REMARK    5  A    between atoms: C_20  and  C_22
REMARK                            x       y       z     vdW  Elec       q    Type
REMARK                         _______ _______ _______ _____ _____    ______ ____
ROOT
ATOM      1  C   UNL     1      34.594 -22.941 -16.615  0.00  0.00    +0.015 C 
ATOM      2  C   UNL     1      33.711 -22.968 -17.694  0.00  0.00    +0.004 C 
ATOM      3  C   UNL     1      35.878 -22.422 -16.776  0.00  0.00    +0.004 C 
ATOM      4  C   UNL     1      35.396 -21.958 -19.089  0.00  0.00    +0.139 C 
ATOM      5  C   UNL     1      34.114 -22.474 -18.936  0.00  0.00    +0.037 C 
ATOM      6  C   UNL     1      36.281 -21.929 -18.016  0.00  0.00    +0.037 C 
ENDROOT
BRANCH   1   9
ATOM      7  N   UNL     1      33.002 -23.080 -14.748  0.00  0.00    -0.236 N 
ATOM      8  N   UNL     1      32.780 -23.657 -13.555  0.00  0.00    -0.180 NA
ATOM      9  C   UNL     1      34.178 -23.452 -15.332  0.00  0.00    +0.067 C 
ATOM     10  C   UNL     1      34.767 -24.334 -14.457  0.00  0.00    +0.036 C 
ATOM     11  C   UNL     1      33.862 -24.421 -13.383  0.00  0.00    +0.119 C 
ATOM     12  H   UNL     1      32.373 -22.448 -15.165  0.00  0.00    +0.174 HD
BRANCH  10  14
ATOM     13  N   UNL     1      38.491 -26.245 -15.075  0.00  0.00    -0.242 NA
ATOM     14  C   UNL     1      36.027 -24.981 -14.666  0.00  0.00    +0.006 C 
ATOM     15  C   UNL     1      36.084 -26.219 -15.300  0.00  0.00    +0.021 C 
ATOM     16  C   UNL     1      37.206 -24.376 -14.237  0.00  0.00    +0.021 C 
ATOM     17  C   UNL     1      37.327 -26.803 -15.479  0.00  0.00    +0.099 C 
ATOM     18  C   UNL     1      38.399 -25.043 -14.463  0.00  0.00    +0.099 C 
ENDBRANCH  10  14
ENDBRANCH   1   9
BRANCH   4  19
ATOM     19  O   UNL     1      35.791 -21.474 -20.308  0.00  0.00    -0.468 OA
BRANCH  19  20
ATOM     20  C   UNL     1      36.580 -20.291 -20.302  0.00  0.00    +0.264 C 
BRANCH  20  22
ATOM     21  N   UNL     1      35.724 -18.098 -20.863  0.00  0.00    -0.406 NA
ATOM     22  C   UNL     1      36.044 -19.333 -21.312  0.00  0.00    +0.152 C 
ATOM     23  C   UNL     1      35.053 -17.528 -23.106  0.00  0.00    +0.026 C 
ATOM     24  C   UNL     1      35.236 -17.205 -21.745  0.00  0.00    +0.113 C 
ATOM     25  C   UNL     1      35.901 -19.740 -22.623  0.00  0.00    +0.031 C 
ATOM     26  C   UNL     1      35.397 -18.819 -23.530  0.00  0.00    +0.005 C 
ATOM     27  C   UNL     1      34.541 -16.572 -24.000  0.00  0.00    +0.002 C 
ATOM     28  C   UNL     1      34.894 -15.923 -21.325  0.00  0.00    +0.085 C 
ATOM     29  C   UNL     1      34.208 -15.297 -23.553  0.00  0.00    -0.004 C 
ATOM     30  C   UNL     1      34.384 -14.972 -22.214  0.00  0.00    -0.019 C 
ENDBRANCH  20  22
ENDBRANCH  19  20
ENDBRANCH   4  19
TORSDOF 5
ENDMDL
MODEL 7
REMARK VINA RESULT:     -12.9      9.373     15.269
REMARK  Name = 11610553
REMARK  5 active torsions:
REMARK  status: ('A' for Active; 'I' for Inactive)
REMARK    1  A    between atoms: C_1  and  C_9
REMARK    2  A    between atoms: C_4  and  O_19
REMARK    3  A    between atoms: C_10  and  C_14
REMARK    4  A    between atoms: O_19  and  C_20
REMARK    5  A    between atoms: C_20  and  C_22
REMARK                            x       y       z     vdW  Elec       q    Type
REMARK                         _______ _______ _______ _____ _____    ______ ____
ROOT
ATOM      1  C   UNL     1      34.922 -23.938 -13.815  0.00  0.00    +0.015 C 
ATOM      2  C   UNL     1      35.664 -23.236 -14.765  0.00  0.00    +0.004 C 
ATOM      3  C   UNL     1      33.607 -24.310 -14.093  0.00  0.00    +0.004 C 
ATOM      4  C   UNL     1      33.778 -23.280 -16.262  0.00  0.00    +0.139 C 
ATOM      5  C   UNL     1      35.090 -22.906 -15.993  0.00  0.00    +0.037 C 
ATOM      6  C   UNL     1      33.033 -23.980 -15.320  0.00  0.00    +0.037 C 
ENDROOT
BRANCH   1   9
ATOM      7  N   UNL     1      34.946 -23.922 -11.358  0.00  0.00    -0.236 N 
ATOM      8  N   UNL     1      35.639 -24.326 -10.280  0.00  0.00    -0.180 NA
ATOM      9  C   UNL     1      35.516 -24.279 -12.546  0.00  0.00    +0.067 C 
ATOM     10  C   UNL     1      36.662 -24.965 -12.221  0.00  0.00    +0.036 C 
ATOM     11  C   UNL     1      36.686 -24.962 -10.813  0.00  0.00    +0.119 C 
ATOM     12  H   UNL     1      34.105 -23.416 -11.298  0.00  0.00    +0.174 HD
BRANCH  10  14
ATOM     13  N   UNL     1      39.372 -26.628 -15.011  0.00  0.00    -0.242 NA
ATOM     14  C   UNL     1      37.579 -25.528 -13.164  0.00  0.00    +0.006 C 
ATOM     15  C   UNL     1      37.146 -26.484 -14.079  0.00  0.00    +0.021 C 
ATOM     16  C   UNL     1      38.912 -25.123 -13.176  0.00  0.00    +0.021 C 
ATOM     17  C   UNL     1      38.072 -26.999 -14.972  0.00  0.00    +0.099 C 
ATOM     18  C   UNL     1      39.759 -25.698 -14.110  0.00  0.00    +0.099 C 
ENDBRANCH  10  14
ENDBRANCH   1   9
BRANCH   4  19
ATOM     19  O   UNL     1      33.214 -22.955 -17.468  0.00  0.00    -0.468 OA
BRANCH  19  20
ATOM     20  C   UNL     1      33.957 -23.289 -18.634  0.00  0.00    +0.264 C 
BRANCH  20  22
ATOM     21  N   UNL     1      35.457 -21.652 -19.597  0.00  0.00    -0.406 NA
ATOM     22  C   UNL     1      34.176 -22.060 -19.451  0.00  0.00    +0.152 C 
ATOM     23  C   UNL     1      34.650 -19.815 -20.931  0.00  0.00    +0.026 C 
ATOM     24  C   UNL     1      35.694 -20.546 -20.326  0.00  0.00    +0.113 C 
ATOM     25  C   UNL     1      33.090 -21.412 -20.004  0.00  0.00    +0.031 C 
ATOM     26  C   UNL     1      33.337 -20.272 -20.755  0.00  0.00    +0.005 C 
ATOM     27  C   UNL     1      34.933 -18.664 -21.686  0.00  0.00    +0.002 C 
ATOM     28  C   UNL     1      36.998 -20.091 -20.503  0.00  0.00    +0.085 C 
ATOM     29  C   UNL     1      36.247 -18.232 -21.846  0.00  0.00    -0.004 C 
ATOM     30  C   UNL     1      37.280 -18.947 -21.253  0.00  0.00    -0.019 C 
ENDBRANCH  20  22
ENDBRANCH  19  20
ENDBRANCH   4  19
TORSDOF 5
ENDMDL
MODEL 8
REMARK VINA RESULT:     -12.9      7.584     14.049
REMARK  Name = 11610553
REMARK  5 active torsions:
REMARK  status: ('A' for Active; 'I' for Inactive)
REMARK    1  A    between atoms: C_1  and  C_9
REMARK    2  A    between atoms: C_4  and  O_19
REMARK    3  A    between atoms: C_10  and  C_14
REMARK    4  A    between atoms: O_19  and  C_20
REMARK    5  A    between atoms: C_20  and  C_22
REMARK                            x       y       z     vdW  Elec       q    Type
REMARK                         _______ _______ _______ _____ _____    ______ ____
ROOT
ATOM      1  C   UNL     1      34.998 -22.949 -16.318  0.00  0.00    +0.015 C 
ATOM      2  C   UNL     1      34.139 -22.954 -17.417  0.00  0.00    +0.004 C 
ATOM      3  C   UNL     1      36.278 -22.406 -16.435  0.00  0.00    +0.004 C 
ATOM      4  C   UNL     1      35.837 -21.877 -18.743  0.00  0.00    +0.139 C 
ATOM      5  C   UNL     1      34.561 -22.416 -18.633  0.00  0.00    +0.037 C 
ATOM      6  C   UNL     1      36.699 -21.869 -17.651  0.00  0.00    +0.037 C 
ENDROOT
BRANCH   1   9
ATOM      7  N   UNL     1      33.405 -23.113 -14.455  0.00  0.00    -0.236 N 
ATOM      8  N   UNL     1      33.161 -23.740 -13.292  0.00  0.00    -0.180 NA
ATOM      9  C   UNL     1      34.563 -23.506 -15.061  0.00  0.00    +0.067 C 
ATOM     10  C   UNL     1      35.114 -24.456 -14.235  0.00  0.00    +0.036 C 
ATOM     11  C   UNL     1      34.208 -24.559 -13.163  0.00  0.00    +0.119 C 
ATOM     12  H   UNL     1      32.804 -22.434 -14.836  0.00  0.00    +0.174 HD
BRANCH  10  14
ATOM     13  N   UNL     1      38.750 -26.493 -14.965  0.00  0.00    -0.242 NA
ATOM     14  C   UNL     1      36.344 -25.146 -14.481  0.00  0.00    +0.006 C 
ATOM     15  C   UNL     1      36.351 -26.329 -15.215  0.00  0.00    +0.021 C 
ATOM     16  C   UNL     1      37.545 -24.638 -13.991  0.00  0.00    +0.021 C 
ATOM     17  C   UNL     1      37.567 -26.958 -15.426  0.00  0.00    +0.099 C 
ATOM     18  C   UNL     1      38.708 -25.343 -14.257  0.00  0.00    +0.099 C 
ENDBRANCH  10  14
ENDBRANCH   1   9
BRANCH   4  19
ATOM     19  O   UNL     1      36.251 -21.349 -19.937  0.00  0.00    -0.468 OA
BRANCH  19  20
ATOM     20  C   UNL     1      35.286 -21.284 -20.978  0.00  0.00    +0.264 C 
BRANCH  20  22
ATOM     21  N   UNL     1      34.863 -19.818 -22.857  0.00  0.00    -0.406 NA
ATOM     22  C   UNL     1      35.297 -19.919 -21.580  0.00  0.00    +0.152 C 
ATOM     23  C   UNL     1      35.294 -17.450 -22.747  0.00  0.00    +0.026 C 
ATOM     24  C   UNL     1      34.860 -18.602 -23.436  0.00  0.00    +0.113 C 
ATOM     25  C   UNL     1      35.739 -18.850 -20.828  0.00  0.00    +0.031 C 
ATOM     26  C   UNL     1      35.736 -17.598 -21.425  0.00  0.00    +0.005 C 
ATOM     27  C   UNL     1      35.277 -16.196 -23.381  0.00  0.00    +0.002 C 
ATOM     28  C   UNL     1      34.421 -18.454 -24.748  0.00  0.00    +0.085 C 
ATOM     29  C   UNL     1      34.833 -16.076 -24.695  0.00  0.00    -0.004 C 
ATOM     30  C   UNL     1      34.405 -17.207 -25.379  0.00  0.00    -0.019 C 
ENDBRANCH  20  22
ENDBRANCH  19  20
ENDBRANCH   4  19
TORSDOF 5
ENDMDL
MODEL 9
REMARK VINA RESULT:     -12.8      9.262     15.244
REMARK  Name = 11610553
REMARK  5 active torsions:
REMARK  status: ('A' for Active; 'I' for Inactive)
REMARK    1  A    between atoms: C_1  and  C_9
REMARK    2  A    between atoms: C_4  and  O_19
REMARK    3  A    between atoms: C_10  and  C_14
REMARK    4  A    between atoms: O_19  and  C_20
REMARK    5  A    between atoms: C_20  and  C_22
REMARK                            x       y       z     vdW  Elec       q    Type
REMARK                         _______ _______ _______ _____ _____    ______ ____
ROOT
ATOM      1  C   UNL     1      37.264 -24.132 -15.540  0.00  0.00    +0.015 C 
ATOM      2  C   UNL     1      37.330 -22.913 -16.214  0.00  0.00    +0.004 C 
ATOM      3  C   UNL     1      36.058 -24.829 -15.474  0.00  0.00    +0.004 C 
ATOM      4  C   UNL     1      34.989 -23.089 -16.751  0.00  0.00    +0.139 C 
ATOM      5  C   UNL     1      36.188 -22.390 -16.821  0.00  0.00    +0.037 C 
ATOM      6  C   UNL     1      34.916 -24.306 -16.081  0.00  0.00    +0.037 C 
ENDROOT
BRANCH   1   9
ATOM      7  N   UNL     1      39.535 -25.067 -15.632  0.00  0.00    -0.236 N 
ATOM      8  N   UNL     1      40.540 -25.544 -14.879  0.00  0.00    -0.180 NA
ATOM      9  C   UNL     1      38.445 -24.673 -14.912  0.00  0.00    +0.067 C 
ATOM     10  C   UNL     1      38.760 -24.910 -13.596  0.00  0.00    +0.036 C 
ATOM     11  C   UNL     1      40.061 -25.446 -13.636  0.00  0.00    +0.119 C 
ATOM     12  H   UNL     1      39.581 -25.006 -16.613  0.00  0.00    +0.174 HD
BRANCH  10  14
ATOM     13  N   UNL     1      36.218 -24.123 -10.306  0.00  0.00    -0.242 NA
ATOM     14  C   UNL     1      37.899 -24.644 -12.483  0.00  0.00    +0.006 C 
ATOM     15  C   UNL     1      36.990 -25.606 -12.052  0.00  0.00    +0.021 C 
ATOM     16  C   UNL     1      37.966 -23.420 -11.821  0.00  0.00    +0.021 C 
ATOM     17  C   UNL     1      36.180 -25.301 -10.971  0.00  0.00    +0.099 C 
ATOM     18  C   UNL     1      37.112 -23.212 -10.750  0.00  0.00    +0.099 C 
ENDBRANCH  10  14
ENDBRANCH   1   9
BRANCH   4  19
ATOM     19  O   UNL     1      33.867 -22.575 -17.347  0.00  0.00    -0.468 OA
BRANCH  19  20
ATOM     20  C   UNL     1      33.647 -22.926 -18.706  0.00  0.00    +0.264 C 
BRANCH  20  22
ATOM     21  N   UNL     1      35.273 -21.440 -19.708  0.00  0.00    -0.406 NA
ATOM     22  C   UNL     1      33.965 -21.758 -19.578  0.00  0.00    +0.152 C 
ATOM     23  C   UNL     1      34.620 -19.628 -21.156  0.00  0.00    +0.026 C 
ATOM     24  C   UNL     1      35.600 -20.390 -20.485  0.00  0.00    +0.113 C 
ATOM     25  C   UNL     1      32.938 -21.072 -20.194  0.00  0.00    +0.031 C 
ATOM     26  C   UNL     1      33.277 -19.991 -20.994  0.00  0.00    +0.005 C 
ATOM     27  C   UNL     1      34.996 -18.538 -21.959  0.00  0.00    +0.002 C 
ATOM     28  C   UNL     1      36.934 -20.028 -20.647  0.00  0.00    +0.085 C 
ATOM     29  C   UNL     1      36.338 -18.198 -22.103  0.00  0.00    -0.004 C 
ATOM     30  C   UNL     1      37.308 -18.944 -21.445  0.00  0.00    -0.019 C 
ENDBRANCH  20  22
ENDBRANCH  19  20
ENDBRANCH   4  19
TORSDOF 5
ENDMDL
