MODEL 1
REMARK VINA RESULT:     -13.4      0.000      0.000
REMARK  Name = 16040279
REMARK  5 active torsions:
REMARK  status: ('A' for Active; 'I' for Inactive)
REMARK    1  A    between atoms: N_2  and  C_21
REMARK    2  A    between atoms: C_3  and  C_11
REMARK    3  A    between atoms: C_4  and  N_17
REMARK    4  A    between atoms: C_21  and  C_22
REMARK    5  A    between atoms: C_22  and  C_25
REMARK                            x       y       z     vdW  Elec       q    Type
REMARK                         _______ _______ _______ _____ _____    ______ ____
ROOT
ATOM      1  O   UNL     1      35.187 -16.380 -20.386  0.00  0.00    -0.275 OA
ATOM      2  N   UNL     1      34.828 -16.680 -22.659  0.00  0.00    -0.281 N 
ATOM      3  C   UNL     1      34.091 -13.911 -22.869  0.00  0.00    +0.015 C 
ATOM      4  C   UNL     1      33.617 -14.899 -23.950  0.00  0.00    -0.041 C 
ATOM      5  C   UNL     1      34.573 -16.090 -23.972  0.00  0.00    +0.072 C 
ATOM      6  C   UNL     1      34.058 -14.622 -21.514  0.00  0.00    +0.088 C 
ATOM      7  C   UNL     1      34.773 -15.959 -21.470  0.00  0.00    +0.226 C 
ENDROOT
BRANCH   3  11
ATOM      8  F   UNL     1      34.723 -11.604 -24.396  0.00  0.00    -0.204 F 
ATOM      9  F   UNL     1      30.385 -11.275 -21.082  0.00  0.00    -0.202 F 
ATOM     10  F   UNL     1      31.108  -9.127 -22.611  0.00  0.00    -0.202 F 
ATOM     11  C   UNL     1      33.289 -12.621 -22.801  0.00  0.00    +0.006 C 
ATOM     12  C   UNL     1      33.661 -11.530 -23.581  0.00  0.00    +0.138 C 
ATOM     13  C   UNL     1      32.186 -12.540 -21.957  0.00  0.00    +0.030 C 
ATOM     14  C   UNL     1      31.447 -11.358 -21.892  0.00  0.00    +0.167 C 
ATOM     15  C   UNL     1      32.924 -10.347 -23.517  0.00  0.00    +0.061 C 
ATOM     16  C   UNL     1      31.816 -10.262 -22.672  0.00  0.00    +0.170 C 
ENDBRANCH   3  11
BRANCH   4  17
ATOM     17  N   UNL     1      33.605 -14.292 -25.283  0.00  0.00    +0.383 N 
ATOM     18  H   UNL     1      34.559 -14.234 -25.639  0.00  0.00    -0.089 HD
ATOM     19  H   UNL     1      33.205 -13.354 -25.226  0.00  0.00    -0.089 HD
ATOM     20  H   UNL     1      33.042 -14.864 -25.913  0.00  0.00    -0.089 HD
ENDBRANCH   4  17
BRANCH   2  21
ATOM     21  C   UNL     1      35.418 -18.013 -22.666  0.00  0.00    +0.098 C 
BRANCH  21  22
ATOM     22  C   UNL     1      34.366 -19.119 -22.591  0.00  0.00    +0.048 C 
BRANCH  22  25
ATOM     23  O   UNL     1      32.765 -22.087 -18.986  0.00  0.00    -0.435 OA
ATOM     24  O   UNL     1      35.003 -22.592 -18.249  0.00  0.00    -0.435 OA
ATOM     25  C   UNL     1      34.575 -20.051 -21.424  0.00  0.00    -0.017 C 
ATOM     26  C   UNL     1      33.468 -20.604 -20.794  0.00  0.00    +0.036 C 
ATOM     27  C   UNL     1      35.878 -20.334 -21.007  0.00  0.00    -0.001 C 
ATOM     28  C   UNL     1      33.709 -21.451 -19.730  0.00  0.00    +0.176 C 
ATOM     29  C   UNL     1      34.988 -21.739 -19.309  0.00  0.00    +0.176 C 
ATOM     30  C   UNL     1      36.095 -21.195 -19.928  0.00  0.00    +0.040 C 
ATOM     31  C   UNL     1      33.592 -22.808 -18.050  0.00  0.00    +0.429 C 
ENDBRANCH  22  25
ENDBRANCH  21  22
ENDBRANCH   2  21
TORSDOF 5
ENDMDL
MODEL 2
REMARK VINA RESULT:     -13.2      3.756      6.431
REMARK  Name = 16040279
REMARK  5 active torsions:
REMARK  status: ('A' for Active; 'I' for Inactive)
REMARK    1  A    between atoms: N_2  and  C_21
REMARK    2  A    between atoms: C_3  and  C_11
REMARK    3  A    between atoms: C_4  and  N_17
REMARK    4  A    between atoms: C_21  and  C_22
REMARK    5  A    between atoms: C_22  and  C_25
REMARK                            x       y       z     vdW  Elec       q    Type
REMARK                         _______ _______ _______ _____ _____    ______ ____
ROOT
ATOM      1  O   UNL     1      33.069 -21.297 -19.692  0.00  0.00    -0.275 OA
ATOM      2  N   UNL     1      35.387 -21.198 -19.714  0.00  0.00    -0.281 N 
ATOM      3  C   UNL     1      35.233 -18.896 -21.427  0.00  0.00    +0.015 C 
ATOM      4  C   UNL     1      36.530 -19.724 -21.396  0.00  0.00    -0.041 C 
ATOM      5  C   UNL     1      36.602 -20.463 -20.061  0.00  0.00    +0.072 C 
ATOM      6  C   UNL     1      34.044 -19.852 -21.303  0.00  0.00    +0.088 C 
ATOM      7  C   UNL     1      34.116 -20.824 -20.141  0.00  0.00    +0.226 C 
ENDROOT
BRANCH   3  11
ATOM      8  F   UNL     1      34.951 -19.944 -24.049  0.00  0.00    -0.204 F 
ATOM      9  F   UNL     1      34.906 -14.499 -23.534  0.00  0.00    -0.202 F 
ATOM     10  F   UNL     1      34.643 -15.645 -26.002  0.00  0.00    -0.202 F 
ATOM     11  C   UNL     1      35.074 -18.022 -22.661  0.00  0.00    +0.006 C 
ATOM     12  C   UNL     1      34.941 -18.610 -23.915  0.00  0.00    +0.138 C 
ATOM     13  C   UNL     1      35.064 -16.637 -22.527  0.00  0.00    +0.030 C 
ATOM     14  C   UNL     1      34.917 -15.832 -23.658  0.00  0.00    +0.167 C 
ATOM     15  C   UNL     1      34.796 -17.806 -25.046  0.00  0.00    +0.061 C 
ATOM     16  C   UNL     1      34.784 -16.417 -24.917  0.00  0.00    +0.170 C 
ENDBRANCH   3  11
BRANCH   4  17
ATOM     17  N   UNL     1      37.723 -18.884 -21.523  0.00  0.00    +0.383 N 
ATOM     18  H   UNL     1      37.442 -17.909 -21.633  0.00  0.00    -0.089 HD
ATOM     19  H   UNL     1      38.260 -19.178 -22.341  0.00  0.00    -0.089 HD
ATOM     20  H   UNL     1      38.298 -18.980 -20.686  0.00  0.00    -0.089 HD
ENDBRANCH   4  17
BRANCH   2  21
ATOM     21  C   UNL     1      35.528 -22.199 -18.664  0.00  0.00    +0.098 C 
BRANCH  21  22
ATOM     22  C   UNL     1      36.642 -21.859 -17.676  0.00  0.00    +0.048 C 
BRANCH  22  25
ATOM     23  O   UNL     1      38.669 -24.350 -13.925  0.00  0.00    -0.435 OA
ATOM     24  O   UNL     1      36.523 -24.885 -12.970  0.00  0.00    -0.435 OA
ATOM     25  C   UNL     1      36.573 -22.672 -16.408  0.00  0.00    -0.017 C 
ATOM     26  C   UNL     1      37.752 -23.099 -15.812  0.00  0.00    +0.036 C 
ATOM     27  C   UNL     1      35.322 -22.976 -15.865  0.00  0.00    -0.001 C 
ATOM     28  C   UNL     1      37.638 -23.841 -14.654  0.00  0.00    +0.176 C 
ATOM     29  C   UNL     1      36.412 -24.147 -14.108  0.00  0.00    +0.176 C 
ATOM     30  C   UNL     1      35.233 -23.729 -14.691  0.00  0.00    +0.040 C 
ATOM     31  C   UNL     1      37.955 -25.009 -12.860  0.00  0.00    +0.429 C 
ENDBRANCH  22  25
ENDBRANCH  21  22
ENDBRANCH   2  21
TORSDOF 5
ENDMDL
MODEL 3
REMARK VINA RESULT:     -13.1      1.584      2.737
REMARK  Name = 16040279
REMARK  5 active torsions:
REMARK  status: ('A' for Active; 'I' for Inactive)
REMARK    1  A    between atoms: N_2  and  C_21
REMARK    2  A    between atoms: C_3  and  C_11
REMARK    3  A    between atoms: C_4  and  N_17
REMARK    4  A    between atoms: C_21  and  C_22
REMARK    5  A    between atoms: C_22  and  C_25
REMARK                            x       y       z     vdW  Elec       q    Type
REMARK                         _______ _______ _______ _____ _____    ______ ____
ROOT
ATOM      1  O   UNL     1      34.477 -17.540 -25.441  0.00  0.00    -0.275 OA
ATOM      2  N   UNL     1      35.115 -17.487 -23.210  0.00  0.00    -0.281 N 
ATOM      3  C   UNL     1      33.769 -14.964 -22.926  0.00  0.00    +0.015 C 
ATOM      4  C   UNL     1      34.871 -15.346 -21.921  0.00  0.00    -0.041 C 
ATOM      5  C   UNL     1      34.995 -16.867 -21.892  0.00  0.00    +0.072 C 
ATOM      6  C   UNL     1      34.178 -15.474 -24.311  0.00  0.00    +0.088 C 
ATOM      7  C   UNL     1      34.572 -16.938 -24.368  0.00  0.00    +0.226 C 
ENDROOT
BRANCH   3  11
ATOM      8  F   UNL     1      31.737 -13.730 -21.376  0.00  0.00    -0.204 F 
ATOM      9  F   UNL     1      34.624 -10.497 -24.711  0.00  0.00    -0.202 F 
ATOM     10  F   UNL     1      32.635  -9.441 -23.160  0.00  0.00    -0.202 F 
ATOM     11  C   UNL     1      33.461 -13.477 -22.987  0.00  0.00    +0.006 C 
ATOM     12  C   UNL     1      32.448 -12.944 -22.196  0.00  0.00    +0.138 C 
ATOM     13  C   UNL     1      34.197 -12.656 -23.837  0.00  0.00    +0.030 C 
ATOM     14  C   UNL     1      33.918 -11.290 -23.896  0.00  0.00    +0.167 C 
ATOM     15  C   UNL     1      32.168 -11.578 -22.255  0.00  0.00    +0.061 C 
ATOM     16  C   UNL     1      32.904 -10.752 -23.104  0.00  0.00    +0.170 C 
ENDBRANCH   3  11
BRANCH   4  17
ATOM     17  N   UNL     1      34.565 -14.881 -20.566  0.00  0.00    +0.383 N 
ATOM     18  H   UNL     1      35.037 -15.479 -19.888  0.00  0.00    -0.089 HD
ATOM     19  H   UNL     1      33.557 -14.921 -20.413  0.00  0.00    -0.089 HD
ATOM     20  H   UNL     1      34.888 -13.919 -20.455  0.00  0.00    -0.089 HD
ENDBRANCH   4  17
BRANCH   2  21
ATOM     21  C   UNL     1      35.602 -18.861 -23.225  0.00  0.00    +0.098 C 
BRANCH  21  22
ATOM     22  C   UNL     1      36.203 -19.284 -21.886  0.00  0.00    +0.048 C 
BRANCH  22  25
ATOM     23  O   UNL     1      35.189 -22.689 -18.457  0.00  0.00    -0.435 OA
ATOM     24  O   UNL     1      32.810 -22.428 -18.736  0.00  0.00    -0.435 OA
ATOM     25  C   UNL     1      35.259 -20.115 -21.053  0.00  0.00    -0.017 C 
ATOM     26  C   UNL     1      35.781 -21.018 -20.137  0.00  0.00    +0.036 C 
ATOM     27  C   UNL     1      33.882 -19.954 -21.226  0.00  0.00    -0.001 C 
ATOM     28  C   UNL     1      34.878 -21.756 -19.399  0.00  0.00    +0.176 C 
ATOM     29  C   UNL     1      33.519 -21.608 -19.558  0.00  0.00    +0.176 C 
ATOM     30  C   UNL     1      32.989 -20.713 -20.465  0.00  0.00    +0.040 C 
ATOM     31  C   UNL     1      33.873 -23.109 -18.042  0.00  0.00    +0.429 C 
ENDBRANCH  22  25
ENDBRANCH  21  22
ENDBRANCH   2  21
TORSDOF 5
ENDMDL
MODEL 4
REMARK VINA RESULT:     -13.1      1.960      2.962
REMARK  Name = 16040279
REMARK  5 active torsions:
REMARK  status: ('A' for Active; 'I' for Inactive)
REMARK    1  A    between atoms: N_2  and  C_21
REMARK    2  A    between atoms: C_3  and  C_11
REMARK    3  A    between atoms: C_4  and  N_17
REMARK    4  A    between atoms: C_21  and  C_22
REMARK    5  A    between atoms: C_22  and  C_25
REMARK                            x       y       z     vdW  Elec       q    Type
REMARK                         _______ _______ _______ _____ _____    ______ ____
ROOT
ATOM      1  O   UNL     1      33.425 -15.528 -26.502  0.00  0.00    -0.275 OA
ATOM      2  N   UNL     1      34.629 -15.945 -24.562  0.00  0.00    -0.281 N 
ATOM      3  C   UNL     1      33.212 -13.805 -23.270  0.00  0.00    +0.015 C 
ATOM      4  C   UNL     1      34.569 -14.259 -22.702  0.00  0.00    -0.041 C 
ATOM      5  C   UNL     1      34.816 -15.703 -23.133  0.00  0.00    +0.072 C 
ATOM      6  C   UNL     1      33.276 -13.882 -24.798  0.00  0.00    +0.088 C 
ATOM      7  C   UNL     1      33.754 -15.209 -25.357  0.00  0.00    +0.226 C 
ENDROOT
BRANCH   3  11
ATOM      8  F   UNL     1      31.602 -13.315 -20.985  0.00  0.00    -0.204 F 
ATOM      9  F   UNL     1      33.179  -8.958 -23.890  0.00  0.00    -0.202 F 
ATOM     10  F   UNL     1      31.624  -8.633 -21.664  0.00  0.00    -0.202 F 
ATOM     11  C   UNL     1      32.783 -12.412 -22.835  0.00  0.00    +0.006 C 
ATOM     12  C   UNL     1      31.992 -12.252 -21.702  0.00  0.00    +0.138 C 
ATOM     13  C   UNL     1      33.185 -11.305 -23.576  0.00  0.00    +0.030 C 
ATOM     14  C   UNL     1      32.794 -10.026 -23.180  0.00  0.00    +0.167 C 
ATOM     15  C   UNL     1      31.599 -10.973 -21.306  0.00  0.00    +0.061 C 
ATOM     16  C   UNL     1      32.001  -9.860 -22.045  0.00  0.00    +0.170 C 
ENDBRANCH   3  11
BRANCH   4  17
ATOM     17  N   UNL     1      34.600 -14.202 -21.239  0.00  0.00    +0.383 N 
ATOM     18  H   UNL     1      33.759 -13.736 -20.899  0.00  0.00    -0.089 HD
ATOM     19  H   UNL     1      35.424 -13.680 -20.937  0.00  0.00    -0.089 HD
ATOM     20  H   UNL     1      34.640 -15.149 -20.862  0.00  0.00    -0.089 HD
ENDBRANCH   4  17
BRANCH   2  21
ATOM     21  C   UNL     1      35.201 -17.182 -25.078  0.00  0.00    +0.098 C 
BRANCH  21  22
ATOM     22  C   UNL     1      34.523 -18.425 -24.503  0.00  0.00    +0.048 C 
BRANCH  22  25
ATOM     23  O   UNL     1      34.615 -21.043 -20.318  0.00  0.00    -0.435 OA
ATOM     24  O   UNL     1      36.869 -20.362 -19.805  0.00  0.00    -0.435 OA
ATOM     25  C   UNL     1      35.186 -18.928 -23.245  0.00  0.00    -0.017 C 
ATOM     26  C   UNL     1      34.483 -19.779 -22.403  0.00  0.00    +0.036 C 
ATOM     27  C   UNL     1      36.493 -18.524 -22.960  0.00  0.00    -0.001 C 
ATOM     28  C   UNL     1      35.131 -20.212 -21.264  0.00  0.00    +0.176 C 
ATOM     29  C   UNL     1      36.419 -19.823 -20.971  0.00  0.00    +0.176 C 
ATOM     30  C   UNL     1      37.127 -18.978 -21.800  0.00  0.00    +0.040 C 
ATOM     31  C   UNL     1      35.722 -21.134 -19.397  0.00  0.00    +0.429 C 
ENDBRANCH  22  25
ENDBRANCH  21  22
ENDBRANCH   2  21
TORSDOF 5
ENDMDL
MODEL 5
REMARK VINA RESULT:     -13.0      1.697      2.253
REMARK  Name = 16040279
REMARK  5 active torsions:
REMARK  status: ('A' for Active; 'I' for Inactive)
REMARK    1  A    between atoms: N_2  and  C_21
REMARK    2  A    between atoms: C_3  and  C_11
REMARK    3  A    between atoms: C_4  and  N_17
REMARK    4  A    between atoms: C_21  and  C_22
REMARK    5  A    between atoms: C_22  and  C_25
REMARK                            x       y       z     vdW  Elec       q    Type
REMARK                         _______ _______ _______ _____ _____    ______ ____
ROOT
ATOM      1  O   UNL     1      33.704 -16.015 -26.223  0.00  0.00    -0.275 OA
ATOM      2  N   UNL     1      34.728 -16.259 -24.155  0.00  0.00    -0.281 N 
ATOM      3  C   UNL     1      33.239 -13.996 -23.195  0.00  0.00    +0.015 C 
ATOM      4  C   UNL     1      34.534 -14.406 -22.471  0.00  0.00    -0.041 C 
ATOM      5  C   UNL     1      34.794 -15.886 -22.743  0.00  0.00    +0.072 C 
ATOM      6  C   UNL     1      33.434 -14.216 -24.698  0.00  0.00    +0.088 C 
ATOM      7  C   UNL     1      33.938 -15.593 -25.088  0.00  0.00    +0.226 C 
ENDROOT
BRANCH   3  11
ATOM      8  F   UNL     1      34.413 -11.744 -24.461  0.00  0.00    -0.204 F 
ATOM      9  F   UNL     1      30.366 -10.768 -20.914  0.00  0.00    -0.202 F 
ATOM     10  F   UNL     1      31.587  -8.691 -22.206  0.00  0.00    -0.202 F 
ATOM     11  C   UNL     1      32.796 -12.566 -22.930  0.00  0.00    +0.006 C 
ATOM     12  C   UNL     1      33.421 -11.512 -23.591  0.00  0.00    +0.138 C 
ATOM     13  C   UNL     1      31.767 -12.321 -22.027  0.00  0.00    +0.030 C 
ATOM     14  C   UNL     1      31.357 -11.010 -21.782  0.00  0.00    +0.167 C 
ATOM     15  C   UNL     1      33.013 -10.201 -23.345  0.00  0.00    +0.061 C 
ATOM     16  C   UNL     1      31.980  -9.950 -22.441  0.00  0.00    +0.170 C 
ENDBRANCH   3  11
BRANCH   4  17
ATOM     17  N   UNL     1      34.438 -14.213 -21.022  0.00  0.00    +0.383 N 
ATOM     18  H   UNL     1      35.282 -13.749 -20.685  0.00  0.00    -0.089 HD
ATOM     19  H   UNL     1      34.342 -15.121 -20.564  0.00  0.00    -0.089 HD
ATOM     20  H   UNL     1      33.624 -13.637 -20.808  0.00  0.00    -0.089 HD
ENDBRANCH   4  17
BRANCH   2  21
ATOM     21  C   UNL     1      35.322 -17.544 -24.502  0.00  0.00    +0.098 C 
BRANCH  21  22
ATOM     22  C   UNL     1      34.581 -18.721 -23.870  0.00  0.00    +0.048 C 
BRANCH  22  25
ATOM     23  O   UNL     1      34.773 -21.520 -19.807  0.00  0.00    -0.435 OA
ATOM     24  O   UNL     1      36.974 -20.729 -19.226  0.00  0.00    -0.435 OA
ATOM     25  C   UNL     1      35.256 -19.241 -22.625  0.00  0.00    -0.017 C 
ATOM     26  C   UNL     1      34.594 -20.171 -21.835  0.00  0.00    +0.036 C 
ATOM     27  C   UNL     1      36.532 -18.773 -22.299  0.00  0.00    -0.001 C 
ATOM     28  C   UNL     1      35.251 -20.617 -20.706  0.00  0.00    +0.176 C 
ATOM     29  C   UNL     1      36.508 -20.164 -20.373  0.00  0.00    +0.176 C 
ATOM     30  C   UNL     1      37.176 -19.241 -21.151  0.00  0.00    +0.040 C 
ATOM     31  C   UNL     1      35.870 -21.587 -18.873  0.00  0.00    +0.429 C 
ENDBRANCH  22  25
ENDBRANCH  21  22
ENDBRANCH   2  21
TORSDOF 5
ENDMDL
MODEL 6
REMARK VINA RESULT:     -12.9      3.856      6.604
REMARK  Name = 16040279
REMARK  5 active torsions:
REMARK  status: ('A' for Active; 'I' for Inactive)
REMARK    1  A    between atoms: N_2  and  C_21
REMARK    2  A    between atoms: C_3  and  C_11
REMARK    3  A    between atoms: C_4  and  N_17
REMARK    4  A    between atoms: C_21  and  C_22
REMARK    5  A    between atoms: C_22  and  C_25
REMARK                            x       y       z     vdW  Elec       q    Type
REMARK                         _______ _______ _______ _____ _____    ______ ____
ROOT
ATOM      1  O   UNL     1      33.102 -21.512 -19.538  0.00  0.00    -0.275 OA
ATOM      2  N   UNL     1      35.417 -21.346 -19.504  0.00  0.00    -0.281 N 
ATOM      3  C   UNL     1      35.231 -18.967 -21.105  0.00  0.00    +0.015 C 
ATOM      4  C   UNL     1      36.551 -19.759 -21.086  0.00  0.00    -0.041 C 
ATOM      5  C   UNL     1      36.617 -20.561 -19.788  0.00  0.00    +0.072 C 
ATOM      6  C   UNL     1      34.068 -19.961 -21.054  0.00  0.00    +0.088 C 
ATOM      7  C   UNL     1      34.145 -20.987 -19.940  0.00  0.00    +0.226 C 
ENDROOT
BRANCH   3  11
ATOM      8  F   UNL     1      35.040 -16.145 -20.865  0.00  0.00    -0.204 F 
ATOM      9  F   UNL     1      34.816 -18.229 -25.917  0.00  0.00    -0.202 F 
ATOM     10  F   UNL     1      34.643 -15.526 -25.540  0.00  0.00    -0.202 F 
ATOM     11  C   UNL     1      35.073 -18.038 -22.298  0.00  0.00    +0.006 C 
ATOM     12  C   UNL     1      34.985 -16.663 -22.100  0.00  0.00    +0.138 C 
ATOM     13  C   UNL     1      35.015 -18.571 -23.582  0.00  0.00    +0.030 C 
ATOM     14  C   UNL     1      34.870 -17.721 -24.680  0.00  0.00    +0.167 C 
ATOM     15  C   UNL     1      34.839 -15.813 -23.197  0.00  0.00    +0.061 C 
ATOM     16  C   UNL     1      34.782 -16.343 -24.487  0.00  0.00    +0.170 C 
ENDBRANCH   3  11
BRANCH   4  17
ATOM     17  N   UNL     1      37.721 -18.881 -21.146  0.00  0.00    +0.383 N 
ATOM     18  H   UNL     1      37.890 -18.605 -22.113  0.00  0.00    -0.089 HD
ATOM     19  H   UNL     1      38.538 -19.377 -20.786  0.00  0.00    -0.089 HD
ATOM     20  H   UNL     1      37.552 -18.049 -20.580  0.00  0.00    -0.089 HD
ENDBRANCH   4  17
BRANCH   2  21
ATOM     21  C   UNL     1      35.566 -22.394 -18.502  0.00  0.00    +0.098 C 
BRANCH  21  22
ATOM     22  C   UNL     1      36.559 -22.018 -17.404  0.00  0.00    +0.048 C 
BRANCH  22  25
ATOM     23  O   UNL     1      38.808 -24.494 -13.773  0.00  0.00    -0.435 OA
ATOM     24  O   UNL     1      36.797 -25.681 -13.179  0.00  0.00    -0.435 OA
ATOM     25  C   UNL     1      36.587 -23.012 -16.270  0.00  0.00    -0.017 C 
ATOM     26  C   UNL     1      37.776 -23.226 -15.586  0.00  0.00    +0.036 C 
ATOM     27  C   UNL     1      35.413 -23.694 -15.937  0.00  0.00    -0.001 C 
ATOM     28  C   UNL     1      37.753 -24.145 -14.557  0.00  0.00    +0.176 C 
ATOM     29  C   UNL     1      36.604 -24.824 -14.219  0.00  0.00    +0.176 C 
ATOM     30  C   UNL     1      35.416 -24.620 -14.891  0.00  0.00    +0.040 C 
ATOM     31  C   UNL     1      38.195 -25.467 -12.902  0.00  0.00    +0.429 C 
ENDBRANCH  22  25
ENDBRANCH  21  22
ENDBRANCH   2  21
TORSDOF 5
ENDMDL
MODEL 7
REMARK VINA RESULT:     -12.9      4.478      9.052
REMARK  Name = 16040279
REMARK  5 active torsions:
REMARK  status: ('A' for Active; 'I' for Inactive)
REMARK    1  A    between atoms: N_2  and  C_21
REMARK    2  A    between atoms: C_3  and  C_11
REMARK    3  A    between atoms: C_4  and  N_17
REMARK    4  A    between atoms: C_21  and  C_22
REMARK    5  A    between atoms: C_22  and  C_25
REMARK                            x       y       z     vdW  Elec       q    Type
REMARK                         _______ _______ _______ _____ _____    ______ ____
ROOT
ATOM      1  O   UNL     1      34.925 -17.139 -25.795  0.00  0.00    -0.275 OA
ATOM      2  N   UNL     1      34.706 -15.710 -23.979  0.00  0.00    -0.281 N 
ATOM      3  C   UNL     1      35.465 -17.868 -22.240  0.00  0.00    +0.015 C 
ATOM      4  C   UNL     1      34.680 -16.676 -21.662  0.00  0.00    -0.041 C 
ATOM      5  C   UNL     1      34.917 -15.460 -22.555  0.00  0.00    +0.072 C 
ATOM      6  C   UNL     1      34.941 -18.155 -23.650  0.00  0.00    +0.088 C 
ATOM      7  C   UNL     1      34.890 -16.954 -24.575  0.00  0.00    +0.226 C 
ENDROOT
BRANCH   3  11
ATOM      8  F   UNL     1      37.772 -19.153 -21.200  0.00  0.00    -0.204 F 
ATOM      9  F   UNL     1      32.931 -21.418 -20.037  0.00  0.00    -0.202 F 
ATOM     10  F   UNL     1      35.236 -22.552 -19.100  0.00  0.00    -0.202 F 
ATOM     11  C   UNL     1      35.406 -19.130 -21.394  0.00  0.00    +0.006 C 
ATOM     12  C   UNL     1      36.582 -19.703 -20.919  0.00  0.00    +0.138 C 
ATOM     13  C   UNL     1      34.173 -19.704 -21.100  0.00  0.00    +0.030 C 
ATOM     14  C   UNL     1      34.115 -20.862 -20.323  0.00  0.00    +0.167 C 
ATOM     15  C   UNL     1      36.525 -20.861 -20.144  0.00  0.00    +0.061 C 
ATOM     16  C   UNL     1      35.291 -21.440 -19.845  0.00  0.00    +0.170 C 
ENDBRANCH   3  11
BRANCH   4  17
ATOM     17  N   UNL     1      35.111 -16.342 -20.302  0.00  0.00    +0.383 N 
ATOM     18  H   UNL     1      34.294 -16.272 -19.695  0.00  0.00    -0.089 HD
ATOM     19  H   UNL     1      35.605 -15.448 -20.312  0.00  0.00    -0.089 HD
ATOM     20  H   UNL     1      35.733 -17.070 -19.953  0.00  0.00    -0.089 HD
ENDBRANCH   4  17
BRANCH   2  21
ATOM     21  C   UNL     1      34.554 -14.527 -24.816  0.00  0.00    +0.098 C 
BRANCH  21  22
ATOM     22  C   UNL     1      33.115 -14.015 -24.852  0.00  0.00    +0.048 C 
BRANCH  22  25
ATOM     23  O   UNL     1      33.320  -9.313 -23.362  0.00  0.00    -0.435 OA
ATOM     24  O   UNL     1      32.229  -9.807 -21.271  0.00  0.00    -0.435 OA
ATOM     25  C   UNL     1      32.860 -12.905 -23.864  0.00  0.00    -0.017 C 
ATOM     26  C   UNL     1      33.260 -11.613 -24.178  0.00  0.00    +0.036 C 
ATOM     27  C   UNL     1      32.228 -13.206 -22.654  0.00  0.00    -0.001 C 
ATOM     28  C   UNL     1      33.006 -10.631 -23.242  0.00  0.00    +0.176 C 
ATOM     29  C   UNL     1      32.383 -10.914 -22.047  0.00  0.00    +0.176 C 
ATOM     30  C   UNL     1      31.981 -12.193 -21.724  0.00  0.00    +0.040 C 
ATOM     31  C   UNL     1      32.825  -8.797 -22.110  0.00  0.00    +0.429 C 
ENDBRANCH  22  25
ENDBRANCH  21  22
ENDBRANCH   2  21
TORSDOF 5
ENDMDL
MODEL 8
REMARK VINA RESULT:     -12.6      4.327      9.239
REMARK  Name = 16040279
REMARK  5 active torsions:
REMARK  status: ('A' for Active; 'I' for Inactive)
REMARK    1  A    between atoms: N_2  and  C_21
REMARK    2  A    between atoms: C_3  and  C_11
REMARK    3  A    between atoms: C_4  and  N_17
REMARK    4  A    between atoms: C_21  and  C_22
REMARK    5  A    between atoms: C_22  and  C_25
REMARK                            x       y       z     vdW  Elec       q    Type
REMARK                         _______ _______ _______ _____ _____    ______ ____
ROOT
ATOM      1  O   UNL     1      34.848 -14.915 -21.175  0.00  0.00    -0.275 OA
ATOM      2  N   UNL     1      34.979 -16.047 -23.196  0.00  0.00    -0.281 N 
ATOM      3  C   UNL     1      34.423 -18.503 -21.811  0.00  0.00    +0.015 C 
ATOM      4  C   UNL     1      35.118 -18.555 -23.183  0.00  0.00    -0.041 C 
ATOM      5  C   UNL     1      34.771 -17.281 -23.951  0.00  0.00    +0.072 C 
ATOM      6  C   UNL     1      34.947 -17.283 -21.048  0.00  0.00    +0.088 C 
ATOM      7  C   UNL     1      34.887 -15.972 -21.809  0.00  0.00    +0.226 C 
ENDROOT
BRANCH   3  11
ATOM      8  F   UNL     1      32.243 -20.000 -20.783  0.00  0.00    -0.204 F 
ATOM      9  F   UNL     1      37.269 -21.816 -19.619  0.00  0.00    -0.202 F 
ATOM     10  F   UNL     1      35.077 -23.161 -18.692  0.00  0.00    -0.202 F 
ATOM     11  C   UNL     1      34.597 -19.758 -20.970  0.00  0.00    +0.006 C 
ATOM     12  C   UNL     1      33.477 -20.439 -20.501  0.00  0.00    +0.138 C 
ATOM     13  C   UNL     1      35.877 -20.217 -20.675  0.00  0.00    +0.030 C 
ATOM     14  C   UNL     1      36.040 -21.369 -19.905  0.00  0.00    +0.167 C 
ATOM     15  C   UNL     1      33.640 -21.590 -19.729  0.00  0.00    +0.061 C 
ATOM     16  C   UNL     1      34.921 -22.055 -19.432  0.00  0.00    +0.170 C 
ENDBRANCH   3  11
BRANCH   4  17
ATOM     17  N   UNL     1      34.683 -19.706 -23.977  0.00  0.00    +0.383 N 
ATOM     18  H   UNL     1      34.768 -19.486 -24.970  0.00  0.00    -0.089 HD
ATOM     19  H   UNL     1      33.709 -19.921 -23.758  0.00  0.00    -0.089 HD
ATOM     20  H   UNL     1      35.267 -20.513 -23.756  0.00  0.00    -0.089 HD
ENDBRANCH   4  17
BRANCH   2  21
ATOM     21  C   UNL     1      35.023 -14.821 -23.982  0.00  0.00    +0.098 C 
BRANCH  21  22
ATOM     22  C   UNL     1      33.633 -14.343 -24.399  0.00  0.00    +0.048 C 
BRANCH  22  25
ATOM     23  O   UNL     1      33.436  -9.491 -23.505  0.00  0.00    -0.435 OA
ATOM     24  O   UNL     1      31.984  -9.783 -21.605  0.00  0.00    -0.435 OA
ATOM     25  C   UNL     1      33.169 -13.135 -23.623  0.00  0.00    -0.017 C 
ATOM     26  C   UNL     1      33.589 -11.873 -24.020  0.00  0.00    +0.036 C 
ATOM     27  C   UNL     1      32.327 -13.319 -22.522  0.00  0.00    -0.001 C 
ATOM     28  C   UNL     1      33.138 -10.799 -23.279  0.00  0.00    +0.176 C 
ATOM     29  C   UNL     1      32.309 -10.966 -22.193  0.00  0.00    +0.176 C 
ATOM     30  C   UNL     1      31.885 -12.215 -21.789  0.00  0.00    +0.040 C 
ATOM     31  C   UNL     1      32.701  -8.853 -22.441  0.00  0.00    +0.429 C 
ENDBRANCH  22  25
ENDBRANCH  21  22
ENDBRANCH   2  21
TORSDOF 5
ENDMDL
MODEL 9
REMARK VINA RESULT:     -12.5      4.278      9.203
REMARK  Name = 16040279
REMARK  5 active torsions:
REMARK  status: ('A' for Active; 'I' for Inactive)
REMARK    1  A    between atoms: N_2  and  C_21
REMARK    2  A    between atoms: C_3  and  C_11
REMARK    3  A    between atoms: C_4  and  N_17
REMARK    4  A    between atoms: C_21  and  C_22
REMARK    5  A    between atoms: C_22  and  C_25
REMARK                            x       y       z     vdW  Elec       q    Type
REMARK                         _______ _______ _______ _____ _____    ______ ____
ROOT
ATOM      1  O   UNL     1      34.608 -14.422 -20.959  0.00  0.00    -0.275 OA
ATOM      2  N   UNL     1      34.763 -15.382 -23.067  0.00  0.00    -0.281 N 
ATOM      3  C   UNL     1      34.513 -17.978 -21.859  0.00  0.00    +0.015 C 
ATOM      4  C   UNL     1      35.150 -17.856 -23.255  0.00  0.00    -0.041 C 
ATOM      5  C   UNL     1      34.646 -16.571 -23.908  0.00  0.00    +0.072 C 
ATOM      6  C   UNL     1      34.946 -16.771 -21.022  0.00  0.00    +0.088 C 
ATOM      7  C   UNL     1      34.723 -15.420 -21.675  0.00  0.00    +0.226 C 
ENDROOT
BRANCH   3  11
ATOM      8  F   UNL     1      37.169 -18.814 -21.310  0.00  0.00    -0.204 F 
ATOM      9  F   UNL     1      33.131 -22.083 -19.598  0.00  0.00    -0.202 F 
ATOM     10  F   UNL     1      35.738 -22.767 -19.137  0.00  0.00    -0.202 F 
ATOM     11  C   UNL     1      34.846 -19.267 -21.126  0.00  0.00    +0.006 C 
ATOM     12  C   UNL     1      36.174 -19.611 -20.893  0.00  0.00    +0.138 C 
ATOM     13  C   UNL     1      33.817 -20.098 -20.692  0.00  0.00    +0.030 C 
ATOM     14  C   UNL     1      34.118 -21.282 -20.018  0.00  0.00    +0.167 C 
ATOM     15  C   UNL     1      36.477 -20.796 -20.221  0.00  0.00    +0.061 C 
ATOM     16  C   UNL     1      35.448 -21.630 -19.783  0.00  0.00    +0.170 C 
ENDBRANCH   3  11
BRANCH   4  17
ATOM     17  N   UNL     1      34.797 -18.983 -24.121  0.00  0.00    +0.383 N 
ATOM     18  H   UNL     1      34.176 -19.617 -23.618  0.00  0.00    -0.089 HD
ATOM     19  H   UNL     1      35.646 -19.483 -24.391  0.00  0.00    -0.089 HD
ATOM     20  H   UNL     1      34.326 -18.637 -24.957  0.00  0.00    -0.089 HD
ENDBRANCH   4  17
BRANCH   2  21
ATOM     21  C   UNL     1      34.651 -14.102 -23.755  0.00  0.00    +0.098 C 
BRANCH  21  22
ATOM     22  C   UNL     1      33.200 -13.702 -24.013  0.00  0.00    +0.048 C 
BRANCH  22  25
ATOM     23  O   UNL     1      33.003  -8.841 -23.169  0.00  0.00    -0.435 OA
ATOM     24  O   UNL     1      31.687  -9.124 -21.171  0.00  0.00    -0.435 OA
ATOM     25  C   UNL     1      32.774 -12.489 -23.223  0.00  0.00    -0.017 C 
ATOM     26  C   UNL     1      33.150 -11.228 -23.664  0.00  0.00    +0.036 C 
ATOM     27  C   UNL     1      32.012 -12.668 -22.065  0.00  0.00    -0.001 C 
ATOM     28  C   UNL     1      32.737 -10.149 -22.907  0.00  0.00    +0.176 C 
ATOM     29  C   UNL     1      31.986 -10.311 -21.765  0.00  0.00    +0.176 C 
ATOM     30  C   UNL     1      31.606 -11.560 -21.317  0.00  0.00    +0.040 C 
ATOM     31  C   UNL     1      32.334  -8.197 -22.066  0.00  0.00    +0.429 C 
ENDBRANCH  22  25
ENDBRANCH  21  22
ENDBRANCH   2  21
TORSDOF 5
ENDMDL
