MODEL 1
REMARK VINA RESULT:     -13.6      0.000      0.000
REMARK  Name = 24963046
REMARK  6 active torsions:
REMARK  status: ('A' for Active; 'I' for Inactive)
REMARK    1  A    between atoms: N_1  and  C_27
REMARK    2  A    between atoms: C_4  and  C_16
REMARK    3  A    between atoms: C_13  and  C_22
REMARK    4  A    between atoms: N_21  and  C_24
REMARK    5  A    between atoms: C_27  and  C_28
REMARK    6  A    between atoms: C_28  and  N_30
REMARK                            x       y       z     vdW  Elec       q    Type
REMARK                         _______ _______ _______ _____ _____    ______ ____
ROOT
ATOM      1  N   UNL     1      36.015 -22.903 -17.135  0.00  0.00    -0.270 N 
ATOM      2  N   UNL     1      36.561 -21.296 -18.724  0.00  0.00    -0.338 NA
ATOM      3  N   UNL     1      34.352 -22.255 -18.617  0.00  0.00    -0.170 NA
ATOM      4  C   UNL     1      35.425 -18.915 -21.951  0.00  0.00    -0.000 C 
ATOM      5  C   UNL     1      34.503 -19.782 -21.372  0.00  0.00    +0.004 C 
ATOM      6  C   UNL     1      34.883 -20.587 -20.284  0.00  0.00    +0.050 C 
ATOM      7  C   UNL     1      35.623 -22.117 -18.207  0.00  0.00    +0.145 C 
ATOM      8  C   UNL     1      36.719 -18.851 -21.444  0.00  0.00    +0.003 C 
ATOM      9  C   UNL     1      36.187 -20.532 -19.764  0.00  0.00    +0.146 C 
ATOM     10  C   UNL     1      37.088 -19.654 -20.362  0.00  0.00    +0.033 C 
ATOM     11  C   UNL     1      34.011 -21.474 -19.661  0.00  0.00    +0.114 C 
ATOM     12  H   UNL     1      35.350 -23.511 -16.738  0.00  0.00    +0.159 HD
ENDROOT
BRANCH   4  16
ATOM     13  C   UNL     1      34.356 -15.926 -23.910  0.00  0.00    +0.053 C 
ATOM     14  C   UNL     1      34.730 -16.745 -22.845  0.00  0.00    +0.004 C 
ATOM     15  C   UNL     1      34.292 -16.447 -25.202  0.00  0.00    +0.004 C 
ATOM     16  C   UNL     1      35.040 -18.085 -23.071  0.00  0.00    -0.004 C 
ATOM     17  C   UNL     1      34.976 -18.607 -24.364  0.00  0.00    -0.022 C 
ATOM     18  C   UNL     1      34.602 -17.788 -25.429  0.00  0.00    -0.004 C 
ATOM     19  C   UNL     1      35.301 -20.040 -24.645  0.00  0.00    +0.031 C 
BRANCH  13  22
ATOM     20  O   UNL     1      34.204 -13.678 -24.568  0.00  0.00    -0.270 OA
ATOM     21  N   UNL     1      33.546 -14.190 -22.406  0.00  0.00    -0.302 N 
ATOM     22  C   UNL     1      34.032 -14.527 -23.675  0.00  0.00    +0.246 C 
ATOM     23  H   UNL     1      33.433 -14.910 -21.743  0.00  0.00    +0.150 HD
BRANCH  21  24
ATOM     24  C   UNL     1      33.205 -12.848 -22.022  0.00  0.00    +0.072 C 
ATOM     25  C   UNL     1      31.858 -12.268 -22.340  0.00  0.00    +0.021 C 
ATOM     26  C   UNL     1      32.224 -12.583 -20.919  0.00  0.00    +0.021 C 
ENDBRANCH  21  24
ENDBRANCH  13  22
ENDBRANCH   4  16
BRANCH   1  27
ATOM     27  C   UNL     1      37.341 -22.880 -16.567  0.00  0.00    +0.075 C 
BRANCH  27  28
ATOM     28  C   UNL     1      37.249 -22.926 -15.047  0.00  0.00    -0.055 C 
BRANCH  28  30
ATOM     29  O   UNL     1      38.639 -26.881 -14.851  0.00  0.00    -0.358 OA
ATOM     30  N   UNL     1      37.816 -24.174 -14.541  0.00  0.00    +0.391 N 
ATOM     31  C   UNL     1      39.041 -24.525 -15.274  0.00  0.00    -0.045 C 
ATOM     32  C   UNL     1      36.840 -25.268 -14.637  0.00  0.00    -0.045 C 
ATOM     33  C   UNL     1      39.607 -25.837 -14.737  0.00  0.00    +0.119 C 
ATOM     34  C   UNL     1      37.458 -26.561 -14.114  0.00  0.00    +0.119 C 
ATOM     35  H   UNL     1      38.053 -24.033 -13.559  0.00  0.00    -0.079 HD
ENDBRANCH  28  30
ENDBRANCH  27  28
ENDBRANCH   1  27
TORSDOF 6
ENDMDL
MODEL 2
REMARK VINA RESULT:     -13.5      1.488      1.750
REMARK  Name = 24963046
REMARK  6 active torsions:
REMARK  status: ('A' for Active; 'I' for Inactive)
REMARK    1  A    between atoms: N_1  and  C_27
REMARK    2  A    between atoms: C_4  and  C_16
REMARK    3  A    between atoms: C_13  and  C_22
REMARK    4  A    between atoms: N_21  and  C_24
REMARK    5  A    between atoms: C_27  and  C_28
REMARK    6  A    between atoms: C_28  and  N_30
REMARK                            x       y       z     vdW  Elec       q    Type
REMARK                         _______ _______ _______ _____ _____    ______ ____
ROOT
ATOM      1  N   UNL     1      34.205 -23.697 -16.840  0.00  0.00    -0.270 N 
ATOM      2  N   UNL     1      35.278 -22.320 -18.375  0.00  0.00    -0.338 NA
ATOM      3  N   UNL     1      32.877 -22.520 -18.333  0.00  0.00    -0.170 NA
ATOM      4  C   UNL     1      35.050 -19.637 -21.556  0.00  0.00    -0.000 C 
ATOM      5  C   UNL     1      33.884 -20.173 -21.018  0.00  0.00    +0.004 C 
ATOM      6  C   UNL     1      33.957 -21.079 -19.945  0.00  0.00    +0.050 C 
ATOM      7  C   UNL     1      34.114 -22.806 -17.897  0.00  0.00    +0.145 C 
ATOM      8  C   UNL     1      36.283 -20.002 -21.025  0.00  0.00    +0.003 C 
ATOM      9  C   UNL     1      35.197 -21.456 -19.401  0.00  0.00    +0.146 C 
ATOM     10  C   UNL     1      36.346 -20.903 -19.959  0.00  0.00    +0.033 C 
ATOM     11  C   UNL     1      32.831 -21.650 -19.361  0.00  0.00    +0.114 C 
ATOM     12  H   UNL     1      33.370 -24.066 -16.471  0.00  0.00    +0.159 HD
ENDROOT
BRANCH   4  16
ATOM     13  C   UNL     1      34.683 -16.439 -23.443  0.00  0.00    +0.053 C 
ATOM     14  C   UNL     1      34.754 -17.356 -22.394  0.00  0.00    +0.004 C 
ATOM     15  C   UNL     1      34.838 -16.873 -24.759  0.00  0.00    +0.004 C 
ATOM     16  C   UNL     1      34.980 -18.706 -22.661  0.00  0.00    -0.004 C 
ATOM     17  C   UNL     1      35.136 -19.139 -23.978  0.00  0.00    -0.022 C 
ATOM     18  C   UNL     1      35.065 -18.223 -25.027  0.00  0.00    -0.004 C 
ATOM     19  C   UNL     1      35.380 -20.578 -24.303  0.00  0.00    +0.031 C 
BRANCH  13  22
ATOM     20  O   UNL     1      34.918 -14.151 -23.907  0.00  0.00    -0.270 OA
ATOM     21  N   UNL     1      33.692 -14.724 -22.026  0.00  0.00    -0.302 N 
ATOM     22  C   UNL     1      34.447 -15.031 -23.165  0.00  0.00    +0.246 C 
ATOM     23  H   UNL     1      33.348 -15.468 -21.479  0.00  0.00    +0.150 HD
BRANCH  21  24
ATOM     24  C   UNL     1      33.396 -13.380 -21.614  0.00  0.00    +0.072 C 
ATOM     25  C   UNL     1      32.215 -12.639 -22.169  0.00  0.00    +0.021 C 
ATOM     26  C   UNL     1      32.219 -13.080 -20.735  0.00  0.00    +0.021 C 
ENDBRANCH  21  24
ENDBRANCH  13  22
ENDBRANCH   4  16
BRANCH   1  27
ATOM     27  C   UNL     1      35.454 -24.113 -16.248  0.00  0.00    +0.075 C 
BRANCH  27  28
ATOM     28  C   UNL     1      35.206 -24.620 -14.833  0.00  0.00    -0.055 C 
BRANCH  28  30
ATOM     29  O   UNL     1      37.821 -24.606 -11.550  0.00  0.00    -0.358 OA
ATOM     30  N   UNL     1      36.398 -24.431 -14.009  0.00  0.00    +0.391 N 
ATOM     31  C   UNL     1      36.886 -25.719 -13.494  0.00  0.00    -0.045 C 
ATOM     32  C   UNL     1      36.123 -23.514 -12.895  0.00  0.00    -0.045 C 
ATOM     33  C   UNL     1      38.122 -25.495 -12.628  0.00  0.00    +0.119 C 
ATOM     34  C   UNL     1      37.378 -23.341 -12.044  0.00  0.00    +0.119 C 
ATOM     35  H   UNL     1      37.123 -24.021 -14.599  0.00  0.00    -0.079 HD
ENDBRANCH  28  30
ENDBRANCH  27  28
ENDBRANCH   1  27
TORSDOF 6
ENDMDL
MODEL 3
REMARK VINA RESULT:     -13.0      3.258     10.894
REMARK  Name = 24963046
REMARK  6 active torsions:
REMARK  status: ('A' for Active; 'I' for Inactive)
REMARK    1  A    between atoms: N_1  and  C_27
REMARK    2  A    between atoms: C_4  and  C_16
REMARK    3  A    between atoms: C_13  and  C_22
REMARK    4  A    between atoms: N_21  and  C_24
REMARK    5  A    between atoms: C_27  and  C_28
REMARK    6  A    between atoms: C_28  and  N_30
REMARK                            x       y       z     vdW  Elec       q    Type
REMARK                         _______ _______ _______ _____ _____    ______ ____
ROOT
ATOM      1  N   UNL     1      33.463 -13.862 -26.184  0.00  0.00    -0.270 N 
ATOM      2  N   UNL     1      33.942 -14.824 -24.123  0.00  0.00    -0.338 NA
ATOM      3  N   UNL     1      34.084 -16.097 -26.165  0.00  0.00    -0.170 NA
ATOM      4  C   UNL     1      35.093 -18.160 -21.905  0.00  0.00    -0.000 C 
ATOM      5  C   UNL     1      34.978 -18.255 -23.289  0.00  0.00    +0.004 C 
ATOM      6  C   UNL     1      34.589 -17.132 -24.040  0.00  0.00    +0.050 C 
ATOM      7  C   UNL     1      33.846 -14.979 -25.460  0.00  0.00    +0.145 C 
ATOM      8  C   UNL     1      34.823 -16.950 -21.275  0.00  0.00    +0.003 C 
ATOM      9  C   UNL     1      34.313 -15.904 -23.415  0.00  0.00    +0.146 C 
ATOM     10  C   UNL     1      34.438 -15.838 -22.030  0.00  0.00    +0.033 C 
ATOM     11  C   UNL     1      34.454 -17.160 -25.424  0.00  0.00    +0.114 C 
ATOM     12  H   UNL     1      33.386 -13.947 -27.162  0.00  0.00    +0.159 HD
ENDROOT
BRANCH   4  16
ATOM     13  C   UNL     1      34.866 -21.262 -19.844  0.00  0.00    +0.053 C 
ATOM     14  C   UNL     1      34.506 -20.144 -20.596  0.00  0.00    +0.004 C 
ATOM     15  C   UNL     1      36.213 -21.549 -19.623  0.00  0.00    +0.004 C 
ATOM     16  C   UNL     1      35.491 -19.313 -21.128  0.00  0.00    -0.004 C 
ATOM     17  C   UNL     1      36.839 -19.600 -20.907  0.00  0.00    -0.022 C 
ATOM     18  C   UNL     1      37.200 -20.719 -20.155  0.00  0.00    -0.004 C 
ATOM     19  C   UNL     1      37.924 -18.733 -21.461  0.00  0.00    +0.031 C 
BRANCH  13  22
ATOM     20  O   UNL     1      32.779 -22.333 -19.909  0.00  0.00    -0.270 OA
ATOM     21  N   UNL     1      34.091 -22.694 -18.034  0.00  0.00    -0.302 N 
ATOM     22  C   UNL     1      33.838 -22.129 -19.289  0.00  0.00    +0.246 C 
ATOM     23  H   UNL     1      34.950 -22.493 -17.594  0.00  0.00    +0.150 HD
BRANCH  21  24
ATOM     24  C   UNL     1      33.162 -23.553 -17.353  0.00  0.00    +0.072 C 
ATOM     25  C   UNL     1      33.043 -23.539 -15.857  0.00  0.00    +0.021 C 
ATOM     26  C   UNL     1      31.927 -23.001 -16.705  0.00  0.00    +0.021 C 
ENDBRANCH  21  24
ENDBRANCH  13  22
ENDBRANCH   4  16
BRANCH   1  27
ATOM     27  C   UNL     1      33.170 -12.581 -25.587  0.00  0.00    +0.075 C 
BRANCH  27  28
ATOM     28  C   UNL     1      34.197 -12.274 -24.504  0.00  0.00    -0.055 C 
BRANCH  28  30
ATOM     29  O   UNL     1      31.291 -10.573 -21.998  0.00  0.00    -0.358 OA
ATOM     30  N   UNL     1      33.544 -11.683 -23.338  0.00  0.00    +0.391 N 
ATOM     31  C   UNL     1      32.431 -12.526 -22.880  0.00  0.00    -0.045 C 
ATOM     32  C   UNL     1      33.059 -10.329 -23.641  0.00  0.00    -0.045 C 
ATOM     33  C   UNL     1      31.758 -11.883 -21.671  0.00  0.00    +0.119 C 
ATOM     34  C   UNL     1      32.373  -9.738 -22.413  0.00  0.00    +0.119 C 
ATOM     35  H   UNL     1      34.236 -11.622 -22.590  0.00  0.00    -0.079 HD
ENDBRANCH  28  30
ENDBRANCH  27  28
ENDBRANCH   1  27
TORSDOF 6
ENDMDL
MODEL 4
REMARK VINA RESULT:     -12.8      4.138     12.624
REMARK  Name = 24963046
REMARK  6 active torsions:
REMARK  status: ('A' for Active; 'I' for Inactive)
REMARK    1  A    between atoms: N_1  and  C_27
REMARK    2  A    between atoms: C_4  and  C_16
REMARK    3  A    between atoms: C_13  and  C_22
REMARK    4  A    between atoms: N_21  and  C_24
REMARK    5  A    between atoms: C_27  and  C_28
REMARK    6  A    between atoms: C_28  and  N_30
REMARK                            x       y       z     vdW  Elec       q    Type
REMARK                         _______ _______ _______ _____ _____    ______ ____
ROOT
ATOM      1  N   UNL     1      31.547  -9.174 -21.576  0.00  0.00    -0.270 N 
ATOM      2  N   UNL     1      32.659 -10.730 -22.897  0.00  0.00    -0.338 NA
ATOM      3  N   UNL     1      31.591 -11.371 -20.834  0.00  0.00    -0.170 NA
ATOM      4  C   UNL     1      33.891 -14.660 -23.539  0.00  0.00    -0.000 C 
ATOM      5  C   UNL     1      33.156 -14.342 -22.401  0.00  0.00    +0.004 C 
ATOM      6  C   UNL     1      32.739 -13.017 -22.181  0.00  0.00    +0.050 C 
ATOM      7  C   UNL     1      31.950 -10.484 -21.776  0.00  0.00    +0.145 C 
ATOM      8  C   UNL     1      34.208 -13.661 -24.453  0.00  0.00    +0.003 C 
ATOM      9  C   UNL     1      33.052 -12.000 -23.097  0.00  0.00    +0.146 C 
ATOM     10  C   UNL     1      33.789 -12.347 -24.227  0.00  0.00    +0.033 C 
ATOM     11  C   UNL     1      32.002 -12.633 -21.065  0.00  0.00    +0.114 C 
ATOM     12  H   UNL     1      31.027  -8.967 -20.766  0.00  0.00    +0.159 HD
ENDROOT
BRANCH   4  16
ATOM     13  C   UNL     1      35.408 -18.016 -22.945  0.00  0.00    +0.053 C 
ATOM     14  C   UNL     1      34.982 -16.703 -22.746  0.00  0.00    +0.004 C 
ATOM     15  C   UNL     1      35.174 -18.648 -24.166  0.00  0.00    +0.004 C 
ATOM     16  C   UNL     1      34.324 -16.021 -23.768  0.00  0.00    -0.004 C 
ATOM     17  C   UNL     1      34.090 -16.653 -24.990  0.00  0.00    -0.022 C 
ATOM     18  C   UNL     1      34.514 -17.967 -25.189  0.00  0.00    -0.004 C 
ATOM     19  C   UNL     1      33.386 -15.954 -26.110  0.00  0.00    +0.031 C 
BRANCH  13  22
ATOM     20  O   UNL     1      37.290 -18.492 -21.626  0.00  0.00    -0.270 OA
ATOM     21  N   UNL     1      35.359 -19.692 -21.178  0.00  0.00    -0.302 N 
ATOM     22  C   UNL     1      36.095 -18.728 -21.879  0.00  0.00    +0.246 C 
ATOM     23  H   UNL     1      34.416 -19.832 -21.427  0.00  0.00    +0.150 HD
BRANCH  21  24
ATOM     24  C   UNL     1      35.909 -20.487 -20.116  0.00  0.00    +0.072 C 
ATOM     25  C   UNL     1      35.113 -21.586 -19.475  0.00  0.00    +0.021 C 
ATOM     26  C   UNL     1      36.295 -21.919 -20.338  0.00  0.00    +0.021 C 
ENDBRANCH  21  24
ENDBRANCH  13  22
ENDBRANCH   4  16
BRANCH   1  27
ATOM     27  C   UNL     1      31.845  -8.096 -22.488  0.00  0.00    +0.075 C 
BRANCH  27  28
ATOM     28  C   UNL     1      33.133  -7.404 -22.060  0.00  0.00    -0.055 C 
BRANCH  28  30
ATOM     29  O   UNL     1      33.940  -5.737 -25.827  0.00  0.00    -0.358 OA
ATOM     30  N   UNL     1      33.589  -6.488 -23.104  0.00  0.00    +0.391 N 
ATOM     31  C   UNL     1      32.459  -6.031 -23.926  0.00  0.00    -0.045 C 
ATOM     32  C   UNL     1      34.604  -7.126 -23.952  0.00  0.00    -0.045 C 
ATOM     33  C   UNL     1      32.960  -5.087 -25.015  0.00  0.00    +0.119 C 
ATOM     34  C   UNL     1      35.056  -6.154 -25.039  0.00  0.00    +0.119 C 
ATOM     35  H   UNL     1      34.006  -5.677 -22.646  0.00  0.00    -0.079 HD
ENDBRANCH  28  30
ENDBRANCH  27  28
ENDBRANCH   1  27
TORSDOF 6
ENDMDL
MODEL 5
REMARK VINA RESULT:     -12.7      2.077     11.341
REMARK  Name = 24963046
REMARK  6 active torsions:
REMARK  status: ('A' for Active; 'I' for Inactive)
REMARK    1  A    between atoms: N_1  and  C_27
REMARK    2  A    between atoms: C_4  and  C_16
REMARK    3  A    between atoms: C_13  and  C_22
REMARK    4  A    between atoms: N_21  and  C_24
REMARK    5  A    between atoms: C_27  and  C_28
REMARK    6  A    between atoms: C_28  and  N_30
REMARK                            x       y       z     vdW  Elec       q    Type
REMARK                         _______ _______ _______ _____ _____    ______ ____
ROOT
ATOM      1  N   UNL     1      35.822 -18.198 -23.634  0.00  0.00    -0.270 N 
ATOM      2  N   UNL     1      34.767 -19.557 -22.071  0.00  0.00    -0.338 NA
ATOM      3  N   UNL     1      37.107 -19.012 -21.883  0.00  0.00    -0.170 NA
ATOM      4  C   UNL     1      34.971 -21.850 -18.595  0.00  0.00    -0.000 C 
ATOM      5  C   UNL     1      36.110 -21.203 -19.066  0.00  0.00    +0.004 C 
ATOM      6  C   UNL     1      36.045 -20.429 -20.239  0.00  0.00    +0.050 C 
ATOM      7  C   UNL     1      35.904 -18.956 -22.477  0.00  0.00    +0.145 C 
ATOM      8  C   UNL     1      33.773 -21.723 -19.291  0.00  0.00    +0.003 C 
ATOM      9  C   UNL     1      34.841 -20.295 -20.949  0.00  0.00    +0.146 C 
ATOM     10  C   UNL     1      33.717 -20.952 -20.455  0.00  0.00    +0.033 C 
ATOM     11  C   UNL     1      37.146 -19.758 -20.762  0.00  0.00    +0.114 C 
ATOM     12  H   UNL     1      36.637 -17.747 -23.952  0.00  0.00    +0.159 HD
ENDROOT
BRANCH   4  16
ATOM     13  C   UNL     1      36.344 -23.572 -15.585  0.00  0.00    +0.053 C 
ATOM     14  C   UNL     1      36.260 -22.807 -16.748  0.00  0.00    +0.004 C 
ATOM     15  C   UNL     1      35.201 -24.176 -15.064  0.00  0.00    +0.004 C 
ATOM     16  C   UNL     1      35.033 -22.647 -17.391  0.00  0.00    -0.004 C 
ATOM     17  C   UNL     1      33.889 -23.253 -16.869  0.00  0.00    -0.022 C 
ATOM     18  C   UNL     1      33.973 -24.017 -15.705  0.00  0.00    -0.004 C 
ATOM     19  C   UNL     1      32.556 -23.104 -17.530  0.00  0.00    +0.031 C 
BRANCH  13  22
ATOM     20  O   UNL     1      37.865 -23.140 -13.850  0.00  0.00    -0.270 OA
ATOM     21  N   UNL     1      38.561 -24.578 -15.528  0.00  0.00    -0.302 N 
ATOM     22  C   UNL     1      37.624 -23.738 -14.914  0.00  0.00    +0.246 C 
ATOM     23  H   UNL     1      38.309 -25.023 -16.370  0.00  0.00    +0.150 HD
BRANCH  21  24
ATOM     24  C   UNL     1      39.873 -24.822 -14.994  0.00  0.00    +0.072 C 
ATOM     25  C   UNL     1      40.077 -25.739 -13.825  0.00  0.00    +0.021 C 
ATOM     26  C   UNL     1      40.556 -26.142 -15.189  0.00  0.00    +0.021 C 
ENDBRANCH  21  24
ENDBRANCH  13  22
ENDBRANCH   4  16
BRANCH   1  27
ATOM     27  C   UNL     1      34.608 -18.030 -24.397  0.00  0.00    +0.075 C 
BRANCH  27  28
ATOM     28  C   UNL     1      34.790 -16.904 -25.407  0.00  0.00    -0.055 C 
BRANCH  28  30
ATOM     29  O   UNL     1      33.663 -12.922 -24.712  0.00  0.00    -0.358 OA
ATOM     30  N   UNL     1      34.017 -15.730 -25.005  0.00  0.00    +0.391 N 
ATOM     31  C   UNL     1      33.743 -14.866 -26.162  0.00  0.00    -0.045 C 
ATOM     32  C   UNL     1      34.724 -14.971 -23.965  0.00  0.00    -0.045 C 
ATOM     33  C   UNL     1      32.948 -13.643 -25.717  0.00  0.00    +0.119 C 
ATOM     34  C   UNL     1      33.904 -13.746 -23.571  0.00  0.00    +0.119 C 
ATOM     35  H   UNL     1      33.129 -16.057 -24.625  0.00  0.00    -0.079 HD
ENDBRANCH  28  30
ENDBRANCH  27  28
ENDBRANCH   1  27
TORSDOF 6
ENDMDL
MODEL 6
REMARK VINA RESULT:     -12.4      2.778      3.571
REMARK  Name = 24963046
REMARK  6 active torsions:
REMARK  status: ('A' for Active; 'I' for Inactive)
REMARK    1  A    between atoms: N_1  and  C_27
REMARK    2  A    between atoms: C_4  and  C_16
REMARK    3  A    between atoms: C_13  and  C_22
REMARK    4  A    between atoms: N_21  and  C_24
REMARK    5  A    between atoms: C_27  and  C_28
REMARK    6  A    between atoms: C_28  and  N_30
REMARK                            x       y       z     vdW  Elec       q    Type
REMARK                         _______ _______ _______ _____ _____    ______ ____
ROOT
ATOM      1  N   UNL     1      35.494 -23.316 -16.801  0.00  0.00    -0.270 N 
ATOM      2  N   UNL     1      34.419 -22.129 -18.485  0.00  0.00    -0.338 NA
ATOM      3  N   UNL     1      36.806 -21.992 -18.181  0.00  0.00    -0.170 NA
ATOM      4  C   UNL     1      34.627 -19.493 -21.707  0.00  0.00    -0.000 C 
ATOM      5  C   UNL     1      35.789 -19.853 -21.031  0.00  0.00    +0.004 C 
ATOM      6  C   UNL     1      35.723 -20.742 -19.943  0.00  0.00    +0.050 C 
ATOM      7  C   UNL     1      35.579 -22.439 -17.870  0.00  0.00    +0.145 C 
ATOM      8  C   UNL     1      33.406 -20.018 -21.300  0.00  0.00    +0.003 C 
ATOM      9  C   UNL     1      34.494 -21.278 -19.523  0.00  0.00    +0.146 C 
ATOM     10  C   UNL     1      33.348 -20.901 -20.218  0.00  0.00    +0.033 C 
ATOM     11  C   UNL     1      36.845 -21.142 -19.226  0.00  0.00    +0.114 C 
ATOM     12  H   UNL     1      36.326 -23.561 -16.334  0.00  0.00    +0.159 HD
ENDROOT
BRANCH   4  16
ATOM     13  C   UNL     1      34.490 -16.324 -23.672  0.00  0.00    +0.053 C 
ATOM     14  C   UNL     1      34.434 -17.225 -22.608  0.00  0.00    +0.004 C 
ATOM     15  C   UNL     1      34.804 -16.777 -24.953  0.00  0.00    +0.004 C 
ATOM     16  C   UNL     1      34.691 -18.578 -22.825  0.00  0.00    -0.004 C 
ATOM     17  C   UNL     1      35.005 -19.031 -24.108  0.00  0.00    -0.022 C 
ATOM     18  C   UNL     1      35.062 -18.130 -25.171  0.00  0.00    -0.004 C 
ATOM     19  C   UNL     1      35.288 -20.474 -24.379  0.00  0.00    +0.031 C 
BRANCH  13  22
ATOM     20  O   UNL     1      34.509 -14.066 -24.311  0.00  0.00    -0.270 OA
ATOM     21  N   UNL     1      33.652 -14.562 -22.216  0.00  0.00    -0.302 N 
ATOM     22  C   UNL     1      34.222 -14.913 -23.446  0.00  0.00    +0.246 C 
ATOM     23  H   UNL     1      33.448 -15.280 -21.573  0.00  0.00    +0.150 HD
BRANCH  21  24
ATOM     24  C   UNL     1      33.350 -13.207 -21.844  0.00  0.00    +0.072 C 
ATOM     25  C   UNL     1      32.169 -12.486 -22.423  0.00  0.00    +0.021 C 
ATOM     26  C   UNL     1      32.170 -12.885 -20.977  0.00  0.00    +0.021 C 
ENDBRANCH  21  24
ENDBRANCH  13  22
ENDBRANCH   4  16
BRANCH   1  27
ATOM     27  C   UNL     1      34.256 -23.893 -16.333  0.00  0.00    +0.075 C 
BRANCH  27  28
ATOM     28  C   UNL     1      34.138 -23.699 -14.826  0.00  0.00    -0.055 C 
BRANCH  28  30
ATOM     29  O   UNL     1      29.994 -24.357 -14.693  0.00  0.00    -0.358 OA
ATOM     30  N   UNL     1      32.732 -23.623 -14.433  0.00  0.00    +0.391 N 
ATOM     31  C   UNL     1      32.243 -24.937 -13.989  0.00  0.00    -0.045 C 
ATOM     32  C   UNL     1      31.906 -23.126 -15.541  0.00  0.00    -0.045 C 
ATOM     33  C   UNL     1      30.773 -24.835 -13.595  0.00  0.00    +0.119 C 
ATOM     34  C   UNL     1      30.443 -23.066 -15.109  0.00  0.00    +0.119 C 
ATOM     35  H   UNL     1      32.662 -22.969 -13.652  0.00  0.00    -0.079 HD
ENDBRANCH  28  30
ENDBRANCH  27  28
ENDBRANCH   1  27
TORSDOF 6
ENDMDL
MODEL 7
REMARK VINA RESULT:     -12.3      3.597     11.095
REMARK  Name = 24963046
REMARK  6 active torsions:
REMARK  status: ('A' for Active; 'I' for Inactive)
REMARK    1  A    between atoms: N_1  and  C_27
REMARK    2  A    between atoms: C_4  and  C_16
REMARK    3  A    between atoms: C_13  and  C_22
REMARK    4  A    between atoms: N_21  and  C_24
REMARK    5  A    between atoms: C_27  and  C_28
REMARK    6  A    between atoms: C_28  and  N_30
REMARK                            x       y       z     vdW  Elec       q    Type
REMARK                         _______ _______ _______ _____ _____    ______ ____
ROOT
ATOM      1  N   UNL     1      33.546 -12.188 -24.505  0.00  0.00    -0.270 N 
ATOM      2  N   UNL     1      34.044 -13.672 -22.787  0.00  0.00    -0.338 NA
ATOM      3  N   UNL     1      34.010 -14.384 -25.090  0.00  0.00    -0.170 NA
ATOM      4  C   UNL     1      35.053 -17.526 -21.559  0.00  0.00    -0.000 C 
ATOM      5  C   UNL     1      34.873 -17.255 -22.913  0.00  0.00    +0.004 C 
ATOM      6  C   UNL     1      34.531 -15.957 -23.330  0.00  0.00    +0.050 C 
ATOM      7  C   UNL     1      33.881 -13.473 -24.111  0.00  0.00    +0.145 C 
ATOM      8  C   UNL     1      34.895 -16.505 -20.628  0.00  0.00    +0.003 C 
ATOM      9  C   UNL     1      34.369 -14.918 -22.399  0.00  0.00    +0.146 C 
ATOM     10  C   UNL     1      34.556 -15.217 -21.052  0.00  0.00    +0.033 C 
ATOM     11  C   UNL     1      34.337 -15.620 -24.666  0.00  0.00    +0.114 C 
ATOM     12  H   UNL     1      33.422 -12.014 -25.466  0.00  0.00    +0.159 HD
ENDROOT
BRANCH   4  16
ATOM     13  C   UNL     1      34.721 -20.974 -20.174  0.00  0.00    +0.053 C 
ATOM     14  C   UNL     1      34.407 -19.683 -20.599  0.00  0.00    +0.004 C 
ATOM     15  C   UNL     1      36.030 -21.442 -20.276  0.00  0.00    +0.004 C 
ATOM     16  C   UNL     1      35.402 -18.860 -21.125  0.00  0.00    -0.004 C 
ATOM     17  C   UNL     1      36.713 -19.329 -21.226  0.00  0.00    -0.022 C 
ATOM     18  C   UNL     1      37.027 -20.620 -20.802  0.00  0.00    -0.004 C 
ATOM     19  C   UNL     1      37.807 -18.476 -21.785  0.00  0.00    +0.031 C 
BRANCH  13  22
ATOM     20  O   UNL     1      32.591 -21.959 -20.209  0.00  0.00    -0.270 OA
ATOM     21  N   UNL     1      33.965 -22.481 -18.417  0.00  0.00    -0.302 N 
ATOM     22  C   UNL     1      33.683 -21.832 -19.626  0.00  0.00    +0.246 C 
ATOM     23  H   UNL     1      34.849 -22.339 -18.006  0.00  0.00    +0.150 HD
BRANCH  21  24
ATOM     24  C   UNL     1      33.031 -23.343 -17.747  0.00  0.00    +0.072 C 
ATOM     25  C   UNL     1      33.000 -23.441 -16.250  0.00  0.00    +0.021 C 
ATOM     26  C   UNL     1      31.868 -22.782 -16.983  0.00  0.00    +0.021 C 
ENDBRANCH  21  24
ENDBRANCH  13  22
ENDBRANCH   4  16
BRANCH   1  27
ATOM     27  C   UNL     1      33.369 -11.089 -23.586  0.00  0.00    +0.075 C 
BRANCH  27  28
ATOM     28  C   UNL     1      31.950 -11.109 -23.030  0.00  0.00    -0.055 C 
BRANCH  28  30
ATOM     29  O   UNL     1      32.741  -8.726 -19.667  0.00  0.00    -0.358 OA
ATOM     30  N   UNL     1      31.806 -10.115 -21.969  0.00  0.00    +0.391 N 
ATOM     31  C   UNL     1      32.860  -9.095 -22.062  0.00  0.00    -0.045 C 
ATOM     32  C   UNL     1      31.839 -10.755 -20.646  0.00  0.00    -0.045 C 
ATOM     33  C   UNL     1      32.696  -8.077 -20.938  0.00  0.00    +0.119 C 
ATOM     34  C   UNL     1      31.698  -9.697 -19.556  0.00  0.00    +0.119 C 
ATOM     35  H   UNL     1      30.901  -9.660 -22.089  0.00  0.00    -0.079 HD
ENDBRANCH  28  30
ENDBRANCH  27  28
ENDBRANCH   1  27
TORSDOF 6
ENDMDL
MODEL 8
REMARK VINA RESULT:     -11.8      2.097     11.309
REMARK  Name = 24963046
REMARK  6 active torsions:
REMARK  status: ('A' for Active; 'I' for Inactive)
REMARK    1  A    between atoms: N_1  and  C_27
REMARK    2  A    between atoms: C_4  and  C_16
REMARK    3  A    between atoms: C_13  and  C_22
REMARK    4  A    between atoms: N_21  and  C_24
REMARK    5  A    between atoms: C_27  and  C_28
REMARK    6  A    between atoms: C_28  and  N_30
REMARK                            x       y       z     vdW  Elec       q    Type
REMARK                         _______ _______ _______ _____ _____    ______ ____
ROOT
ATOM      1  N   UNL     1      34.433 -19.070 -22.948  0.00  0.00    -0.270 N 
ATOM      2  N   UNL     1      35.360 -20.189 -21.134  0.00  0.00    -0.338 NA
ATOM      3  N   UNL     1      32.980 -20.175 -21.516  0.00  0.00    -0.170 NA
ATOM      4  C   UNL     1      34.848 -22.523 -17.718  0.00  0.00    -0.000 C 
ATOM      5  C   UNL     1      33.739 -22.137 -18.466  0.00  0.00    +0.004 C 
ATOM      6  C   UNL     1      33.908 -21.349 -19.618  0.00  0.00    +0.050 C 
ATOM      7  C   UNL     1      34.248 -19.846 -21.815  0.00  0.00    +0.145 C 
ATOM      8  C   UNL     1      36.119 -22.126 -18.121  0.00  0.00    +0.003 C 
ATOM      9  C   UNL     1      35.187 -20.942 -20.034  0.00  0.00    +0.146 C 
ATOM     10  C   UNL     1      36.278 -21.344 -19.268  0.00  0.00    +0.033 C 
ATOM     11  C   UNL     1      32.843 -20.929 -20.408  0.00  0.00    +0.114 C 
ATOM     12  H   UNL     1      33.638 -18.806 -23.465  0.00  0.00    +0.159 HD
ENDROOT
BRANCH   4  16
ATOM     13  C   UNL     1      35.660 -24.712 -14.809  0.00  0.00    +0.053 C 
ATOM     14  C   UNL     1      35.799 -23.928 -15.954  0.00  0.00    +0.004 C 
ATOM     15  C   UNL     1      34.400 -24.900 -14.242  0.00  0.00    +0.004 C 
ATOM     16  C   UNL     1      34.679 -23.332 -16.532  0.00  0.00    -0.004 C 
ATOM     17  C   UNL     1      33.418 -23.521 -15.964  0.00  0.00    -0.022 C 
ATOM     18  C   UNL     1      33.279 -24.305 -14.819  0.00  0.00    -0.004 C 
ATOM     19  C   UNL     1      32.193 -22.898 -16.555  0.00  0.00    +0.031 C 
BRANCH  13  22
ATOM     20  O   UNL     1      36.830 -25.645 -13.001  0.00  0.00    -0.270 OA
ATOM     21  N   UNL     1      37.939 -25.540 -15.033  0.00  0.00    -0.302 N 
ATOM     22  C   UNL     1      36.829 -25.333 -14.205  0.00  0.00    +0.246 C 
ATOM     23  H   UNL     1      37.874 -25.271 -15.978  0.00  0.00    +0.150 HD
BRANCH  21  24
ATOM     24  C   UNL     1      39.169 -26.123 -14.573  0.00  0.00    +0.072 C 
ATOM     25  C   UNL     1      40.484 -25.759 -15.198  0.00  0.00    +0.021 C 
ATOM     26  C   UNL     1      40.169 -25.316 -13.799  0.00  0.00    +0.021 C 
ENDBRANCH  21  24
ENDBRANCH  13  22
ENDBRANCH   4  16
BRANCH   1  27
ATOM     27  C   UNL     1      35.726 -18.628 -23.414  0.00  0.00    +0.075 C 
BRANCH  27  28
ATOM     28  C   UNL     1      35.865 -17.127 -23.192  0.00  0.00    -0.055 C 
BRANCH  28  30
ATOM     29  O   UNL     1      33.562 -14.372 -25.363  0.00  0.00    -0.358 OA
ATOM     30  N   UNL     1      34.721 -16.420 -23.763  0.00  0.00    +0.391 N 
ATOM     31  C   UNL     1      34.748 -16.485 -25.231  0.00  0.00    -0.045 C 
ATOM     32  C   UNL     1      34.698 -15.020 -23.320  0.00  0.00    -0.045 C 
ATOM     33  C   UNL     1      33.552 -15.731 -25.804  0.00  0.00    +0.119 C 
ATOM     34  C   UNL     1      33.502 -14.301 -23.938  0.00  0.00    +0.119 C 
ATOM     35  H   UNL     1      33.873 -16.882 -23.433  0.00  0.00    -0.079 HD
ENDBRANCH  28  30
ENDBRANCH  27  28
ENDBRANCH   1  27
TORSDOF 6
ENDMDL
MODEL 9
REMARK VINA RESULT:     -11.6      3.241     10.833
REMARK  Name = 24963046
REMARK  6 active torsions:
REMARK  status: ('A' for Active; 'I' for Inactive)
REMARK    1  A    between atoms: N_1  and  C_27
REMARK    2  A    between atoms: C_4  and  C_16
REMARK    3  A    between atoms: C_13  and  C_22
REMARK    4  A    between atoms: N_21  and  C_24
REMARK    5  A    between atoms: C_27  and  C_28
REMARK    6  A    between atoms: C_28  and  N_30
REMARK                            x       y       z     vdW  Elec       q    Type
REMARK                         _______ _______ _______ _____ _____    ______ ____
ROOT
ATOM      1  N   UNL     1      34.547 -19.158 -22.970  0.00  0.00    -0.270 N 
ATOM      2  N   UNL     1      35.612 -20.157 -21.162  0.00  0.00    -0.338 NA
ATOM      3  N   UNL     1      33.214 -20.224 -21.400  0.00  0.00    -0.170 NA
ATOM      4  C   UNL     1      35.370 -22.322 -17.608  0.00  0.00    -0.000 C 
ATOM      5  C   UNL     1      34.209 -22.004 -18.306  0.00  0.00    +0.004 C 
ATOM      6  C   UNL     1      34.286 -21.274 -19.505  0.00  0.00    +0.050 C 
ATOM      7  C   UNL     1      34.452 -19.878 -21.791  0.00  0.00    +0.145 C 
ATOM      8  C   UNL     1      36.603 -21.914 -18.106  0.00  0.00    +0.003 C 
ATOM      9  C   UNL     1      35.526 -20.855 -20.017  0.00  0.00    +0.146 C 
ATOM     10  C   UNL     1      36.671 -21.188 -19.299  0.00  0.00    +0.033 C 
ATOM     11  C   UNL     1      33.164 -20.923 -20.249  0.00  0.00    +0.114 C 
ATOM     12  H   UNL     1      33.715 -18.942 -23.451  0.00  0.00    +0.159 HD
ENDROOT
BRANCH   4  16
ATOM     13  C   UNL     1      33.947 -24.163 -14.693  0.00  0.00    +0.053 C 
ATOM     14  C   UNL     1      34.044 -23.439 -15.881  0.00  0.00    +0.004 C 
ATOM     15  C   UNL     1      35.102 -24.522 -13.999  0.00  0.00    +0.004 C 
ATOM     16  C   UNL     1      35.295 -23.073 -16.375  0.00  0.00    -0.004 C 
ATOM     17  C   UNL     1      36.451 -23.432 -15.680  0.00  0.00    -0.022 C 
ATOM     18  C   UNL     1      36.354 -24.157 -14.492  0.00  0.00    -0.004 C 
ATOM     19  C   UNL     1      37.811 -23.058 -16.178  0.00  0.00    +0.031 C 
BRANCH  13  22
ATOM     20  O   UNL     1      32.543 -25.214 -13.133  0.00  0.00    -0.270 OA
ATOM     21  N   UNL     1      31.522 -24.145 -14.917  0.00  0.00    -0.302 N 
ATOM     22  C   UNL     1      32.641 -24.545 -14.177  0.00  0.00    +0.246 C 
ATOM     23  H   UNL     1      31.667 -23.617 -15.736  0.00  0.00    +0.150 HD
BRANCH  21  24
ATOM     24  C   UNL     1      30.172 -24.466 -14.543  0.00  0.00    +0.072 C 
ATOM     25  C   UNL     1      29.063 -24.460 -15.554  0.00  0.00    +0.021 C 
ATOM     26  C   UNL     1      29.536 -25.757 -14.966  0.00  0.00    +0.021 C 
ENDBRANCH  21  24
ENDBRANCH  13  22
ENDBRANCH   4  16
BRANCH   1  27
ATOM     27  C   UNL     1      35.797 -18.708 -23.535  0.00  0.00    +0.075 C 
BRANCH  27  28
ATOM     28  C   UNL     1      35.952 -17.209 -23.307  0.00  0.00    -0.055 C 
BRANCH  28  30
ATOM     29  O   UNL     1      33.491 -14.370 -25.176  0.00  0.00    -0.358 OA
ATOM     30  N   UNL     1      34.767 -16.497 -23.781  0.00  0.00    +0.391 N 
ATOM     31  C   UNL     1      34.742 -16.448 -25.250  0.00  0.00    -0.045 C 
ATOM     32  C   UNL     1      34.721 -15.136 -23.230  0.00  0.00    -0.045 C 
ATOM     33  C   UNL     1      33.504 -15.691 -25.721  0.00  0.00    +0.119 C 
ATOM     34  C   UNL     1      33.482 -14.410 -23.748  0.00  0.00    +0.119 C 
ATOM     35  H   UNL     1      33.945 -17.009 -23.458  0.00  0.00    -0.079 HD
ENDBRANCH  28  30
ENDBRANCH  27  28
ENDBRANCH   1  27
TORSDOF 6
ENDMDL
