MODEL 1
REMARK VINA RESULT:     -13.4      0.000      0.000
REMARK  Name = 46937081
REMARK  6 active torsions:
REMARK  status: ('A' for Active; 'I' for Inactive)
REMARK    1  A    between atoms: N_1  and  C_10
REMARK    2  A    between atoms: C_4  and  C_16
REMARK    3  A    between atoms: C_9  and  C_31
REMARK    4  A    between atoms: C_16  and  C_17
REMARK    5  A    between atoms: C_18  and  N_23
REMARK    6  A    between atoms: C_31  and  N_32
REMARK                            x       y       z     vdW  Elec       q    Type
REMARK                         _______ _______ _______ _____ _____    ______ ____
ROOT
ATOM      1  N   UNL     1      34.228 -23.383 -15.805  0.00  0.00    -0.267 N 
ATOM      2  N   UNL     1      35.334 -23.601 -13.672  0.00  0.00    -0.341 NA
ATOM      3  N   UNL     1      37.695 -23.016 -13.762  0.00  0.00    -0.188 NA
ATOM      4  C   UNL     1      34.582 -23.008 -17.074  0.00  0.00    +0.035 C 
ATOM      5  C   UNL     1      35.323 -23.307 -14.984  0.00  0.00    +0.199 C 
ATOM      6  C   UNL     1      36.400 -22.874 -15.746  0.00  0.00    +0.066 C 
ATOM      7  C   UNL     1      35.923 -22.688 -17.069  0.00  0.00    +0.016 C 
ATOM      8  C   UNL     1      37.619 -22.734 -15.084  0.00  0.00    +0.114 C 
ATOM      9  C   UNL     1      36.564 -23.427 -13.147  0.00  0.00    +0.042 C 
ENDROOT
BRANCH   1  10
ATOM     10  C   UNL     1      32.841 -23.816 -15.367  0.00  0.00    +0.079 C 
ATOM     11  C   UNL     1      32.895 -24.868 -14.246  0.00  0.00    +0.020 C 
ATOM     12  C   UNL     1      31.969 -22.616 -14.956  0.00  0.00    +0.020 C 
ATOM     13  C   UNL     1      31.494 -25.304 -13.821  0.00  0.00    +0.002 C 
ATOM     14  C   UNL     1      30.572 -23.061 -14.528  0.00  0.00    +0.002 C 
ATOM     15  C   UNL     1      30.630 -24.111 -13.421  0.00  0.00    +0.000 C 
ENDBRANCH   1  10
BRANCH   4  16
ATOM     16  C   UNL     1      33.585 -22.987 -18.217  0.00  0.00    +0.068 C 
BRANCH  16  17
ATOM     17  C   UNL     1      33.862 -21.939 -19.242  0.00  0.00    -0.016 C 
ATOM     18  C   UNL     1      34.381 -19.982 -21.161  0.00  0.00    +0.048 C 
ATOM     19  C   UNL     1      35.161 -21.757 -19.720  0.00  0.00    -0.003 C 
ATOM     20  C   UNL     1      32.824 -21.143 -19.724  0.00  0.00    -0.003 C 
ATOM     21  C   UNL     1      35.420 -20.779 -20.679  0.00  0.00    +0.014 C 
ATOM     22  C   UNL     1      33.083 -20.164 -20.683  0.00  0.00    +0.014 C 
BRANCH  18  23
ATOM     23  N   UNL     1      34.641 -19.000 -22.123  0.00  0.00    -0.312 N 
ATOM     24  N   UNL     1      35.424 -17.031 -24.039  0.00  0.00    +0.388 N 
ATOM     25  C   UNL     1      34.927 -19.394 -23.506  0.00  0.00    +0.068 C 
ATOM     26  C   UNL     1      35.262 -17.747 -21.679  0.00  0.00    +0.068 C 
ATOM     27  C   UNL     1      35.002 -16.630 -22.692  0.00  0.00    -0.056 C 
ATOM     28  C   UNL     1      34.678 -18.224 -24.461  0.00  0.00    -0.056 C 
ATOM     29  C   UNL     1      35.220 -15.938 -24.988  0.00  0.00    -0.101 C 
ATOM     30  H   UNL     1      36.418 -17.255 -24.021  0.00  0.00    -0.080 HD
ENDBRANCH  18  23
ENDBRANCH  16  17
ENDBRANCH   4  16
BRANCH   9  31
ATOM     31  C   UNL     1      36.694 -23.726 -11.690  0.00  0.00    +0.030 C 
BRANCH  31  32
ATOM     32  N   UNL     1      38.042 -24.166 -11.332  0.00  0.00    +0.390 N 
ATOM     33  H   UNL     1      38.393 -24.805 -12.047  0.00  0.00    -0.088 HD
ATOM     34  H   UNL     1      38.016 -24.646 -10.432  0.00  0.00    -0.088 HD
ATOM     35  H   UNL     1      38.659 -23.356 -11.267  0.00  0.00    -0.088 HD
ENDBRANCH  31  32
ENDBRANCH   9  31
TORSDOF 6
ENDMDL
MODEL 2
REMARK VINA RESULT:     -12.6      1.858      3.990
REMARK  Name = 46937081
REMARK  6 active torsions:
REMARK  status: ('A' for Active; 'I' for Inactive)
REMARK    1  A    between atoms: N_1  and  C_10
REMARK    2  A    between atoms: C_4  and  C_16
REMARK    3  A    between atoms: C_9  and  C_31
REMARK    4  A    between atoms: C_16  and  C_17
REMARK    5  A    between atoms: C_18  and  N_23
REMARK    6  A    between atoms: C_31  and  N_32
REMARK                            x       y       z     vdW  Elec       q    Type
REMARK                         _______ _______ _______ _____ _____    ______ ____
ROOT
ATOM      1  N   UNL     1      34.496 -23.270 -16.680  0.00  0.00    -0.267 N 
ATOM      2  N   UNL     1      32.866 -24.136 -15.128  0.00  0.00    -0.341 NA
ATOM      3  N   UNL     1      30.572 -23.721 -15.829  0.00  0.00    -0.188 NA
ATOM      4  C   UNL     1      34.474 -22.597 -17.874  0.00  0.00    +0.035 C 
ATOM      5  C   UNL     1      33.213 -23.498 -16.259  0.00  0.00    +0.199 C 
ATOM      6  C   UNL     1      32.350 -22.958 -17.205  0.00  0.00    +0.066 C 
ATOM      7  C   UNL     1      33.157 -22.389 -18.224  0.00  0.00    +0.016 C 
ATOM      8  C   UNL     1      30.985 -23.089 -16.953  0.00  0.00    +0.114 C 
ATOM      9  C   UNL     1      31.525 -24.198 -14.998  0.00  0.00    +0.042 C 
ENDROOT
BRANCH   1  10
ATOM     10  C   UNL     1      35.746 -23.700 -15.934  0.00  0.00    +0.079 C 
ATOM     11  C   UNL     1      36.009 -22.820 -14.700  0.00  0.00    +0.020 C 
ATOM     12  C   UNL     1      35.699 -25.189 -15.548  0.00  0.00    +0.020 C 
ATOM     13  C   UNL     1      37.275 -23.254 -13.963  0.00  0.00    +0.002 C 
ATOM     14  C   UNL     1      36.965 -25.615 -14.807  0.00  0.00    +0.002 C 
ATOM     15  C   UNL     1      37.228 -24.733 -13.589  0.00  0.00    +0.000 C 
ENDBRANCH   1  10
BRANCH   4  16
ATOM     16  C   UNL     1      35.744 -22.197 -18.600  0.00  0.00    +0.068 C 
BRANCH  16  17
ATOM     17  C   UNL     1      35.531 -21.197 -19.685  0.00  0.00    -0.016 C 
ATOM     18  C   UNL     1      35.134 -19.327 -21.716  0.00  0.00    +0.048 C 
ATOM     19  C   UNL     1      36.609 -20.457 -20.172  0.00  0.00    -0.003 C 
ATOM     20  C   UNL     1      34.256 -21.002 -20.213  0.00  0.00    -0.003 C 
ATOM     21  C   UNL     1      36.411 -19.522 -21.188  0.00  0.00    +0.014 C 
ATOM     22  C   UNL     1      34.056 -20.067 -21.229  0.00  0.00    +0.014 C 
BRANCH  18  23
ATOM     23  N   UNL     1      34.935 -18.389 -22.735  0.00  0.00    -0.312 N 
ATOM     24  N   UNL     1      34.785 -16.450 -24.827  0.00  0.00    +0.388 N 
ATOM     25  C   UNL     1      34.986 -18.815 -24.137  0.00  0.00    +0.068 C 
ATOM     26  C   UNL     1      35.330 -16.999 -22.480  0.00  0.00    +0.068 C 
ATOM     27  C   UNL     1      34.596 -16.048 -23.428  0.00  0.00    -0.056 C 
ATOM     28  C   UNL     1      34.263 -17.806 -25.033  0.00  0.00    -0.056 C 
ATOM     29  C   UNL     1      34.125 -15.505 -25.726  0.00  0.00    -0.101 C 
ATOM     30  H   UNL     1      35.783 -16.446 -25.039  0.00  0.00    -0.080 HD
ENDBRANCH  18  23
ENDBRANCH  16  17
ENDBRANCH   4  16
BRANCH   9  31
ATOM     31  C   UNL     1      31.025 -24.888 -13.772  0.00  0.00    +0.030 C 
BRANCH  31  32
ATOM     32  N   UNL     1      29.740 -25.551 -13.992  0.00  0.00    +0.390 N 
ATOM     33  H   UNL     1      29.867 -26.335 -14.633  0.00  0.00    -0.088 HD
ATOM     34  H   UNL     1      29.079 -24.887 -14.396  0.00  0.00    -0.088 HD
ATOM     35  H   UNL     1      29.376 -25.893 -13.103  0.00  0.00    -0.088 HD
ENDBRANCH  31  32
ENDBRANCH   9  31
TORSDOF 6
ENDMDL
