MODEL 1
REMARK VINA RESULT:     -13.2      0.000      0.000
REMARK  Name = 5567
REMARK  8 active torsions:
REMARK  status: ('A' for Active; 'I' for Inactive)
REMARK    1  A    between atoms: N_1  and  C_20
REMARK    2  A    between atoms: C_2  and  C_8
REMARK    3  A    between atoms: C_2  and  O_18
REMARK    4  A    between atoms: C_11  and  C_17
REMARK    5  A    between atoms: C_20  and  C_21
REMARK    6  A    between atoms: C_21  and  C_22
REMARK    7  A    between atoms: C_22  and  C_24
REMARK    8  A    between atoms: C_24  and  C_26
REMARK                            x       y       z     vdW  Elec       q    Type
REMARK                         _______ _______ _______ _____ _____    ______ ____
ROOT
ATOM      1  N   UNL     1      34.209 -16.118 -24.335  0.00  0.00    +0.387 N 
ATOM      2  C   UNL     1      33.678 -13.282 -23.623  0.00  0.00    +0.103 C 
ATOM      3  C   UNL     1      34.518 -14.245 -22.754  0.00  0.00    +0.008 C 
ATOM      4  C   UNL     1      32.747 -14.121 -24.528  0.00  0.00    +0.008 C 
ATOM      5  C   UNL     1      35.199 -15.351 -23.569  0.00  0.00    -0.075 C 
ATOM      6  C   UNL     1      33.477 -15.253 -25.265  0.00  0.00    -0.075 C 
ATOM      7  H   UNL     1      33.538 -16.511 -23.675  0.00  0.00    -0.080 HD
ENDROOT
BRANCH   2   8
ATOM      8  C   UNL     1      32.873 -12.244 -22.841  0.00  0.00    +0.002 C 
ATOM      9  C   UNL     1      32.853 -10.916 -23.264  0.00  0.00    +0.002 C 
ATOM     10  C   UNL     1      32.157 -12.628 -21.708  0.00  0.00    -0.002 C 
ATOM     11  C   UNL     1      32.117  -9.968 -22.551  0.00  0.00    +0.071 C 
ATOM     12  C   UNL     1      31.421 -11.681 -20.996  0.00  0.00    -0.000 C 
ATOM     13  C   UNL     1      31.401 -10.351 -21.417  0.00  0.00    +0.004 C 
BRANCH  11  17
ATOM     14  F   UNL     1      31.643  -8.384 -24.279  0.00  0.00    -0.166 F 
ATOM     15  F   UNL     1      31.303  -7.742 -22.236  0.00  0.00    -0.166 F 
ATOM     16  F   UNL     1      33.334  -7.971 -22.977  0.00  0.00    -0.166 F 
ATOM     17  C   UNL     1      32.098  -8.547 -23.001  0.00  0.00    +0.419 C 
ENDBRANCH  11  17
ENDBRANCH   2   8
BRANCH   2  18
ATOM     18  O   UNL     1      34.584 -12.526 -24.441  0.00  0.00    -0.383 OA
ATOM     19  H   UNL     1      35.209 -12.047 -23.873  0.00  0.00    +0.211 HD
ENDBRANCH   2  18
BRANCH   1  20
ATOM     20  C   UNL     1      34.855 -17.215 -25.054  0.00  0.00    -0.077 C 
BRANCH  20  21
ATOM     21  C   UNL     1      34.520 -18.552 -24.391  0.00  0.00    -0.015 C 
BRANCH  21  22
ATOM     22  C   UNL     1      35.550 -18.949 -23.330  0.00  0.00    +0.067 C 
BRANCH  22  24
ATOM     23  O   UNL     1      34.869 -17.579 -21.463  0.00  0.00    -0.291 OA
ATOM     24  C   UNL     1      35.074 -18.707 -21.904  0.00  0.00    +0.173 C 
BRANCH  24  26
ATOM     25  F   UNL     1      34.156 -23.121 -18.611  0.00  0.00    -0.204 F 
ATOM     26  C   UNL     1      34.829 -19.884 -21.024  0.00  0.00    +0.035 C 
ATOM     27  C   UNL     1      33.529 -20.227 -20.724  0.00  0.00    +0.005 C 
ATOM     28  C   UNL     1      35.911 -20.588 -20.545  0.00  0.00    +0.005 C 
ATOM     29  C   UNL     1      33.300 -21.329 -19.901  0.00  0.00    +0.030 C 
ATOM     30  C   UNL     1      35.681 -21.690 -19.722  0.00  0.00    +0.030 C 
ATOM     31  C   UNL     1      34.376 -22.062 -19.401  0.00  0.00    +0.140 C 
ENDBRANCH  24  26
ENDBRANCH  22  24
ENDBRANCH  21  22
ENDBRANCH  20  21
ENDBRANCH   1  20
TORSDOF 8
ENDMDL
MODEL 2
REMARK VINA RESULT:     -13.0      3.450     10.729
REMARK  Name = 5567
REMARK  8 active torsions:
REMARK  status: ('A' for Active; 'I' for Inactive)
REMARK    1  A    between atoms: N_1  and  C_20
REMARK    2  A    between atoms: C_2  and  C_8
REMARK    3  A    between atoms: C_2  and  O_18
REMARK    4  A    between atoms: C_11  and  C_17
REMARK    5  A    between atoms: C_20  and  C_21
REMARK    6  A    between atoms: C_21  and  C_22
REMARK    7  A    between atoms: C_22  and  C_24
REMARK    8  A    between atoms: C_24  and  C_26
REMARK                            x       y       z     vdW  Elec       q    Type
REMARK                         _______ _______ _______ _____ _____    ______ ____
ROOT
ATOM      1  N   UNL     1      35.250 -20.269 -20.376  0.00  0.00    +0.387 N 
ATOM      2  C   UNL     1      33.966 -22.430 -18.791  0.00  0.00    +0.103 C 
ATOM      3  C   UNL     1      33.188 -21.274 -19.458  0.00  0.00    +0.008 C 
ATOM      4  C   UNL     1      35.435 -21.987 -18.594  0.00  0.00    +0.008 C 
ATOM      5  C   UNL     1      33.890 -20.715 -20.701  0.00  0.00    -0.075 C 
ATOM      6  C   UNL     1      36.058 -21.377 -19.856  0.00  0.00    -0.075 C 
ATOM      7  H   UNL     1      35.181 -19.559 -19.647  0.00  0.00    -0.080 HD
ENDROOT
BRANCH   2   8
ATOM      8  C   UNL     1      33.375 -22.929 -17.472  0.00  0.00    +0.002 C 
ATOM      9  C   UNL     1      32.004 -22.831 -17.243  0.00  0.00    +0.002 C 
ATOM     10  C   UNL     1      34.209 -23.484 -16.503  0.00  0.00    -0.002 C 
ATOM     11  C   UNL     1      31.464 -23.289 -16.040  0.00  0.00    +0.071 C 
ATOM     12  C   UNL     1      33.669 -23.942 -15.300  0.00  0.00    -0.000 C 
ATOM     13  C   UNL     1      32.297 -23.843 -15.069  0.00  0.00    +0.004 C 
BRANCH  11  17
ATOM     14  F   UNL     1      29.375 -24.392 -15.662  0.00  0.00    -0.166 F 
ATOM     15  F   UNL     1      29.683 -22.496 -14.655  0.00  0.00    -0.166 F 
ATOM     16  F   UNL     1      29.339 -22.540 -16.802  0.00  0.00    -0.166 F 
ATOM     17  C   UNL     1      29.997 -23.182 -15.793  0.00  0.00    +0.419 C 
ENDBRANCH  11  17
ENDBRANCH   2   8
BRANCH   2  18
ATOM     18  O   UNL     1      33.924 -23.557 -19.680  0.00  0.00    -0.383 OA
ATOM     19  H   UNL     1      34.764 -23.621 -20.160  0.00  0.00    +0.211 HD
ENDBRANCH   2  18
BRANCH   1  20
ATOM     20  C   UNL     1      35.889 -19.674 -21.549  0.00  0.00    -0.077 C 
BRANCH  20  21
ATOM     21  C   UNL     1      34.997 -18.579 -22.139  0.00  0.00    -0.015 C 
BRANCH  21  22
ATOM     22  C   UNL     1      35.258 -17.211 -21.502  0.00  0.00    +0.067 C 
BRANCH  22  24
ATOM     23  O   UNL     1      35.662 -15.946 -23.518  0.00  0.00    -0.291 OA
ATOM     24  C   UNL     1      35.045 -16.048 -22.461  0.00  0.00    +0.173 C 
BRANCH  24  26
ATOM     25  F   UNL     1      31.251 -12.167 -21.148  0.00  0.00    -0.204 F 
ATOM     26  C   UNL     1      34.033 -15.011 -22.111  0.00  0.00    +0.035 C 
ATOM     27  C   UNL     1      33.680 -14.082 -23.064  0.00  0.00    +0.005 C 
ATOM     28  C   UNL     1      33.487 -15.022 -20.847  0.00  0.00    +0.005 C 
ATOM     29  C   UNL     1      32.733 -13.112 -22.736  0.00  0.00    +0.030 C 
ATOM     30  C   UNL     1      32.539 -14.052 -20.519  0.00  0.00    +0.030 C 
ATOM     31  C   UNL     1      32.161 -13.097 -21.463  0.00  0.00    +0.140 C 
ENDBRANCH  24  26
ENDBRANCH  22  24
ENDBRANCH  21  22
ENDBRANCH  20  21
ENDBRANCH   1  20
TORSDOF 8
ENDMDL
MODEL 3
REMARK VINA RESULT:     -12.9      3.420     10.843
REMARK  Name = 5567
REMARK  8 active torsions:
REMARK  status: ('A' for Active; 'I' for Inactive)
REMARK    1  A    between atoms: N_1  and  C_20
REMARK    2  A    between atoms: C_2  and  C_8
REMARK    3  A    between atoms: C_2  and  O_18
REMARK    4  A    between atoms: C_11  and  C_17
REMARK    5  A    between atoms: C_20  and  C_21
REMARK    6  A    between atoms: C_21  and  C_22
REMARK    7  A    between atoms: C_22  and  C_24
REMARK    8  A    between atoms: C_24  and  C_26
REMARK                            x       y       z     vdW  Elec       q    Type
REMARK                         _______ _______ _______ _____ _____    ______ ____
ROOT
ATOM      1  N   UNL     1      35.299 -20.201 -20.440  0.00  0.00    +0.387 N 
ATOM      2  C   UNL     1      34.051 -22.386 -18.860  0.00  0.00    +0.103 C 
ATOM      3  C   UNL     1      33.254 -21.241 -19.525  0.00  0.00    +0.008 C 
ATOM      4  C   UNL     1      35.512 -21.919 -18.662  0.00  0.00    +0.008 C 
ATOM      5  C   UNL     1      33.947 -20.668 -20.767  0.00  0.00    -0.075 C 
ATOM      6  C   UNL     1      36.126 -21.296 -19.922  0.00  0.00    -0.075 C 
ATOM      7  H   UNL     1      35.219 -19.494 -19.709  0.00  0.00    -0.080 HD
ENDROOT
BRANCH   2   8
ATOM      8  C   UNL     1      33.468 -22.898 -17.543  0.00  0.00    +0.002 C 
ATOM      9  C   UNL     1      32.094 -22.830 -17.317  0.00  0.00    +0.002 C 
ATOM     10  C   UNL     1      34.312 -23.435 -16.571  0.00  0.00    -0.002 C 
ATOM     11  C   UNL     1      31.562 -23.299 -16.115  0.00  0.00    +0.071 C 
ATOM     12  C   UNL     1      33.779 -23.904 -15.370  0.00  0.00    -0.000 C 
ATOM     13  C   UNL     1      32.404 -23.836 -15.142  0.00  0.00    +0.004 C 
BRANCH  11  17
ATOM     14  F   UNL     1      29.500 -24.447 -15.721  0.00  0.00    -0.166 F 
ATOM     15  F   UNL     1      29.760 -22.528 -14.744  0.00  0.00    -0.166 F 
ATOM     16  F   UNL     1      29.421 -22.615 -16.890  0.00  0.00    -0.166 F 
ATOM     17  C   UNL     1      30.092 -23.225 -15.871  0.00  0.00    +0.419 C 
ENDBRANCH  11  17
ENDBRANCH   2   8
BRANCH   2  18
ATOM     18  O   UNL     1      34.028 -23.511 -19.752  0.00  0.00    -0.383 OA
ATOM     19  H   UNL     1      34.661 -24.179 -19.445  0.00  0.00    +0.211 HD
ENDBRANCH   2  18
BRANCH   1  20
ATOM     20  C   UNL     1      35.928 -19.592 -21.611  0.00  0.00    -0.077 C 
BRANCH  20  21
ATOM     21  C   UNL     1      34.861 -19.022 -22.548  0.00  0.00    -0.015 C 
BRANCH  21  22
ATOM     22  C   UNL     1      35.407 -17.898 -23.434  0.00  0.00    +0.067 C 
BRANCH  22  24
ATOM     23  O   UNL     1      35.039 -16.137 -21.825  0.00  0.00    -0.291 OA
ATOM     24  C   UNL     1      34.962 -16.511 -22.992  0.00  0.00    +0.173 C 
BRANCH  24  26
ATOM     25  F   UNL     1      32.981 -12.986 -26.843  0.00  0.00    -0.204 F 
ATOM     26  C   UNL     1      34.434 -15.570 -24.020  0.00  0.00    +0.035 C 
ATOM     27  C   UNL     1      34.046 -16.074 -25.242  0.00  0.00    +0.005 C 
ATOM     28  C   UNL     1      34.352 -14.231 -23.711  0.00  0.00    +0.005 C 
ATOM     29  C   UNL     1      33.551 -15.194 -26.204  0.00  0.00    +0.030 C 
ATOM     30  C   UNL     1      33.857 -13.350 -24.673  0.00  0.00    +0.030 C 
ATOM     31  C   UNL     1      33.456 -13.832 -25.920  0.00  0.00    +0.140 C 
ENDBRANCH  24  26
ENDBRANCH  22  24
ENDBRANCH  21  22
ENDBRANCH  20  21
ENDBRANCH   1  20
TORSDOF 8
ENDMDL
MODEL 4
REMARK VINA RESULT:     -12.8      3.164     10.393
REMARK  Name = 5567
REMARK  8 active torsions:
REMARK  status: ('A' for Active; 'I' for Inactive)
REMARK    1  A    between atoms: N_1  and  C_20
REMARK    2  A    between atoms: C_2  and  C_8
REMARK    3  A    between atoms: C_2  and  O_18
REMARK    4  A    between atoms: C_11  and  C_17
REMARK    5  A    between atoms: C_20  and  C_21
REMARK    6  A    between atoms: C_21  and  C_22
REMARK    7  A    between atoms: C_22  and  C_24
REMARK    8  A    between atoms: C_24  and  C_26
REMARK                            x       y       z     vdW  Elec       q    Type
REMARK                         _______ _______ _______ _____ _____    ______ ____
ROOT
ATOM      1  N   UNL     1      31.671 -12.229 -22.099  0.00  0.00    +0.387 N 
ATOM      2  C   UNL     1      33.830 -14.130 -22.843  0.00  0.00    +0.103 C 
ATOM      3  C   UNL     1      33.178 -13.139 -23.832  0.00  0.00    +0.008 C 
ATOM      4  C   UNL     1      32.853 -14.368 -21.668  0.00  0.00    +0.008 C 
ATOM      5  C   UNL     1      32.633 -11.879 -23.150  0.00  0.00    -0.075 C 
ATOM      6  C   UNL     1      32.294 -13.070 -21.072  0.00  0.00    -0.075 C 
ATOM      7  H   UNL     1      30.917 -12.765 -22.531  0.00  0.00    -0.080 HD
ENDROOT
BRANCH   2   8
ATOM      8  C   UNL     1      34.267 -15.461 -23.456  0.00  0.00    +0.002 C 
ATOM      9  C   UNL     1      34.938 -16.400 -22.674  0.00  0.00    +0.002 C 
ATOM     10  C   UNL     1      33.990 -15.734 -24.794  0.00  0.00    -0.002 C 
ATOM     11  C   UNL     1      35.336 -17.615 -23.233  0.00  0.00    +0.071 C 
ATOM     12  C   UNL     1      34.388 -16.949 -25.353  0.00  0.00    -0.000 C 
ATOM     13  C   UNL     1      35.061 -17.889 -24.573  0.00  0.00    +0.004 C 
BRANCH  11  17
ATOM     14  F   UNL     1      37.387 -18.719 -22.691  0.00  0.00    -0.166 F 
ATOM     15  F   UNL     1      36.004 -18.357 -21.060  0.00  0.00    -0.166 F 
ATOM     16  F   UNL     1      35.555 -19.880 -22.545  0.00  0.00    -0.166 F 
ATOM     17  C   UNL     1      36.056 -18.620 -22.399  0.00  0.00    +0.419 C 
ENDBRANCH  11  17
ENDBRANCH   2   8
BRANCH   2  18
ATOM     18  O   UNL     1      35.034 -13.525 -22.346  0.00  0.00    -0.383 OA
ATOM     19  H   UNL     1      34.875 -13.171 -21.457  0.00  0.00    +0.211 HD
ENDBRANCH   2  18
BRANCH   1  20
ATOM     20  C   UNL     1      31.103 -11.022 -21.501  0.00  0.00    -0.077 C 
BRANCH  20  21
ATOM     21  C   UNL     1      31.719  -9.775 -22.138  0.00  0.00    -0.015 C 
BRANCH  21  22
ATOM     22  C   UNL     1      32.376  -8.858 -21.102  0.00  0.00    +0.067 C 
BRANCH  22  24
ATOM     23  O   UNL     1      31.789  -6.527 -20.882  0.00  0.00    -0.291 OA
ATOM     24  C   UNL     1      32.389  -7.393 -21.515  0.00  0.00    +0.173 C 
BRANCH  24  26
ATOM     25  F   UNL     1      35.340  -5.908 -26.016  0.00  0.00    -0.204 F 
ATOM     26  C   UNL     1      33.176  -6.997 -22.717  0.00  0.00    +0.035 C 
ATOM     27  C   UNL     1      32.594  -6.161 -23.644  0.00  0.00    +0.005 C 
ATOM     28  C   UNL     1      34.458  -7.480 -22.856  0.00  0.00    +0.005 C 
ATOM     29  C   UNL     1      33.331  -5.791 -24.768  0.00  0.00    +0.030 C 
ATOM     30  C   UNL     1      35.195  -7.110 -23.980  0.00  0.00    +0.030 C 
ATOM     31  C   UNL     1      34.632  -6.264 -24.937  0.00  0.00    +0.140 C 
ENDBRANCH  24  26
ENDBRANCH  22  24
ENDBRANCH  21  22
ENDBRANCH  20  21
ENDBRANCH   1  20
TORSDOF 8
ENDMDL
MODEL 5
REMARK VINA RESULT:     -12.6      3.325     11.180
REMARK  Name = 5567
REMARK  8 active torsions:
REMARK  status: ('A' for Active; 'I' for Inactive)
REMARK    1  A    between atoms: N_1  and  C_20
REMARK    2  A    between atoms: C_2  and  C_8
REMARK    3  A    between atoms: C_2  and  O_18
REMARK    4  A    between atoms: C_11  and  C_17
REMARK    5  A    between atoms: C_20  and  C_21
REMARK    6  A    between atoms: C_21  and  C_22
REMARK    7  A    between atoms: C_22  and  C_24
REMARK    8  A    between atoms: C_24  and  C_26
REMARK                            x       y       z     vdW  Elec       q    Type
REMARK                         _______ _______ _______ _____ _____    ______ ____
ROOT
ATOM      1  N   UNL     1      35.333 -20.172 -20.429  0.00  0.00    +0.387 N 
ATOM      2  C   UNL     1      34.121 -22.372 -18.840  0.00  0.00    +0.103 C 
ATOM      3  C   UNL     1      33.309 -21.224 -19.480  0.00  0.00    +0.008 C 
ATOM      4  C   UNL     1      35.585 -21.903 -18.668  0.00  0.00    +0.008 C 
ATOM      5  C   UNL     1      33.975 -20.641 -20.731  0.00  0.00    -0.075 C 
ATOM      6  C   UNL     1      36.171 -21.269 -19.936  0.00  0.00    -0.075 C 
ATOM      7  H   UNL     1      35.265 -19.471 -19.691  0.00  0.00    -0.080 HD
ENDROOT
BRANCH   2   8
ATOM      8  C   UNL     1      33.566 -22.895 -17.515  0.00  0.00    +0.002 C 
ATOM      9  C   UNL     1      34.439 -23.295 -16.504  0.00  0.00    +0.002 C 
ATOM     10  C   UNL     1      32.188 -22.969 -17.320  0.00  0.00    -0.002 C 
ATOM     11  C   UNL     1      33.932 -23.772 -15.294  0.00  0.00    +0.071 C 
ATOM     12  C   UNL     1      31.681 -23.445 -16.110  0.00  0.00    -0.000 C 
ATOM     13  C   UNL     1      32.554 -23.847 -15.098  0.00  0.00    +0.004 C 
BRANCH  11  17
ATOM     14  F   UNL     1      35.574 -25.330 -14.520  0.00  0.00    -0.166 F 
ATOM     15  F   UNL     1      35.806 -23.265 -13.898  0.00  0.00    -0.166 F 
ATOM     16  F   UNL     1      34.220 -24.483 -13.044  0.00  0.00    -0.166 F 
ATOM     17  C   UNL     1      34.865 -24.202 -14.213  0.00  0.00    +0.419 C 
ENDBRANCH  11  17
ENDBRANCH   2   8
BRANCH   2  18
ATOM     18  O   UNL     1      34.082 -23.491 -19.740  0.00  0.00    -0.383 OA
ATOM     19  H   UNL     1      33.964 -24.309 -19.232  0.00  0.00    +0.211 HD
ENDBRANCH   2  18
BRANCH   1  20
ATOM     20  C   UNL     1      35.936 -19.554 -21.608  0.00  0.00    -0.077 C 
BRANCH  20  21
ATOM     21  C   UNL     1      34.991 -18.505 -22.198  0.00  0.00    -0.015 C 
BRANCH  21  22
ATOM     22  C   UNL     1      35.123 -17.147 -21.502  0.00  0.00    +0.067 C 
BRANCH  22  24
ATOM     23  O   UNL     1      35.636 -15.866 -23.483  0.00  0.00    -0.291 OA
ATOM     24  C   UNL     1      34.976 -15.965 -22.451  0.00  0.00    +0.173 C 
BRANCH  24  26
ATOM     25  F   UNL     1      31.242 -12.001 -21.222  0.00  0.00    -0.204 F 
ATOM     26  C   UNL     1      33.980 -14.906 -22.123  0.00  0.00    +0.035 C 
ATOM     27  C   UNL     1      33.700 -13.945 -23.069  0.00  0.00    +0.005 C 
ATOM     28  C   UNL     1      33.375 -14.929 -20.886  0.00  0.00    +0.005 C 
ATOM     29  C   UNL     1      32.768 -12.955 -22.761  0.00  0.00    +0.030 C 
ATOM     30  C   UNL     1      32.442 -13.938 -20.579  0.00  0.00    +0.030 C 
ATOM     31  C   UNL     1      32.138 -12.951 -21.517  0.00  0.00    +0.140 C 
ENDBRANCH  24  26
ENDBRANCH  22  24
ENDBRANCH  21  22
ENDBRANCH  20  21
ENDBRANCH   1  20
TORSDOF 8
ENDMDL
MODEL 6
REMARK VINA RESULT:     -12.5      1.633      9.603
REMARK  Name = 5567
REMARK  8 active torsions:
REMARK  status: ('A' for Active; 'I' for Inactive)
REMARK    1  A    between atoms: N_1  and  C_20
REMARK    2  A    between atoms: C_2  and  C_8
REMARK    3  A    between atoms: C_2  and  O_18
REMARK    4  A    between atoms: C_11  and  C_17
REMARK    5  A    between atoms: C_20  and  C_21
REMARK    6  A    between atoms: C_21  and  C_22
REMARK    7  A    between atoms: C_22  and  C_24
REMARK    8  A    between atoms: C_24  and  C_26
REMARK                            x       y       z     vdW  Elec       q    Type
REMARK                         _______ _______ _______ _____ _____    ______ ____
ROOT
ATOM      1  N   UNL     1      34.213 -16.389 -23.844  0.00  0.00    +0.387 N 
ATOM      2  C   UNL     1      35.747 -18.434 -22.330  0.00  0.00    +0.103 C 
ATOM      3  C   UNL     1      34.849 -18.757 -23.545  0.00  0.00    +0.008 C 
ATOM      4  C   UNL     1      35.284 -17.091 -21.719  0.00  0.00    +0.008 C 
ATOM      5  C   UNL     1      34.720 -17.585 -24.526  0.00  0.00    -0.075 C 
ATOM      6  C   UNL     1      35.111 -15.978 -22.761  0.00  0.00    -0.075 C 
ATOM      7  H   UNL     1      33.309 -16.622 -23.434  0.00  0.00    -0.080 HD
ENDROOT
BRANCH   2   8
ATOM      8  C   UNL     1      35.798 -19.523 -21.258  0.00  0.00    +0.002 C 
ATOM      9  C   UNL     1      34.619 -20.121 -20.817  0.00  0.00    +0.002 C 
ATOM     10  C   UNL     1      37.024 -19.917 -20.725  0.00  0.00    -0.002 C 
ATOM     11  C   UNL     1      34.665 -21.116 -19.840  0.00  0.00    +0.071 C 
ATOM     12  C   UNL     1      37.071 -20.911 -19.748  0.00  0.00    -0.000 C 
ATOM     13  C   UNL     1      35.891 -21.510 -19.305  0.00  0.00    +0.004 C 
BRANCH  11  17
ATOM     14  F   UNL     1      32.353 -20.888 -19.273  0.00  0.00    -0.166 F 
ATOM     15  F   UNL     1      32.964 -22.763 -20.176  0.00  0.00    -0.166 F 
ATOM     16  F   UNL     1      33.531 -22.310 -18.126  0.00  0.00    -0.166 F 
ATOM     17  C   UNL     1      33.404 -21.756 -19.365  0.00  0.00    +0.419 C 
ENDBRANCH  11  17
ENDBRANCH   2   8
BRANCH   2  18
ATOM     18  O   UNL     1      37.096 -18.301 -22.805  0.00  0.00    -0.383 OA
ATOM     19  H   UNL     1      37.713 -18.508 -22.085  0.00  0.00    +0.211 HD
ENDBRANCH   2  18
BRANCH   1  20
ATOM     20  C   UNL     1      34.025 -15.296 -24.798  0.00  0.00    -0.077 C 
BRANCH  20  21
ATOM     21  C   UNL     1      34.041 -13.950 -24.070  0.00  0.00    -0.015 C 
BRANCH  21  22
ATOM     22  C   UNL     1      32.632 -13.456 -23.733  0.00  0.00    +0.067 C 
BRANCH  22  24
ATOM     23  O   UNL     1      32.359 -14.240 -21.467  0.00  0.00    -0.291 OA
ATOM     24  C   UNL     1      32.392 -13.286 -22.239  0.00  0.00    +0.173 C 
BRANCH  24  26
ATOM     25  F   UNL     1      31.719  -8.127 -20.212  0.00  0.00    -0.204 F 
ATOM     26  C   UNL     1      32.214 -11.908 -21.698  0.00  0.00    +0.035 C 
ATOM     27  C   UNL     1      32.303 -10.841 -22.564  0.00  0.00    +0.005 C 
ATOM     28  C   UNL     1      31.964 -11.754 -20.353  0.00  0.00    +0.005 C 
ATOM     29  C   UNL     1      32.135  -9.552 -22.057  0.00  0.00    +0.030 C 
ATOM     30  C   UNL     1      31.796 -10.465 -19.847  0.00  0.00    +0.030 C 
ATOM     31  C   UNL     1      31.881  -9.364 -20.699  0.00  0.00    +0.140 C 
ENDBRANCH  24  26
ENDBRANCH  22  24
ENDBRANCH  21  22
ENDBRANCH  20  21
ENDBRANCH   1  20
TORSDOF 8
ENDMDL
MODEL 7
REMARK VINA RESULT:     -12.4      3.671     10.390
REMARK  Name = 5567
REMARK  8 active torsions:
REMARK  status: ('A' for Active; 'I' for Inactive)
REMARK    1  A    between atoms: N_1  and  C_20
REMARK    2  A    between atoms: C_2  and  C_8
REMARK    3  A    between atoms: C_2  and  O_18
REMARK    4  A    between atoms: C_11  and  C_17
REMARK    5  A    between atoms: C_20  and  C_21
REMARK    6  A    between atoms: C_21  and  C_22
REMARK    7  A    between atoms: C_22  and  C_24
REMARK    8  A    between atoms: C_24  and  C_26
REMARK                            x       y       z     vdW  Elec       q    Type
REMARK                         _______ _______ _______ _____ _____    ______ ____
ROOT
ATOM      1  N   UNL     1      31.757 -12.451 -22.146  0.00  0.00    +0.387 N 
ATOM      2  C   UNL     1      33.959 -14.445 -22.081  0.00  0.00    +0.103 C 
ATOM      3  C   UNL     1      33.415 -13.805 -23.378  0.00  0.00    +0.008 C 
ATOM      4  C   UNL     1      32.871 -14.342 -20.988  0.00  0.00    +0.008 C 
ATOM      5  C   UNL     1      32.820 -12.410 -23.157  0.00  0.00    -0.075 C 
ATOM      6  C   UNL     1      32.269 -12.937 -20.861  0.00  0.00    -0.075 C 
ATOM      7  H   UNL     1      31.043 -13.105 -22.468  0.00  0.00    -0.080 HD
ENDROOT
BRANCH   2   8
ATOM      8  C   UNL     1      34.440 -15.889 -22.226  0.00  0.00    +0.002 C 
ATOM      9  C   UNL     1      34.301 -16.549 -23.446  0.00  0.00    +0.002 C 
ATOM     10  C   UNL     1      35.018 -16.542 -21.139  0.00  0.00    -0.002 C 
ATOM     11  C   UNL     1      34.741 -17.867 -23.579  0.00  0.00    +0.071 C 
ATOM     12  C   UNL     1      35.458 -17.859 -21.272  0.00  0.00    -0.000 C 
ATOM     13  C   UNL     1      35.319 -18.521 -22.492  0.00  0.00    +0.004 C 
BRANCH  11  17
ATOM     14  F   UNL     1      35.082 -17.872 -25.947  0.00  0.00    -0.166 F 
ATOM     15  F   UNL     1      35.233 -19.780 -24.927  0.00  0.00    -0.166 F 
ATOM     16  F   UNL     1      33.289 -18.841 -25.190  0.00  0.00    -0.166 F 
ATOM     17  C   UNL     1      34.591 -18.575 -24.883  0.00  0.00    +0.419 C 
ENDBRANCH  11  17
ENDBRANCH   2   8
BRANCH   2  18
ATOM     18  O   UNL     1      35.115 -13.696 -21.675  0.00  0.00    -0.383 OA
ATOM     19  H   UNL     1      35.811 -14.308 -21.385  0.00  0.00    +0.211 HD
ENDBRANCH   2  18
BRANCH   1  20
ATOM     20  C   UNL     1      31.146 -11.132 -21.990  0.00  0.00    -0.077 C 
BRANCH  20  21
ATOM     21  C   UNL     1      32.015 -10.064 -22.657  0.00  0.00    -0.015 C 
BRANCH  21  22
ATOM     22  C   UNL     1      32.452  -8.974 -21.674  0.00  0.00    +0.067 C 
BRANCH  22  24
ATOM     23  O   UNL     1      31.314  -6.847 -21.757  0.00  0.00    -0.291 OA
ATOM     24  C   UNL     1      32.213  -7.562 -22.192  0.00  0.00    +0.173 C 
BRANCH  24  26
ATOM     25  F   UNL     1      35.605  -5.555 -26.147  0.00  0.00    -0.204 F 
ATOM     26  C   UNL     1      33.118  -7.027 -23.248  0.00  0.00    +0.035 C 
ATOM     27  C   UNL     1      32.593  -6.190 -24.208  0.00  0.00    +0.005 C 
ATOM     28  C   UNL     1      34.446  -7.389 -23.226  0.00  0.00    +0.005 C 
ATOM     29  C   UNL     1      33.440  -5.689 -25.196  0.00  0.00    +0.030 C 
ATOM     30  C   UNL     1      35.293  -6.888 -24.214  0.00  0.00    +0.030 C 
ATOM     31  C   UNL     1      34.791  -6.037 -25.199  0.00  0.00    +0.140 C 
ENDBRANCH  24  26
ENDBRANCH  22  24
ENDBRANCH  21  22
ENDBRANCH  20  21
ENDBRANCH   1  20
TORSDOF 8
ENDMDL
MODEL 8
REMARK VINA RESULT:     -12.3      1.658      2.320
REMARK  Name = 5567
REMARK  8 active torsions:
REMARK  status: ('A' for Active; 'I' for Inactive)
REMARK    1  A    between atoms: N_1  and  C_20
REMARK    2  A    between atoms: C_2  and  C_8
REMARK    3  A    between atoms: C_2  and  O_18
REMARK    4  A    between atoms: C_11  and  C_17
REMARK    5  A    between atoms: C_20  and  C_21
REMARK    6  A    between atoms: C_21  and  C_22
REMARK    7  A    between atoms: C_22  and  C_24
REMARK    8  A    between atoms: C_24  and  C_26
REMARK                            x       y       z     vdW  Elec       q    Type
REMARK                         _______ _______ _______ _____ _____    ______ ____
ROOT
ATOM      1  N   UNL     1      34.778 -15.480 -24.265  0.00  0.00    +0.387 N 
ATOM      2  C   UNL     1      33.065 -13.407 -23.001  0.00  0.00    +0.103 C 
ATOM      3  C   UNL     1      33.085 -13.698 -24.518  0.00  0.00    +0.008 C 
ATOM      4  C   UNL     1      34.393 -13.905 -22.386  0.00  0.00    +0.008 C 
ATOM      5  C   UNL     1      33.473 -15.145 -24.848  0.00  0.00    -0.075 C 
ATOM      6  C   UNL     1      34.757 -15.335 -22.807  0.00  0.00    -0.075 C 
ATOM      7  H   UNL     1      35.465 -14.825 -24.638  0.00  0.00    -0.080 HD
ENDROOT
BRANCH   2   8
ATOM      8  C   UNL     1      32.816 -11.944 -22.629  0.00  0.00    +0.002 C 
ATOM      9  C   UNL     1      32.277 -11.626 -21.383  0.00  0.00    +0.002 C 
ATOM     10  C   UNL     1      33.132 -10.933 -23.534  0.00  0.00    -0.002 C 
ATOM     11  C   UNL     1      32.051 -10.292 -21.042  0.00  0.00    +0.071 C 
ATOM     12  C   UNL     1      32.907  -9.599 -23.193  0.00  0.00    -0.000 C 
ATOM     13  C   UNL     1      32.366  -9.279 -21.947  0.00  0.00    +0.004 C 
BRANCH  11  17
ATOM     14  F   UNL     1      30.159 -10.305 -19.579  0.00  0.00    -0.166 F 
ATOM     15  F   UNL     1      32.110 -10.554 -18.666  0.00  0.00    -0.166 F 
ATOM     16  F   UNL     1      31.517  -8.613 -19.446  0.00  0.00    -0.166 F 
ATOM     17  C   UNL     1      31.471  -9.950 -19.711  0.00  0.00    +0.419 C 
ENDBRANCH  11  17
ENDBRANCH   2   8
BRANCH   2  18
ATOM     18  O   UNL     1      31.971 -14.139 -22.429  0.00  0.00    -0.383 OA
ATOM     19  H   UNL     1      32.298 -14.696 -21.705  0.00  0.00    +0.211 HD
ENDBRANCH   2  18
BRANCH   1  20
ATOM     20  C   UNL     1      35.173 -16.836 -24.641  0.00  0.00    -0.077 C 
BRANCH  20  21
ATOM     21  C   UNL     1      34.648 -17.844 -23.616  0.00  0.00    -0.015 C 
BRANCH  21  22
ATOM     22  C   UNL     1      35.672 -18.938 -23.300  0.00  0.00    +0.067 C 
BRANCH  22  24
ATOM     23  O   UNL     1      36.856 -18.322 -21.288  0.00  0.00    -0.291 OA
ATOM     24  C   UNL     1      36.011 -19.038 -21.819  0.00  0.00    +0.173 C 
BRANCH  24  26
ATOM     25  F   UNL     1      33.238 -22.743 -18.694  0.00  0.00    -0.204 F 
ATOM     26  C   UNL     1      35.270 -20.026 -20.983  0.00  0.00    +0.035 C 
ATOM     27  C   UNL     1      33.894 -19.990 -20.981  0.00  0.00    +0.005 C 
ATOM     28  C   UNL     1      35.990 -20.939 -20.247  0.00  0.00    +0.005 C 
ATOM     29  C   UNL     1      33.201 -20.916 -20.200  0.00  0.00    +0.030 C 
ATOM     30  C   UNL     1      35.298 -21.865 -19.466  0.00  0.00    +0.030 C 
ATOM     31  C   UNL     1      33.903 -21.854 -19.443  0.00  0.00    +0.140 C 
ENDBRANCH  24  26
ENDBRANCH  22  24
ENDBRANCH  21  22
ENDBRANCH  20  21
ENDBRANCH   1  20
TORSDOF 8
ENDMDL
MODEL 9
REMARK VINA RESULT:     -12.3      1.362      1.853
REMARK  Name = 5567
REMARK  8 active torsions:
REMARK  status: ('A' for Active; 'I' for Inactive)
REMARK    1  A    between atoms: N_1  and  C_20
REMARK    2  A    between atoms: C_2  and  C_8
REMARK    3  A    between atoms: C_2  and  O_18
REMARK    4  A    between atoms: C_11  and  C_17
REMARK    5  A    between atoms: C_20  and  C_21
REMARK    6  A    between atoms: C_21  and  C_22
REMARK    7  A    between atoms: C_22  and  C_24
REMARK    8  A    between atoms: C_24  and  C_26
REMARK                            x       y       z     vdW  Elec       q    Type
REMARK                         _______ _______ _______ _____ _____    ______ ____
ROOT
ATOM      1  N   UNL     1      34.901 -14.949 -23.116  0.00  0.00    +0.387 N 
ATOM      2  C   UNL     1      32.813 -12.915 -22.541  0.00  0.00    +0.103 C 
ATOM      3  C   UNL     1      33.886 -12.759 -23.641  0.00  0.00    +0.008 C 
ATOM      4  C   UNL     1      33.326 -13.929 -21.492  0.00  0.00    +0.008 C 
ATOM      5  C   UNL     1      34.380 -14.101 -24.194  0.00  0.00    -0.075 C 
ATOM      6  C   UNL     1      33.866 -15.223 -22.113  0.00  0.00    -0.075 C 
ATOM      7  H   UNL     1      35.659 -14.444 -22.657  0.00  0.00    -0.080 HD
ENDROOT
BRANCH   2   8
ATOM      8  C   UNL     1      32.388 -11.611 -21.865  0.00  0.00    +0.002 C 
ATOM      9  C   UNL     1      32.278 -10.442 -22.615  0.00  0.00    +0.002 C 
ATOM     10  C   UNL     1      32.108 -11.596 -20.499  0.00  0.00    -0.002 C 
ATOM     11  C   UNL     1      31.888  -9.252 -21.998  0.00  0.00    +0.071 C 
ATOM     12  C   UNL     1      31.719 -10.406 -19.883  0.00  0.00    -0.000 C 
ATOM     13  C   UNL     1      31.609  -9.235 -20.632  0.00  0.00    +0.004 C 
BRANCH  11  17
ATOM     14  F   UNL     1      31.246  -8.194 -24.046  0.00  0.00    -0.166 F 
ATOM     15  F   UNL     1      30.977  -7.052 -22.221  0.00  0.00    -0.166 F 
ATOM     16  F   UNL     1      32.978  -7.393 -23.002  0.00  0.00    -0.166 F 
ATOM     17  C   UNL     1      31.773  -8.000 -22.800  0.00  0.00    +0.419 C 
ENDBRANCH  11  17
ENDBRANCH   2   8
BRANCH   2  18
ATOM     18  O   UNL     1      31.624 -13.430 -23.160  0.00  0.00    -0.383 OA
ATOM     19  H   UNL     1      30.869 -12.865 -22.930  0.00  0.00    +0.211 HD
ENDBRANCH   2  18
BRANCH   1  20
ATOM     20  C   UNL     1      35.434 -16.199 -23.658  0.00  0.00    -0.077 C 
BRANCH  20  21
ATOM     21  C   UNL     1      35.073 -17.370 -22.742  0.00  0.00    -0.015 C 
BRANCH  21  22
ATOM     22  C   UNL     1      36.031 -18.553 -22.906  0.00  0.00    +0.067 C 
BRANCH  22  24
ATOM     23  O   UNL     1      37.599 -18.846 -21.094  0.00  0.00    -0.291 OA
ATOM     24  C   UNL     1      36.508 -19.132 -21.581  0.00  0.00    +0.173 C 
BRANCH  24  26
ATOM     25  F   UNL     1      33.129 -22.611 -18.814  0.00  0.00    -0.204 F 
ATOM     26  C   UNL     1      35.606 -20.062 -20.843  0.00  0.00    +0.035 C 
ATOM     27  C   UNL     1      36.168 -21.041 -20.054  0.00  0.00    +0.005 C 
ATOM     28  C   UNL     1      34.245 -19.906 -20.976  0.00  0.00    +0.005 C 
ATOM     29  C   UNL     1      35.323 -21.910 -19.363  0.00  0.00    +0.030 C 
ATOM     30  C   UNL     1      33.401 -20.775 -20.285  0.00  0.00    +0.030 C 
ATOM     31  C   UNL     1      33.940 -21.777 -19.478  0.00  0.00    +0.140 C 
ENDBRANCH  24  26
ENDBRANCH  22  24
ENDBRANCH  21  22
ENDBRANCH  20  21
ENDBRANCH   1  20
TORSDOF 8
ENDMDL
