MODEL 1
REMARK VINA RESULT:     -13.0      0.000      0.000
REMARK  Name = 44129624
REMARK  6 active torsions:
REMARK  status: ('A' for Active; 'I' for Inactive)
REMARK    1  A    between atoms: C_1  and  O_20
REMARK    2  A    between atoms: C_4  and  C_8
REMARK    3  A    between atoms: C_8  and  C_9
REMARK    4  A    between atoms: C_10  and  C_16
REMARK    5  A    between atoms: O_20  and  C_21
REMARK    6  A    between atoms: C_21  and  C_23
REMARK                            x       y       z     vdW  Elec       q    Type
REMARK                         _______ _______ _______ _____ _____    ______ ____
ROOT
ATOM      1  C   UNL     1      33.635 -21.967 -19.282  0.00  0.00    +0.138 C 
ATOM      2  C   UNL     1      33.097 -20.966 -20.090  0.00  0.00    +0.037 C 
ATOM      3  C   UNL     1      35.017 -22.076 -19.133  0.00  0.00    +0.037 C 
ATOM      4  C   UNL     1      35.324 -20.181 -20.601  0.00  0.00    +0.039 C 
ATOM      5  C   UNL     1      33.940 -20.073 -20.749  0.00  0.00    +0.006 C 
ATOM      6  C   UNL     1      35.861 -21.182 -19.793  0.00  0.00    +0.006 C 
ENDROOT
BRANCH   4   8
ATOM      7  O   UNL     1      37.433 -19.348 -21.168  0.00  0.00    -0.287 OA
ATOM      8  C   UNL     1      36.203 -19.248 -21.286  0.00  0.00    +0.196 C 
BRANCH   8   9
ATOM      9  C   UNL     1      35.684 -18.145 -22.151  0.00  0.00    +0.039 C 
ATOM     10  C   UNL     1      34.717 -16.086 -23.765  0.00  0.00    +0.001 C 
ATOM     11  C   UNL     1      35.328 -16.923 -21.582  0.00  0.00    +0.003 C 
ATOM     12  C   UNL     1      35.556 -18.338 -23.527  0.00  0.00    +0.003 C 
ATOM     13  C   UNL     1      34.845 -15.893 -22.389  0.00  0.00    +0.000 C 
ATOM     14  C   UNL     1      35.073 -17.309 -24.333  0.00  0.00    +0.000 C 
BRANCH  10  16
ATOM     15  S   UNL     1      33.264 -13.851 -26.670  0.00  0.00    -0.086 S 
ATOM     16  C   UNL     1      34.220 -15.025 -24.594  0.00  0.00    +0.007 C 
ATOM     17  C   UNL     1      34.078 -13.652 -24.241  0.00  0.00    +0.007 C 
ATOM     18  C   UNL     1      33.814 -15.271 -25.888  0.00  0.00    +0.035 C 
ATOM     19  C   UNL     1      33.568 -12.901 -25.278  0.00  0.00    +0.035 C 
ENDBRANCH  10  16
ENDBRANCH   8   9
ENDBRANCH   4   8
BRANCH   1  20
ATOM     20  O   UNL     1      32.805 -22.847 -18.633  0.00  0.00    -0.478 OA
BRANCH  20  21
ATOM     21  C   UNL     1      33.110 -23.137 -17.279  0.00  0.00    +0.184 C 
BRANCH  21  23
ATOM     22  N   UNL     1      30.668 -22.747 -17.085  0.00  0.00    +0.388 N 
ATOM     23  C   UNL     1      31.822 -23.485 -16.549  0.00  0.00    -0.017 C 
ATOM     24  C   UNL     1      31.842 -23.080 -15.084  0.00  0.00    -0.020 C 
ATOM     25  C   UNL     1      30.371 -22.938 -14.721  0.00  0.00    -0.025 C 
ATOM     26  C   UNL     1      29.635 -22.876 -16.052  0.00  0.00    -0.082 C 
ATOM     27  H   UNL     1      30.353 -23.161 -17.962  0.00  0.00    -0.084 HD
ATOM     28  H   UNL     1      30.893 -21.774 -17.288  0.00  0.00    -0.084 HD
ENDBRANCH  21  23
ENDBRANCH  20  21
ENDBRANCH   1  20
TORSDOF 6
ENDMDL
MODEL 2
REMARK VINA RESULT:     -12.4      1.454      1.749
REMARK  Name = 44129624
REMARK  6 active torsions:
REMARK  status: ('A' for Active; 'I' for Inactive)
REMARK    1  A    between atoms: C_1  and  O_20
REMARK    2  A    between atoms: C_4  and  C_8
REMARK    3  A    between atoms: C_8  and  C_9
REMARK    4  A    between atoms: C_10  and  C_16
REMARK    5  A    between atoms: O_20  and  C_21
REMARK    6  A    between atoms: C_21  and  C_23
REMARK                            x       y       z     vdW  Elec       q    Type
REMARK                         _______ _______ _______ _____ _____    ______ ____
ROOT
ATOM      1  C   UNL     1      33.991 -21.792 -19.634  0.00  0.00    +0.138 C 
ATOM      2  C   UNL     1      33.263 -20.870 -20.386  0.00  0.00    +0.037 C 
ATOM      3  C   UNL     1      35.381 -21.698 -19.570  0.00  0.00    +0.037 C 
ATOM      4  C   UNL     1      35.316 -19.758 -21.009  0.00  0.00    +0.039 C 
ATOM      5  C   UNL     1      33.925 -19.853 -21.073  0.00  0.00    +0.006 C 
ATOM      6  C   UNL     1      36.043 -20.680 -20.257  0.00  0.00    +0.006 C 
ENDROOT
BRANCH   4   8
ATOM      7  O   UNL     1      37.155 -18.876 -22.152  0.00  0.00    -0.287 OA
ATOM      8  C   UNL     1      36.005 -18.696 -21.724  0.00  0.00    +0.196 C 
BRANCH   8   9
ATOM      9  C   UNL     1      35.380 -17.362 -21.975  0.00  0.00    +0.039 C 
ATOM     10  C   UNL     1      34.215 -14.872 -22.445  0.00  0.00    +0.001 C 
ATOM     11  C   UNL     1      34.999 -16.558 -20.902  0.00  0.00    +0.003 C 
ATOM     12  C   UNL     1      35.178 -16.922 -23.284  0.00  0.00    +0.003 C 
ATOM     13  C   UNL     1      34.416 -15.313 -21.137  0.00  0.00    +0.000 C 
ATOM     14  C   UNL     1      34.595 -15.677 -23.518  0.00  0.00    +0.000 C 
BRANCH  10  16
ATOM     15  S   UNL     1      32.059 -11.571 -22.359  0.00  0.00    -0.086 S 
ATOM     16  C   UNL     1      33.616 -13.589 -22.685  0.00  0.00    +0.007 C 
ATOM     17  C   UNL     1      33.940 -12.669 -23.722  0.00  0.00    +0.007 C 
ATOM     18  C   UNL     1      32.608 -13.118 -21.871  0.00  0.00    +0.035 C 
ATOM     19  C   UNL     1      33.169 -11.528 -23.662  0.00  0.00    +0.035 C 
ENDBRANCH  10  16
ENDBRANCH   8   9
ENDBRANCH   4   8
BRANCH   1  20
ATOM     20  O   UNL     1      33.340 -22.794 -18.957  0.00  0.00    -0.478 OA
BRANCH  20  21
ATOM     21  C   UNL     1      33.722 -23.010 -17.609  0.00  0.00    +0.184 C 
BRANCH  21  23
ATOM     22  N   UNL     1      31.290 -22.715 -17.223  0.00  0.00    +0.388 N 
ATOM     23  C   UNL     1      32.499 -23.446 -16.817  0.00  0.00    -0.017 C 
ATOM     24  C   UNL     1      32.611 -23.134 -15.333  0.00  0.00    -0.020 C 
ATOM     25  C   UNL     1      31.166 -23.064 -14.862  0.00  0.00    -0.025 C 
ATOM     26  C   UNL     1      30.336 -22.943 -16.132  0.00  0.00    -0.082 C 
ATOM     27  H   UNL     1      30.926 -23.082 -18.102  0.00  0.00    -0.084 HD
ATOM     28  H   UNL     1      31.472 -21.723 -17.376  0.00  0.00    -0.084 HD
ENDBRANCH  21  23
ENDBRANCH  20  21
ENDBRANCH   1  20
TORSDOF 6
ENDMDL
MODEL 3
REMARK VINA RESULT:     -12.0      2.019      2.807
REMARK  Name = 44129624
REMARK  6 active torsions:
REMARK  status: ('A' for Active; 'I' for Inactive)
REMARK    1  A    between atoms: C_1  and  O_20
REMARK    2  A    between atoms: C_4  and  C_8
REMARK    3  A    between atoms: C_8  and  C_9
REMARK    4  A    between atoms: C_10  and  C_16
REMARK    5  A    between atoms: O_20  and  C_21
REMARK    6  A    between atoms: C_21  and  C_23
REMARK                            x       y       z     vdW  Elec       q    Type
REMARK                         _______ _______ _______ _____ _____    ______ ____
ROOT
ATOM      1  C   UNL     1      35.135 -21.647 -19.515  0.00  0.00    +0.138 C 
ATOM      2  C   UNL     1      36.439 -21.192 -19.708  0.00  0.00    +0.037 C 
ATOM      3  C   UNL     1      34.080 -21.057 -20.210  0.00  0.00    +0.037 C 
ATOM      4  C   UNL     1      35.634 -19.557 -21.294  0.00  0.00    +0.039 C 
ATOM      5  C   UNL     1      36.689 -20.148 -20.597  0.00  0.00    +0.006 C 
ATOM      6  C   UNL     1      34.330 -20.012 -21.100  0.00  0.00    +0.006 C 
ENDROOT
BRANCH   4   8
ATOM      7  O   UNL     1      36.751 -18.599 -23.111  0.00  0.00    -0.287 OA
ATOM      8  C   UNL     1      35.895 -18.470 -22.223  0.00  0.00    +0.196 C 
BRANCH   8   9
ATOM      9  C   UNL     1      35.164 -17.168 -22.160  0.00  0.00    +0.039 C 
ATOM     10  C   UNL     1      33.798 -14.739 -22.041  0.00  0.00    +0.001 C 
ATOM     11  C   UNL     1      34.756 -16.540 -23.336  0.00  0.00    +0.003 C 
ATOM     12  C   UNL     1      34.890 -16.581 -20.924  0.00  0.00    +0.003 C 
ATOM     13  C   UNL     1      34.073 -15.325 -23.276  0.00  0.00    +0.000 C 
ATOM     14  C   UNL     1      34.207 -15.367 -20.865  0.00  0.00    +0.000 C 
BRANCH  10  16
ATOM     15  S   UNL     1      32.266 -11.166 -22.705  0.00  0.00    -0.086 S 
ATOM     16  C   UNL     1      33.094 -13.489 -21.982  0.00  0.00    +0.007 C 
ATOM     17  C   UNL     1      32.245 -13.029 -20.934  0.00  0.00    +0.007 C 
ATOM     18  C   UNL     1      33.194 -12.574 -23.007  0.00  0.00    +0.035 C 
ATOM     19  C   UNL     1      31.728 -11.779 -21.199  0.00  0.00    +0.035 C 
ENDBRANCH  10  16
ENDBRANCH   8   9
ENDBRANCH   4   8
BRANCH   1  20
ATOM     20  O   UNL     1      34.888 -22.675 -18.639  0.00  0.00    -0.478 OA
BRANCH  20  21
ATOM     21  C   UNL     1      33.530 -23.017 -18.418  0.00  0.00    +0.184 C 
BRANCH  21  23
ATOM     22  N   UNL     1      33.977 -23.869 -16.132  0.00  0.00    +0.388 N 
ATOM     23  C   UNL     1      33.228 -22.890 -16.933  0.00  0.00    -0.017 C 
ATOM     24  C   UNL     1      31.778 -23.201 -16.594  0.00  0.00    -0.020 C 
ATOM     25  C   UNL     1      31.823 -23.611 -15.129  0.00  0.00    -0.025 C 
ATOM     26  C   UNL     1      33.290 -23.890 -14.836  0.00  0.00    -0.082 C 
ATOM     27  H   UNL     1      34.947 -23.575 -16.021  0.00  0.00    -0.084 HD
ATOM     28  H   UNL     1      34.001 -24.789 -16.571  0.00  0.00    -0.084 HD
ENDBRANCH  21  23
ENDBRANCH  20  21
ENDBRANCH   1  20
TORSDOF 6
ENDMDL
MODEL 4
REMARK VINA RESULT:     -11.9      4.506      9.322
REMARK  Name = 44129624
REMARK  6 active torsions:
REMARK  status: ('A' for Active; 'I' for Inactive)
REMARK    1  A    between atoms: C_1  and  O_20
REMARK    2  A    between atoms: C_4  and  C_8
REMARK    3  A    between atoms: C_8  and  C_9
REMARK    4  A    between atoms: C_10  and  C_16
REMARK    5  A    between atoms: O_20  and  C_21
REMARK    6  A    between atoms: C_21  and  C_23
REMARK                            x       y       z     vdW  Elec       q    Type
REMARK                         _______ _______ _______ _____ _____    ______ ____
ROOT
ATOM      1  C   UNL     1      34.661 -14.994 -22.580  0.00  0.00    +0.138 C 
ATOM      2  C   UNL     1      34.711 -15.667 -23.800  0.00  0.00    +0.037 C 
ATOM      3  C   UNL     1      34.760 -15.707 -21.385  0.00  0.00    +0.037 C 
ATOM      4  C   UNL     1      34.959 -17.767 -22.632  0.00  0.00    +0.039 C 
ATOM      5  C   UNL     1      34.860 -17.053 -23.827  0.00  0.00    +0.006 C 
ATOM      6  C   UNL     1      34.909 -17.094 -21.412  0.00  0.00    +0.006 C 
ENDROOT
BRANCH   4   8
ATOM      7  O   UNL     1      35.333 -19.796 -23.733  0.00  0.00    -0.287 OA
ATOM      8  C   UNL     1      35.117 -19.212 -22.661  0.00  0.00    +0.196 C 
BRANCH   8   9
ATOM      9  C   UNL     1      35.030 -20.052 -21.428  0.00  0.00    +0.039 C 
ATOM     10  C   UNL     1      34.867 -21.620 -19.126  0.00  0.00    +0.001 C 
ATOM     11  C   UNL     1      36.196 -20.484 -20.795  0.00  0.00    +0.003 C 
ATOM     12  C   UNL     1      33.783 -20.405 -20.911  0.00  0.00    +0.003 C 
ATOM     13  C   UNL     1      36.114 -21.268 -19.644  0.00  0.00    +0.000 C 
ATOM     14  C   UNL     1      33.702 -21.189 -19.761  0.00  0.00    +0.000 C 
BRANCH  10  16
ATOM     15  S   UNL     1      35.509 -23.529 -15.736  0.00  0.00    -0.086 S 
ATOM     16  C   UNL     1      34.785 -22.426 -17.941  0.00  0.00    +0.007 C 
ATOM     17  C   UNL     1      33.677 -23.211 -17.510  0.00  0.00    +0.007 C 
ATOM     18  C   UNL     1      35.849 -22.509 -17.069  0.00  0.00    +0.035 C 
ATOM     19  C   UNL     1      33.936 -23.863 -16.323  0.00  0.00    +0.035 C 
ENDBRANCH  10  16
ENDBRANCH   8   9
ENDBRANCH   4   8
BRANCH   1  20
ATOM     20  O   UNL     1      34.514 -13.629 -22.552  0.00  0.00    -0.478 OA
BRANCH  20  21
ATOM     21  C   UNL     1      33.730 -13.048 -23.581  0.00  0.00    +0.184 C 
BRANCH  21  23
ATOM     22  N   UNL     1      32.664 -10.920 -22.884  0.00  0.00    +0.388 N 
ATOM     23  C   UNL     1      32.515 -12.381 -22.954  0.00  0.00    -0.017 C 
ATOM     24  C   UNL     1      32.303 -12.777 -21.502  0.00  0.00    -0.020 C 
ATOM     25  C   UNL     1      31.501 -11.623 -20.918  0.00  0.00    -0.025 C 
ATOM     26  C   UNL     1      31.642 -10.489 -21.924  0.00  0.00    -0.082 C 
ATOM     27  H   UNL     1      32.500 -10.498 -23.798  0.00  0.00    -0.084 HD
ATOM     28  H   UNL     1      33.603 -10.640 -22.601  0.00  0.00    -0.084 HD
ENDBRANCH  21  23
ENDBRANCH  20  21
ENDBRANCH   1  20
TORSDOF 6
ENDMDL
MODEL 5
REMARK VINA RESULT:     -11.7      2.816      3.691
REMARK  Name = 44129624
REMARK  6 active torsions:
REMARK  status: ('A' for Active; 'I' for Inactive)
REMARK    1  A    between atoms: C_1  and  O_20
REMARK    2  A    between atoms: C_4  and  C_8
REMARK    3  A    between atoms: C_8  and  C_9
REMARK    4  A    between atoms: C_10  and  C_16
REMARK    5  A    between atoms: O_20  and  C_21
REMARK    6  A    between atoms: C_21  and  C_23
REMARK                            x       y       z     vdW  Elec       q    Type
REMARK                         _______ _______ _______ _____ _____    ______ ____
ROOT
ATOM      1  C   UNL     1      35.802 -21.218 -19.467  0.00  0.00    +0.138 C 
ATOM      2  C   UNL     1      36.955 -20.504 -19.794  0.00  0.00    +0.037 C 
ATOM      3  C   UNL     1      34.612 -20.973 -20.151  0.00  0.00    +0.037 C 
ATOM      4  C   UNL     1      35.728 -19.301 -21.492  0.00  0.00    +0.039 C 
ATOM      5  C   UNL     1      36.918 -19.546 -20.806  0.00  0.00    +0.006 C 
ATOM      6  C   UNL     1      34.575 -20.014 -21.164  0.00  0.00    +0.006 C 
ENDROOT
BRANCH   4   8
ATOM      7  O   UNL     1      36.265 -18.514 -23.627  0.00  0.00    -0.287 OA
ATOM      8  C   UNL     1      35.690 -18.303 -22.549  0.00  0.00    +0.196 C 
BRANCH   8   9
ATOM      9  C   UNL     1      34.974 -17.000 -22.397  0.00  0.00    +0.039 C 
ATOM     10  C   UNL     1      33.638 -14.568 -22.113  0.00  0.00    +0.001 C 
ATOM     11  C   UNL     1      34.710 -16.495 -21.124  0.00  0.00    +0.003 C 
ATOM     12  C   UNL     1      34.570 -16.290 -23.528  0.00  0.00    +0.003 C 
ATOM     13  C   UNL     1      34.042 -15.278 -20.983  0.00  0.00    +0.000 C 
ATOM     14  C   UNL     1      33.902 -15.074 -23.386  0.00  0.00    +0.000 C 
BRANCH  10  16
ATOM     15  S   UNL     1      32.094 -10.967 -22.556  0.00  0.00    -0.086 S 
ATOM     16  C   UNL     1      32.952 -13.316 -21.965  0.00  0.00    +0.007 C 
ATOM     17  C   UNL     1      32.185 -12.882 -20.845  0.00  0.00    +0.007 C 
ATOM     18  C   UNL     1      32.985 -12.370 -22.967  0.00  0.00    +0.035 C 
ATOM     19  C   UNL     1      31.661 -11.621 -21.034  0.00  0.00    +0.035 C 
ENDBRANCH  10  16
ENDBRANCH   8   9
ENDBRANCH   4   8
BRANCH   1  20
ATOM     20  O   UNL     1      35.838 -22.161 -18.470  0.00  0.00    -0.478 OA
BRANCH  20  21
ATOM     21  C   UNL     1      36.951 -22.125 -17.593  0.00  0.00    +0.184 C 
BRANCH  21  23
ATOM     22  N   UNL     1      37.367 -23.813 -15.823  0.00  0.00    +0.388 N 
ATOM     23  C   UNL     1      36.528 -22.680 -16.241  0.00  0.00    -0.017 C 
ATOM     24  C   UNL     1      35.128 -23.274 -16.254  0.00  0.00    -0.020 C 
ATOM     25  C   UNL     1      35.135 -24.260 -15.097  0.00  0.00    -0.025 C 
ATOM     26  C   UNL     1      36.604 -24.464 -14.753  0.00  0.00    -0.082 C 
ATOM     27  H   UNL     1      38.267 -23.484 -15.474  0.00  0.00    -0.084 HD
ATOM     28  H   UNL     1      37.571 -24.448 -16.595  0.00  0.00    -0.084 HD
ENDBRANCH  21  23
ENDBRANCH  20  21
ENDBRANCH   1  20
TORSDOF 6
ENDMDL
MODEL 6
REMARK VINA RESULT:     -11.7      5.172      9.979
REMARK  Name = 44129624
REMARK  6 active torsions:
REMARK  status: ('A' for Active; 'I' for Inactive)
REMARK    1  A    between atoms: C_1  and  O_20
REMARK    2  A    between atoms: C_4  and  C_8
REMARK    3  A    between atoms: C_8  and  C_9
REMARK    4  A    between atoms: C_10  and  C_16
REMARK    5  A    between atoms: O_20  and  C_21
REMARK    6  A    between atoms: C_21  and  C_23
REMARK                            x       y       z     vdW  Elec       q    Type
REMARK                         _______ _______ _______ _____ _____    ______ ____
ROOT
ATOM      1  C   UNL     1      33.327 -12.214 -23.648  0.00  0.00    +0.138 C 
ATOM      2  C   UNL     1      33.862 -12.464 -24.911  0.00  0.00    +0.037 C 
ATOM      3  C   UNL     1      33.213 -13.250 -22.720  0.00  0.00    +0.037 C 
ATOM      4  C   UNL     1      34.171 -14.786 -24.321  0.00  0.00    +0.039 C 
ATOM      5  C   UNL     1      34.284 -13.749 -25.248  0.00  0.00    +0.006 C 
ATOM      6  C   UNL     1      33.636 -14.536 -23.057  0.00  0.00    +0.006 C 
ENDROOT
BRANCH   4   8
ATOM      7  O   UNL     1      34.860 -16.413 -25.852  0.00  0.00    -0.287 OA
ATOM      8  C   UNL     1      34.613 -16.126 -24.671  0.00  0.00    +0.196 C 
BRANCH   8   9
ATOM      9  C   UNL     1      34.791 -17.204 -23.652  0.00  0.00    +0.039 C 
ATOM     10  C   UNL     1      35.124 -19.216 -21.749  0.00  0.00    +0.001 C 
ATOM     11  C   UNL     1      34.583 -18.537 -24.004  0.00  0.00    +0.003 C 
ATOM     12  C   UNL     1      35.164 -16.877 -22.348  0.00  0.00    +0.003 C 
ATOM     13  C   UNL     1      34.750 -19.543 -23.052  0.00  0.00    +0.000 C 
ATOM     14  C   UNL     1      35.330 -17.883 -21.397  0.00  0.00    +0.000 C 
BRANCH  10  16
ATOM     15  S   UNL     1      34.671 -22.127 -19.127  0.00  0.00    -0.086 S 
ATOM     16  C   UNL     1      35.296 -20.253 -20.771  0.00  0.00    +0.007 C 
ATOM     17  C   UNL     1      36.520 -20.699 -20.196  0.00  0.00    +0.007 C 
ATOM     18  C   UNL     1      34.211 -20.945 -20.278  0.00  0.00    +0.035 C 
ATOM     19  C   UNL     1      36.325 -21.715 -19.286  0.00  0.00    +0.035 C 
ENDBRANCH  10  16
ENDBRANCH   8   9
ENDBRANCH   4   8
BRANCH   1  20
ATOM     20  O   UNL     1      32.911 -10.949 -23.315  0.00  0.00    -0.478 OA
BRANCH  20  21
ATOM     21  C   UNL     1      31.998 -10.837 -22.236  0.00  0.00    +0.184 C 
BRANCH  21  23
ATOM     22  N   UNL     1      32.910  -8.546 -22.507  0.00  0.00    +0.388 N 
ATOM     23  C   UNL     1      31.918  -9.379 -21.811  0.00  0.00    -0.017 C 
ATOM     24  C   UNL     1      32.259  -9.169 -20.344  0.00  0.00    -0.020 C 
ATOM     25  C   UNL     1      32.710  -7.717 -20.274  0.00  0.00    -0.025 C 
ATOM     26  C   UNL     1      32.977  -7.312 -21.717  0.00  0.00    -0.082 C 
ATOM     27  H   UNL     1      32.606  -8.347 -23.460  0.00  0.00    -0.084 HD
ATOM     28  H   UNL     1      33.816  -9.007 -22.582  0.00  0.00    -0.084 HD
ENDBRANCH  21  23
ENDBRANCH  20  21
ENDBRANCH   1  20
TORSDOF 6
ENDMDL
MODEL 7
REMARK VINA RESULT:     -11.6      3.173      5.714
REMARK  Name = 44129624
REMARK  6 active torsions:
REMARK  status: ('A' for Active; 'I' for Inactive)
REMARK    1  A    between atoms: C_1  and  O_20
REMARK    2  A    between atoms: C_4  and  C_8
REMARK    3  A    between atoms: C_8  and  C_9
REMARK    4  A    between atoms: C_10  and  C_16
REMARK    5  A    between atoms: O_20  and  C_21
REMARK    6  A    between atoms: C_21  and  C_23
REMARK                            x       y       z     vdW  Elec       q    Type
REMARK                         _______ _______ _______ _____ _____    ______ ____
ROOT
ATOM      1  C   UNL     1      35.220 -18.732 -23.210  0.00  0.00    +0.138 C 
ATOM      2  C   UNL     1      35.452 -17.469 -22.666  0.00  0.00    +0.037 C 
ATOM      3  C   UNL     1      34.579 -18.853 -24.444  0.00  0.00    +0.037 C 
ATOM      4  C   UNL     1      34.403 -16.448 -24.588  0.00  0.00    +0.039 C 
ATOM      5  C   UNL     1      35.044 -16.327 -23.354  0.00  0.00    +0.006 C 
ATOM      6  C   UNL     1      34.171 -17.711 -25.132  0.00  0.00    +0.006 C 
ENDROOT
BRANCH   4   8
ATOM      7  O   UNL     1      33.891 -15.272 -26.543  0.00  0.00    -0.287 OA
ATOM      8  C   UNL     1      33.980 -15.257 -25.307  0.00  0.00    +0.196 C 
BRANCH   8   9
ATOM      9  C   UNL     1      33.637 -13.980 -24.610  0.00  0.00    +0.039 C 
ATOM     10  C   UNL     1      32.995 -11.596 -23.311  0.00  0.00    +0.001 C 
ATOM     11  C   UNL     1      34.233 -12.785 -25.012  0.00  0.00    +0.003 C 
ATOM     12  C   UNL     1      32.721 -13.983 -23.558  0.00  0.00    +0.003 C 
ATOM     13  C   UNL     1      33.912 -11.593 -24.362  0.00  0.00    +0.000 C 
ATOM     14  C   UNL     1      32.400 -12.792 -22.909  0.00  0.00    +0.000 C 
BRANCH  10  16
ATOM     15  S   UNL     1      32.547  -7.842 -22.192  0.00  0.00    -0.086 S 
ATOM     16  C   UNL     1      32.666 -10.369 -22.644  0.00  0.00    +0.007 C 
ATOM     17  C   UNL     1      31.937 -10.218 -21.429  0.00  0.00    +0.007 C 
ATOM     18  C   UNL     1      33.058  -9.155 -23.165  0.00  0.00    +0.035 C 
ATOM     19  C   UNL     1      31.800  -8.896 -21.068  0.00  0.00    +0.035 C 
ENDBRANCH  10  16
ENDBRANCH   8   9
ENDBRANCH   4   8
BRANCH   1  20
ATOM     20  O   UNL     1      35.621 -19.856 -22.533  0.00  0.00    -0.478 OA
BRANCH  20  21
ATOM     21  C   UNL     1      35.661 -19.773 -21.118  0.00  0.00    +0.184 C 
BRANCH  21  23
ATOM     22  N   UNL     1      33.700 -20.842 -20.039  0.00  0.00    +0.388 N 
ATOM     23  C   UNL     1      35.069 -21.047 -20.535  0.00  0.00    -0.017 C 
ATOM     24  C   UNL     1      35.814 -21.537 -19.303  0.00  0.00    -0.020 C 
ATOM     25  C   UNL     1      34.784 -22.374 -18.559  0.00  0.00    -0.025 C 
ATOM     26  C   UNL     1      33.443 -21.999 -19.174  0.00  0.00    -0.082 C 
ATOM     27  H   UNL     1      33.038 -20.818 -20.814  0.00  0.00    -0.084 HD
ATOM     28  H   UNL     1      33.598 -19.958 -19.542  0.00  0.00    -0.084 HD
ENDBRANCH  21  23
ENDBRANCH  20  21
ENDBRANCH   1  20
TORSDOF 6
ENDMDL
MODEL 8
REMARK VINA RESULT:     -11.5      4.238      6.898
REMARK  Name = 44129624
REMARK  6 active torsions:
REMARK  status: ('A' for Active; 'I' for Inactive)
REMARK    1  A    between atoms: C_1  and  O_20
REMARK    2  A    between atoms: C_4  and  C_8
REMARK    3  A    between atoms: C_8  and  C_9
REMARK    4  A    between atoms: C_10  and  C_16
REMARK    5  A    between atoms: O_20  and  C_21
REMARK    6  A    between atoms: C_21  and  C_23
REMARK                            x       y       z     vdW  Elec       q    Type
REMARK                         _______ _______ _______ _____ _____    ______ ____
ROOT
ATOM      1  C   UNL     1      35.126 -16.780 -21.516  0.00  0.00    +0.138 C 
ATOM      2  C   UNL     1      35.134 -16.828 -22.910  0.00  0.00    +0.037 C 
ATOM      3  C   UNL     1      34.464 -15.743 -20.857  0.00  0.00    +0.037 C 
ATOM      4  C   UNL     1      33.818 -14.803 -22.987  0.00  0.00    +0.039 C 
ATOM      5  C   UNL     1      34.480 -15.840 -23.645  0.00  0.00    +0.006 C 
ATOM      6  C   UNL     1      33.810 -14.755 -21.593  0.00  0.00    +0.006 C 
ENDROOT
BRANCH   4   8
ATOM      7  O   UNL     1      32.738 -14.014 -24.905  0.00  0.00    -0.287 OA
ATOM      8  C   UNL     1      33.134 -13.775 -23.754  0.00  0.00    +0.196 C 
BRANCH   8   9
ATOM      9  C   UNL     1      32.877 -12.407 -23.211  0.00  0.00    +0.039 C 
ATOM     10  C   UNL     1      32.397  -9.853 -22.196  0.00  0.00    +0.001 C 
ATOM     11  C   UNL     1      33.530 -11.304 -23.762  0.00  0.00    +0.003 C 
ATOM     12  C   UNL     1      31.985 -12.233 -22.152  0.00  0.00    +0.003 C 
ATOM     13  C   UNL     1      33.289 -10.027 -23.254  0.00  0.00    +0.000 C 
ATOM     14  C   UNL     1      31.745 -10.956 -21.645  0.00  0.00    +0.000 C 
BRANCH  10  16
ATOM     15  S   UNL     1      31.419  -6.075 -21.632  0.00  0.00    -0.086 S 
ATOM     16  C   UNL     1      32.150  -8.538 -21.676  0.00  0.00    +0.007 C 
ATOM     17  C   UNL     1      32.394  -8.077 -20.351  0.00  0.00    +0.007 C 
ATOM     18  C   UNL     1      31.620  -7.550 -22.478  0.00  0.00    +0.035 C 
ATOM     19  C   UNL     1      32.042  -6.755 -20.189  0.00  0.00    +0.035 C 
ENDBRANCH  10  16
ENDBRANCH   8   9
ENDBRANCH   4   8
BRANCH   1  20
ATOM     20  O   UNL     1      35.770 -17.751 -20.791  0.00  0.00    -0.478 OA
BRANCH  20  21
ATOM     21  C   UNL     1      36.318 -18.838 -21.519  0.00  0.00    +0.184 C 
BRANCH  21  23
ATOM     22  N   UNL     1      34.136 -19.766 -20.791  0.00  0.00    +0.388 N 
ATOM     23  C   UNL     1      35.505 -20.088 -21.221  0.00  0.00    -0.017 C 
ATOM     24  C   UNL     1      36.055 -20.889 -20.052  0.00  0.00    -0.020 C 
ATOM     25  C   UNL     1      34.854 -21.675 -19.546  0.00  0.00    -0.025 C 
ATOM     26  C   UNL     1      33.642 -21.001 -20.173  0.00  0.00    -0.082 C 
ATOM     27  H   UNL     1      33.559 -19.509 -21.592  0.00  0.00    -0.084 HD
ATOM     28  H   UNL     1      34.109 -18.974 -20.149  0.00  0.00    -0.084 HD
ENDBRANCH  21  23
ENDBRANCH  20  21
ENDBRANCH   1  20
TORSDOF 6
ENDMDL
MODEL 9
REMARK VINA RESULT:     -11.5      4.111      6.145
REMARK  Name = 44129624
REMARK  6 active torsions:
REMARK  status: ('A' for Active; 'I' for Inactive)
REMARK    1  A    between atoms: C_1  and  O_20
REMARK    2  A    between atoms: C_4  and  C_8
REMARK    3  A    between atoms: C_8  and  C_9
REMARK    4  A    between atoms: C_10  and  C_16
REMARK    5  A    between atoms: O_20  and  C_21
REMARK    6  A    between atoms: C_21  and  C_23
REMARK                            x       y       z     vdW  Elec       q    Type
REMARK                         _______ _______ _______ _____ _____    ______ ____
ROOT
ATOM      1  C   UNL     1      35.930 -23.143 -14.347  0.00  0.00    +0.138 C 
ATOM      2  C   UNL     1      36.667 -22.741 -15.460  0.00  0.00    +0.037 C 
ATOM      3  C   UNL     1      34.602 -23.544 -14.498  0.00  0.00    +0.037 C 
ATOM      4  C   UNL     1      34.751 -23.142 -16.875  0.00  0.00    +0.039 C 
ATOM      5  C   UNL     1      36.079 -22.740 -16.724  0.00  0.00    +0.006 C 
ATOM      6  C   UNL     1      34.013 -23.544 -15.763  0.00  0.00    +0.006 C 
ENDROOT
BRANCH   4   8
ATOM      7  O   UNL     1      33.417 -24.088 -18.546  0.00  0.00    -0.287 OA
ATOM      8  C   UNL     1      34.139 -23.143 -18.194  0.00  0.00    +0.196 C 
BRANCH   8   9
ATOM      9  C   UNL     1      34.340 -22.032 -19.173  0.00  0.00    +0.039 C 
ATOM     10  C   UNL     1      34.715 -19.958 -21.001  0.00  0.00    +0.001 C 
ATOM     11  C   UNL     1      35.628 -21.693 -19.587  0.00  0.00    +0.003 C 
ATOM     12  C   UNL     1      33.240 -21.334 -19.672  0.00  0.00    +0.003 C 
ATOM     13  C   UNL     1      35.815 -20.656 -20.501  0.00  0.00    +0.000 C 
ATOM     14  C   UNL     1      33.428 -20.297 -20.585  0.00  0.00    +0.000 C 
BRANCH  10  16
ATOM     15  S   UNL     1      35.307 -16.509 -22.818  0.00  0.00    -0.086 S 
ATOM     16  C   UNL     1      34.910 -18.892 -21.942  0.00  0.00    +0.007 C 
ATOM     17  C   UNL     1      34.938 -18.993 -23.363  0.00  0.00    +0.007 C 
ATOM     18  C   UNL     1      35.098 -17.597 -21.511  0.00  0.00    +0.035 C 
ATOM     19  C   UNL     1      35.147 -17.771 -23.964  0.00  0.00    +0.035 C 
ENDBRANCH  10  16
ENDBRANCH   8   9
ENDBRANCH   4   8
BRANCH   1  20
ATOM     20  O   UNL     1      36.508 -23.144 -13.102  0.00  0.00    -0.478 OA
BRANCH  20  21
ATOM     21  C   UNL     1      36.375 -24.328 -12.334  0.00  0.00    +0.184 C 
BRANCH  21  23
ATOM     22  N   UNL     1      38.750 -24.535 -13.018  0.00  0.00    +0.388 N 
ATOM     23  C   UNL     1      37.521 -25.267 -12.676  0.00  0.00    -0.017 C 
ATOM     24  C   UNL     1      37.256 -26.098 -13.922  0.00  0.00    -0.020 C 
ATOM     25  C   UNL     1      38.645 -26.467 -14.421  0.00  0.00    -0.025 C 
ATOM     26  C   UNL     1      39.595 -25.525 -13.694  0.00  0.00    -0.082 C 
ATOM     27  H   UNL     1      39.207 -24.187 -12.175  0.00  0.00    -0.084 HD
ATOM     28  H   UNL     1      38.564 -23.721 -13.604  0.00  0.00    -0.084 HD
ENDBRANCH  21  23
ENDBRANCH  20  21
ENDBRANCH   1  20
TORSDOF 6
ENDMDL
