MODEL 1
REMARK VINA RESULT:     -12.4      0.000      0.000
REMARK  Name = 24958200
REMARK  3 active torsions:
REMARK  status: ('A' for Active; 'I' for Inactive)
REMARK    1  A    between atoms: N_1  and  C_13
REMARK    2  A    between atoms: C_6  and  C_26
REMARK    3  A    between atoms: C_10  and  C_17
REMARK                            x       y       z     vdW  Elec       q    Type
REMARK                         _______ _______ _______ _____ _____    ______ ____
ROOT
ATOM      1  N   UNL     1      32.619 -22.890 -17.364  0.00  0.00    -0.189 N 
ATOM      2  N   UNL     1      31.274 -22.952 -17.421  0.00  0.00    -0.174 NA
ATOM      3  C   UNL     1      32.107 -23.992 -15.580  0.00  0.00    +0.036 C 
ATOM      4  C   UNL     1      33.174 -23.500 -16.277  0.00  0.00    +0.091 C 
ATOM      5  C   UNL     1      30.919 -23.636 -16.318  0.00  0.00    +0.105 C 
ATOM      6  C   UNL     1      29.646 -24.008 -15.847  0.00  0.00    +0.072 C 
ATOM      7  C   UNL     1      32.175 -24.698 -14.387  0.00  0.00    +0.003 C 
ATOM      8  C   UNL     1      29.682 -24.729 -14.634  0.00  0.00    +0.006 C 
ATOM      9  C   UNL     1      30.889 -25.057 -13.939  0.00  0.00    +0.000 C 
ENDROOT
BRANCH   1  13
ATOM     10  C   UNL     1      34.749 -20.943 -20.378  0.00  0.00    -0.024 C 
ATOM     11  C   UNL     1      33.364 -20.798 -20.297  0.00  0.00    -0.003 C 
ATOM     12  C   UNL     1      35.422 -21.738 -19.450  0.00  0.00    -0.003 C 
ATOM     13  C   UNL     1      33.324 -22.245 -18.363  0.00  0.00    +0.074 C 
ATOM     14  C   UNL     1      32.652 -21.449 -19.290  0.00  0.00    +0.016 C 
ATOM     15  C   UNL     1      34.710 -22.389 -18.443  0.00  0.00    +0.016 C 
BRANCH  10  17
ATOM     16  N   UNL     1      35.362 -18.785 -23.482  0.00  0.00    +0.384 N 
ATOM     17  C   UNL     1      35.524 -20.236 -21.475  0.00  0.00    +0.001 C 
ATOM     18  C   UNL     1      36.627 -19.331 -20.902  0.00  0.00    +0.000 C 
ATOM     19  C   UNL     1      34.600 -19.437 -22.413  0.00  0.00    -0.077 C 
ATOM     20  C   UNL     1      37.352 -18.599 -22.028  0.00  0.00    -0.023 C 
ATOM     21  C   UNL     1      36.368 -17.871 -22.941  0.00  0.00    -0.082 C 
ATOM     22  H   UNL     1      34.719 -18.259 -24.073  0.00  0.00    -0.085 HD
ATOM     23  H   UNL     1      35.842 -19.508 -24.020  0.00  0.00    -0.085 HD
ENDBRANCH  10  17
ENDBRANCH   1  13
BRANCH   6  26
ATOM     24  O   UNL     1      27.973 -24.397 -17.458  0.00  0.00    -0.270 OA
ATOM     25  N   UNL     1      27.712 -22.552 -16.123  0.00  0.00    -0.325 N 
ATOM     26  C   UNL     1      28.414 -23.684 -16.535  0.00  0.00    +0.244 C 
ATOM     27  H   UNL     1      26.870 -22.304 -16.570  0.00  0.00    +0.145 HD
ATOM     28  H   UNL     1      28.057 -22.000 -15.384  0.00  0.00    +0.145 HD
ENDBRANCH   6  26
TORSDOF 3
ENDMDL
MODEL 2
REMARK VINA RESULT:     -12.2      7.736     11.811
REMARK  Name = 24958200
REMARK  3 active torsions:
REMARK  status: ('A' for Active; 'I' for Inactive)
REMARK    1  A    between atoms: N_1  and  C_13
REMARK    2  A    between atoms: C_6  and  C_26
REMARK    3  A    between atoms: C_10  and  C_17
REMARK                            x       y       z     vdW  Elec       q    Type
REMARK                         _______ _______ _______ _____ _____    ______ ____
ROOT
ATOM      1  N   UNL     1      33.511 -13.905 -23.432  0.00  0.00    -0.189 N 
ATOM      2  N   UNL     1      34.051 -14.724 -22.510  0.00  0.00    -0.174 NA
ATOM      3  C   UNL     1      34.004 -15.668 -24.575  0.00  0.00    +0.036 C 
ATOM      4  C   UNL     1      33.457 -14.421 -24.694  0.00  0.00    +0.091 C 
ATOM      5  C   UNL     1      34.372 -15.839 -23.191  0.00  0.00    +0.105 C 
ATOM      6  C   UNL     1      34.966 -17.036 -22.751  0.00  0.00    +0.072 C 
ATOM      7  C   UNL     1      34.166 -16.582 -25.608  0.00  0.00    +0.003 C 
ATOM      8  C   UNL     1      35.144 -17.988 -23.779  0.00  0.00    +0.006 C 
ATOM      9  C   UNL     1      34.762 -17.770 -25.140  0.00  0.00    +0.000 C 
ENDROOT
BRANCH   1  13
ATOM     10  C   UNL     1      32.156 -10.116 -22.326  0.00  0.00    -0.024 C 
ATOM     11  C   UNL     1      33.050 -10.255 -23.388  0.00  0.00    -0.003 C 
ATOM     12  C   UNL     1      31.714 -11.245 -21.634  0.00  0.00    -0.003 C 
ATOM     13  C   UNL     1      33.063 -12.649 -23.065  0.00  0.00    +0.074 C 
ATOM     14  C   UNL     1      33.503 -11.521 -23.757  0.00  0.00    +0.016 C 
ATOM     15  C   UNL     1      32.167 -12.511 -22.004  0.00  0.00    +0.016 C 
BRANCH  10  17
ATOM     16  N   UNL     1      32.023  -6.802 -20.412  0.00  0.00    +0.384 N 
ATOM     17  C   UNL     1      31.664  -8.738 -21.922  0.00  0.00    +0.001 C 
ATOM     18  C   UNL     1      31.572  -7.789 -23.128  0.00  0.00    +0.000 C 
ATOM     19  C   UNL     1      32.529  -8.118 -20.808  0.00  0.00    -0.077 C 
ATOM     20  C   UNL     1      31.123  -6.401 -22.678  0.00  0.00    -0.023 C 
ATOM     21  C   UNL     1      31.998  -5.875 -21.543  0.00  0.00    -0.082 C 
ATOM     22  H   UNL     1      32.626  -6.421 -19.683  0.00  0.00    -0.085 HD
ATOM     23  H   UNL     1      31.068  -6.916 -20.070  0.00  0.00    -0.085 HD
ENDBRANCH  10  17
ENDBRANCH   1  13
BRANCH   6  26
ATOM     24  O   UNL     1      36.069 -18.251 -21.062  0.00  0.00    -0.270 OA
ATOM     25  N   UNL     1      34.937 -16.368 -20.408  0.00  0.00    -0.325 N 
ATOM     26  C   UNL     1      35.360 -17.276 -21.379  0.00  0.00    +0.244 C 
ATOM     27  H   UNL     1      35.188 -16.501 -19.465  0.00  0.00    +0.145 HD
ATOM     28  H   UNL     1      34.388 -15.592 -20.666  0.00  0.00    +0.145 HD
ENDBRANCH   6  26
TORSDOF 3
ENDMDL
MODEL 3
REMARK VINA RESULT:     -12.1      4.125      9.024
REMARK  Name = 24958200
REMARK  3 active torsions:
REMARK  status: ('A' for Active; 'I' for Inactive)
REMARK    1  A    between atoms: N_1  and  C_13
REMARK    2  A    between atoms: C_6  and  C_26
REMARK    3  A    between atoms: C_10  and  C_17
REMARK                            x       y       z     vdW  Elec       q    Type
REMARK                         _______ _______ _______ _____ _____    ______ ____
ROOT
ATOM      1  N   UNL     1      34.839 -19.306 -21.804  0.00  0.00    -0.189 N 
ATOM      2  N   UNL     1      34.781 -17.986 -21.543  0.00  0.00    -0.174 NA
ATOM      3  C   UNL     1      34.830 -18.419 -23.772  0.00  0.00    +0.036 C 
ATOM      4  C   UNL     1      34.871 -19.625 -23.131  0.00  0.00    +0.091 C 
ATOM      5  C   UNL     1      34.773 -17.399 -22.753  0.00  0.00    +0.105 C 
ATOM      6  C   UNL     1      34.721 -16.038 -23.106  0.00  0.00    +0.072 C 
ATOM      7  C   UNL     1      34.840 -18.234 -25.148  0.00  0.00    +0.003 C 
ATOM      8  C   UNL     1      34.731 -15.815 -24.501  0.00  0.00    +0.006 C 
ATOM      9  C   UNL     1      34.788 -16.864 -25.473  0.00  0.00    +0.000 C 
ENDROOT
BRANCH   1  13
ATOM     10  C   UNL     1      34.916 -22.057 -18.668  0.00  0.00    -0.024 C 
ATOM     11  C   UNL     1      33.698 -21.671 -19.228  0.00  0.00    -0.003 C 
ATOM     12  C   UNL     1      36.109 -21.524 -19.158  0.00  0.00    -0.003 C 
ATOM     13  C   UNL     1      34.865 -20.217 -20.765  0.00  0.00    +0.074 C 
ATOM     14  C   UNL     1      33.672 -20.751 -20.276  0.00  0.00    +0.016 C 
ATOM     15  C   UNL     1      36.083 -20.604 -20.206  0.00  0.00    +0.016 C 
BRANCH  10  17
ATOM     16  N   UNL     1      36.089 -23.734 -15.432  0.00  0.00    +0.384 N 
ATOM     17  C   UNL     1      34.944 -23.057 -17.526  0.00  0.00    +0.001 C 
ATOM     18  C   UNL     1      33.581 -23.157 -16.821  0.00  0.00    +0.000 C 
ATOM     19  C   UNL     1      36.059 -22.743 -16.511  0.00  0.00    -0.077 C 
ATOM     20  C   UNL     1      33.660 -24.132 -15.649  0.00  0.00    -0.023 C 
ATOM     21  C   UNL     1      34.816 -23.784 -14.714  0.00  0.00    -0.082 C 
ATOM     22  H   UNL     1      36.831 -23.487 -14.776  0.00  0.00    -0.085 HD
ATOM     23  H   UNL     1      36.261 -24.652 -15.845  0.00  0.00    -0.085 HD
ENDBRANCH  10  17
ENDBRANCH   1  13
BRANCH   6  26
ATOM     24  O   UNL     1      34.652 -13.767 -22.488  0.00  0.00    -0.270 OA
ATOM     25  N   UNL     1      34.599 -15.303 -20.787  0.00  0.00    -0.325 N 
ATOM     26  C   UNL     1      34.663 -14.964 -22.138  0.00  0.00    +0.244 C 
ATOM     27  H   UNL     1      34.558 -14.595 -20.102  0.00  0.00    +0.145 HD
ATOM     28  H   UNL     1      34.594 -16.249 -20.516  0.00  0.00    +0.145 HD
ENDBRANCH   6  26
TORSDOF 3
ENDMDL
MODEL 4
REMARK VINA RESULT:     -11.9      8.440     12.252
REMARK  Name = 24958200
REMARK  3 active torsions:
REMARK  status: ('A' for Active; 'I' for Inactive)
REMARK    1  A    between atoms: N_1  and  C_13
REMARK    2  A    between atoms: C_6  and  C_26
REMARK    3  A    between atoms: C_10  and  C_17
REMARK                            x       y       z     vdW  Elec       q    Type
REMARK                         _______ _______ _______ _____ _____    ______ ____
ROOT
ATOM      1  N   UNL     1      33.396 -13.260 -22.536  0.00  0.00    -0.189 N 
ATOM      2  N   UNL     1      33.554 -13.995 -23.654  0.00  0.00    -0.174 NA
ATOM      3  C   UNL     1      34.215 -15.113 -21.790  0.00  0.00    +0.036 C 
ATOM      4  C   UNL     1      33.777 -13.883 -21.383  0.00  0.00    +0.091 C 
ATOM      5  C   UNL     1      34.065 -15.163 -23.224  0.00  0.00    +0.105 C 
ATOM      6  C   UNL     1      34.435 -16.314 -23.943  0.00  0.00    +0.072 C 
ATOM      7  C   UNL     1      34.706 -16.112 -20.961  0.00  0.00    +0.003 C 
ATOM      8  C   UNL     1      34.940 -17.350 -23.127  0.00  0.00    +0.006 C 
ATOM      9  C   UNL     1      35.068 -17.252 -21.705  0.00  0.00    +0.000 C 
ENDROOT
BRANCH   1  13
ATOM     10  C   UNL     1      31.848  -9.393 -22.777  0.00  0.00    -0.024 C 
ATOM     11  C   UNL     1      31.280 -10.318 -21.901  0.00  0.00    -0.003 C 
ATOM     12  C   UNL     1      32.934  -9.760 -23.572  0.00  0.00    -0.003 C 
ATOM     13  C   UNL     1      32.882 -11.979 -22.616  0.00  0.00    +0.074 C 
ATOM     14  C   UNL     1      31.797 -11.611 -21.820  0.00  0.00    +0.016 C 
ATOM     15  C   UNL     1      33.451 -11.053 -23.492  0.00  0.00    +0.016 C 
BRANCH  10  17
ATOM     16  N   UNL     1      31.020  -5.813 -21.698  0.00  0.00    +0.384 N 
ATOM     17  C   UNL     1      31.284  -7.986 -22.866  0.00  0.00    +0.001 C 
ATOM     18  C   UNL     1      31.769  -7.256 -24.129  0.00  0.00    +0.000 C 
ATOM     19  C   UNL     1      31.596  -7.157 -21.606  0.00  0.00    -0.077 C 
ATOM     20  C   UNL     1      31.224  -5.830 -24.160  0.00  0.00    -0.023 C 
ATOM     21  C   UNL     1      31.532  -5.089 -22.861  0.00  0.00    -0.082 C 
ATOM     22  H   UNL     1      31.257  -5.293 -20.853  0.00  0.00    -0.085 HD
ATOM     23  H   UNL     1      30.009  -5.904 -21.796  0.00  0.00    -0.085 HD
ENDBRANCH  10  17
ENDBRANCH   1  13
BRANCH   6  26
ATOM     24  O   UNL     1      35.034 -17.209 -26.037  0.00  0.00    -0.270 OA
ATOM     25  N   UNL     1      33.343 -15.662 -26.020  0.00  0.00    -0.325 N 
ATOM     26  C   UNL     1      34.313 -16.433 -25.380  0.00  0.00    +0.244 C 
ATOM     27  H   UNL     1      33.233 -15.719 -26.997  0.00  0.00    +0.145 HD
ATOM     28  H   UNL     1      32.766 -15.060 -25.496  0.00  0.00    +0.145 HD
ENDBRANCH   6  26
TORSDOF 3
ENDMDL
MODEL 5
REMARK VINA RESULT:     -11.9      3.421      4.667
REMARK  Name = 24958200
REMARK  3 active torsions:
REMARK  status: ('A' for Active; 'I' for Inactive)
REMARK    1  A    between atoms: N_1  and  C_13
REMARK    2  A    between atoms: C_6  and  C_26
REMARK    3  A    between atoms: C_10  and  C_17
REMARK                            x       y       z     vdW  Elec       q    Type
REMARK                         _______ _______ _______ _____ _____    ______ ____
ROOT
ATOM      1  N   UNL     1      34.900 -22.153 -18.210  0.00  0.00    -0.189 N 
ATOM      2  N   UNL     1      35.969 -22.399 -17.427  0.00  0.00    -0.174 NA
ATOM      3  C   UNL     1      34.087 -23.413 -16.657  0.00  0.00    +0.036 C 
ATOM      4  C   UNL     1      33.740 -22.738 -17.794  0.00  0.00    +0.091 C 
ATOM      5  C   UNL     1      35.496 -23.186 -16.443  0.00  0.00    +0.105 C 
ATOM      6  C   UNL     1      36.153 -23.757 -15.338  0.00  0.00    +0.072 C 
ATOM      7  C   UNL     1      33.229 -24.170 -15.871  0.00  0.00    +0.003 C 
ATOM      8  C   UNL     1      35.306 -24.533 -14.517  0.00  0.00    +0.006 C 
ATOM      9  C   UNL     1      33.912 -24.729 -14.773  0.00  0.00    +0.000 C 
ENDROOT
BRANCH   1  13
ATOM     10  C   UNL     1      35.304 -19.755 -21.600  0.00  0.00    -0.024 C 
ATOM     11  C   UNL     1      34.035 -20.127 -21.156  0.00  0.00    -0.003 C 
ATOM     12  C   UNL     1      36.438 -20.183 -20.910  0.00  0.00    -0.003 C 
ATOM     13  C   UNL     1      35.034 -21.359 -19.333  0.00  0.00    +0.074 C 
ATOM     14  C   UNL     1      33.900 -20.929 -20.023  0.00  0.00    +0.016 C 
ATOM     15  C   UNL     1      36.303 -20.985 -19.777  0.00  0.00    +0.016 C 
BRANCH  10  17
ATOM     16  N   UNL     1      34.654 -18.464 -25.147  0.00  0.00    +0.384 N 
ATOM     17  C   UNL     1      35.451 -18.883 -22.834  0.00  0.00    +0.001 C 
ATOM     18  C   UNL     1      35.292 -17.391 -22.502  0.00  0.00    +0.000 C 
ATOM     19  C   UNL     1      34.477 -19.297 -23.954  0.00  0.00    -0.077 C 
ATOM     20  C   UNL     1      35.396 -16.550 -23.772  0.00  0.00    -0.023 C 
ATOM     21  C   UNL     1      34.436 -17.049 -24.849  0.00  0.00    -0.082 C 
ATOM     22  H   UNL     1      33.986 -18.760 -25.859  0.00  0.00    -0.085 HD
ATOM     23  H   UNL     1      35.612 -18.578 -25.478  0.00  0.00    -0.085 HD
ENDBRANCH  10  17
ENDBRANCH   1  13
BRANCH   6  26
ATOM     24  O   UNL     1      37.998 -23.500 -13.897  0.00  0.00    -0.270 OA
ATOM     25  N   UNL     1      38.436 -23.491 -16.147  0.00  0.00    -0.325 N 
ATOM     26  C   UNL     1      37.562 -23.571 -15.063  0.00  0.00    +0.244 C 
ATOM     27  H   UNL     1      39.401 -23.365 -15.995  0.00  0.00    +0.145 HD
ATOM     28  H   UNL     1      38.088 -23.560 -17.066  0.00  0.00    +0.145 HD
ENDBRANCH   6  26
TORSDOF 3
ENDMDL
MODEL 6
REMARK VINA RESULT:     -11.6      2.206      3.260
REMARK  Name = 24958200
REMARK  3 active torsions:
REMARK  status: ('A' for Active; 'I' for Inactive)
REMARK    1  A    between atoms: N_1  and  C_13
REMARK    2  A    between atoms: C_6  and  C_26
REMARK    3  A    between atoms: C_10  and  C_17
REMARK                            x       y       z     vdW  Elec       q    Type
REMARK                         _______ _______ _______ _____ _____    ______ ____
ROOT
ATOM      1  N   UNL     1      33.078 -22.934 -17.146  0.00  0.00    -0.189 N 
ATOM      2  N   UNL     1      33.801 -23.325 -16.078  0.00  0.00    -0.174 NA
ATOM      3  C   UNL     1      31.604 -23.865 -15.873  0.00  0.00    +0.036 C 
ATOM      4  C   UNL     1      31.748 -23.233 -17.077  0.00  0.00    +0.091 C 
ATOM      5  C   UNL     1      32.909 -23.912 -15.260  0.00  0.00    +0.105 C 
ATOM      6  C   UNL     1      33.085 -24.508 -13.998  0.00  0.00    +0.072 C 
ATOM      7  C   UNL     1      30.414 -24.361 -15.358  0.00  0.00    +0.003 C 
ATOM      8  C   UNL     1      31.892 -25.023 -13.445  0.00  0.00    +0.006 C 
ATOM      9  C   UNL     1      30.619 -24.951 -14.095  0.00  0.00    +0.000 C 
ENDROOT
BRANCH   1  13
ATOM     10  C   UNL     1      34.937 -20.971 -20.324  0.00  0.00    -0.024 C 
ATOM     11  C   UNL     1      35.706 -21.642 -19.373  0.00  0.00    -0.003 C 
ATOM     12  C   UNL     1      33.546 -20.956 -20.213  0.00  0.00    -0.003 C 
ATOM     13  C   UNL     1      33.694 -22.283 -18.199  0.00  0.00    +0.074 C 
ATOM     14  C   UNL     1      35.084 -22.298 -18.311  0.00  0.00    +0.016 C 
ATOM     15  C   UNL     1      32.925 -21.612 -19.150  0.00  0.00    +0.016 C 
BRANCH  10  17
ATOM     16  N   UNL     1      35.267 -18.869 -23.508  0.00  0.00    +0.384 N 
ATOM     17  C   UNL     1      35.614 -20.255 -21.479  0.00  0.00    +0.001 C 
ATOM     18  C   UNL     1      36.698 -19.281 -20.991  0.00  0.00    +0.000 C 
ATOM     19  C   UNL     1      34.599 -19.529 -22.383  0.00  0.00    -0.077 C 
ATOM     20  C   UNL     1      37.321 -18.544 -22.174  0.00  0.00    -0.023 C 
ATOM     21  C   UNL     1      36.252 -17.891 -23.047  0.00  0.00    -0.082 C 
ATOM     22  H   UNL     1      34.566 -18.392 -24.075  0.00  0.00    -0.085 HD
ATOM     23  H   UNL     1      35.752 -19.581 -24.054  0.00  0.00    -0.085 HD
ENDBRANCH  10  17
ENDBRANCH   1  13
BRANCH   6  26
ATOM     24  O   UNL     1      34.500 -24.250 -12.134  0.00  0.00    -0.270 OA
ATOM     25  N   UNL     1      35.452 -25.085 -14.045  0.00  0.00    -0.325 N 
ATOM     26  C   UNL     1      34.364 -24.591 -13.325  0.00  0.00    +0.244 C 
ATOM     27  H   UNL     1      36.336 -25.155 -13.617  0.00  0.00    +0.145 HD
ATOM     28  H   UNL     1      35.336 -25.366 -14.982  0.00  0.00    +0.145 HD
ENDBRANCH   6  26
TORSDOF 3
ENDMDL
MODEL 7
REMARK VINA RESULT:     -11.6      4.660      5.965
REMARK  Name = 24958200
REMARK  3 active torsions:
REMARK  status: ('A' for Active; 'I' for Inactive)
REMARK    1  A    between atoms: N_1  and  C_13
REMARK    2  A    between atoms: C_6  and  C_26
REMARK    3  A    between atoms: C_10  and  C_17
REMARK                            x       y       z     vdW  Elec       q    Type
REMARK                         _______ _______ _______ _____ _____    ______ ____
ROOT
ATOM      1  N   UNL     1      36.388 -23.155 -15.793  0.00  0.00    -0.189 N 
ATOM      2  N   UNL     1      37.552 -23.764 -15.497  0.00  0.00    -0.174 NA
ATOM      3  C   UNL     1      36.037 -23.938 -13.813  0.00  0.00    +0.036 C 
ATOM      4  C   UNL     1      35.439 -23.227 -14.815  0.00  0.00    +0.091 C 
ATOM      5  C   UNL     1      37.368 -24.267 -14.263  0.00  0.00    +0.105 C 
ATOM      6  C   UNL     1      38.240 -25.005 -13.440  0.00  0.00    +0.072 C 
ATOM      7  C   UNL     1      35.454 -24.271 -12.598  0.00  0.00    +0.003 C 
ATOM      8  C   UNL     1      37.676 -25.358 -12.195  0.00  0.00    +0.006 C 
ATOM      9  C   UNL     1      36.348 -25.008 -11.795  0.00  0.00    +0.000 C 
ENDROOT
BRANCH   1  13
ATOM     10  C   UNL     1      35.910 -21.236 -19.468  0.00  0.00    -0.024 C 
ATOM     11  C   UNL     1      34.901 -22.063 -18.976  0.00  0.00    -0.003 C 
ATOM     12  C   UNL     1      37.080 -21.049 -18.730  0.00  0.00    -0.003 C 
ATOM     13  C   UNL     1      36.230 -22.519 -17.011  0.00  0.00    +0.074 C 
ATOM     14  C   UNL     1      35.060 -22.705 -17.748  0.00  0.00    +0.016 C 
ATOM     15  C   UNL     1      37.240 -21.691 -17.502  0.00  0.00    +0.016 C 
BRANCH  10  17
ATOM     16  N   UNL     1      34.146 -19.377 -22.313  0.00  0.00    +0.384 N 
ATOM     17  C   UNL     1      35.738 -20.539 -20.805  0.00  0.00    +0.001 C 
ATOM     18  C   UNL     1      36.755 -19.401 -20.991  0.00  0.00    +0.000 C 
ATOM     19  C   UNL     1      34.301 -20.021 -21.006  0.00  0.00    -0.077 C 
ATOM     20  C   UNL     1      36.520 -18.691 -22.322  0.00  0.00    -0.023 C 
ATOM     21  C   UNL     1      35.066 -18.250 -22.467  0.00  0.00    -0.082 C 
ATOM     22  H   UNL     1      33.188 -19.039 -22.404  0.00  0.00    -0.085 HD
ATOM     23  H   UNL     1      34.358 -20.065 -23.036  0.00  0.00    -0.085 HD
ENDBRANCH  10  17
ENDBRANCH   1  13
BRANCH   6  26
ATOM     24  O   UNL     1      40.555 -24.611 -13.622  0.00  0.00    -0.270 OA
ATOM     25  N   UNL     1      39.780 -26.614 -14.426  0.00  0.00    -0.325 N 
ATOM     26  C   UNL     1      39.586 -25.369 -13.827  0.00  0.00    +0.244 C 
ATOM     27  H   UNL     1      40.684 -26.893 -14.701  0.00  0.00    +0.145 HD
ATOM     28  H   UNL     1      39.014 -27.215 -14.573  0.00  0.00    +0.145 HD
ENDBRANCH   6  26
TORSDOF 3
ENDMDL
MODEL 8
REMARK VINA RESULT:     -11.5      9.548     13.761
REMARK  Name = 24958200
REMARK  3 active torsions:
REMARK  status: ('A' for Active; 'I' for Inactive)
REMARK    1  A    between atoms: N_1  and  C_13
REMARK    2  A    between atoms: C_6  and  C_26
REMARK    3  A    between atoms: C_10  and  C_17
REMARK                            x       y       z     vdW  Elec       q    Type
REMARK                         _______ _______ _______ _____ _____    ______ ____
ROOT
ATOM      1  N   UNL     1      32.377  -9.759 -22.656  0.00  0.00    -0.189 N 
ATOM      2  N   UNL     1      32.422  -9.041 -21.517  0.00  0.00    -0.174 NA
ATOM      3  C   UNL     1      31.760  -7.792 -23.296  0.00  0.00    +0.036 C 
ATOM      4  C   UNL     1      31.985  -9.058 -23.759  0.00  0.00    +0.091 C 
ATOM      5  C   UNL     1      32.041  -7.803 -21.880  0.00  0.00    +0.105 C 
ATOM      6  C   UNL     1      31.900  -6.632 -21.113  0.00  0.00    +0.072 C 
ATOM      7  C   UNL     1      31.340  -6.713 -24.061  0.00  0.00    +0.003 C 
ATOM      8  C   UNL     1      31.474  -5.514 -21.864  0.00  0.00    +0.006 C 
ATOM      9  C   UNL     1      31.207  -5.555 -23.269  0.00  0.00    +0.000 C 
ENDROOT
BRANCH   1  13
ATOM     10  C   UNL     1      33.400 -13.805 -22.616  0.00  0.00    -0.024 C 
ATOM     11  C   UNL     1      33.900 -12.968 -23.614  0.00  0.00    -0.003 C 
ATOM     12  C   UNL     1      32.558 -13.288 -21.630  0.00  0.00    -0.003 C 
ATOM     13  C   UNL     1      32.716 -11.100 -22.644  0.00  0.00    +0.074 C 
ATOM     14  C   UNL     1      33.558 -11.616 -23.628  0.00  0.00    +0.016 C 
ATOM     15  C   UNL     1      32.216 -11.936 -21.644  0.00  0.00    +0.016 C 
BRANCH  10  17
ATOM     16  N   UNL     1      34.866 -17.120 -23.850  0.00  0.00    +0.384 N 
ATOM     17  C   UNL     1      33.771 -15.276 -22.602  0.00  0.00    +0.001 C 
ATOM     18  C   UNL     1      34.561 -15.653 -21.338  0.00  0.00    +0.000 C 
ATOM     19  C   UNL     1      34.542 -15.691 -23.869  0.00  0.00    -0.077 C 
ATOM     20  C   UNL     1      34.960 -17.127 -21.381  0.00  0.00    -0.023 C 
ATOM     21  C   UNL     1      35.677 -17.470 -22.684  0.00  0.00    -0.082 C 
ATOM     22  H   UNL     1      35.384 -17.353 -24.697  0.00  0.00    -0.085 HD
ATOM     23  H   UNL     1      33.993 -17.645 -23.804  0.00  0.00    -0.085 HD
ENDBRANCH  10  17
ENDBRANCH   1  13
BRANCH   6  26
ATOM     24  O   UNL     1      32.806  -5.630 -19.185  0.00  0.00    -0.270 OA
ATOM     25  N   UNL     1      31.662  -7.595 -18.889  0.00  0.00    -0.325 N 
ATOM     26  C   UNL     1      32.164  -6.571 -19.692  0.00  0.00    +0.244 C 
ATOM     27  H   UNL     1      31.824  -7.583 -17.917  0.00  0.00    +0.145 HD
ATOM     28  H   UNL     1      31.145  -8.329 -19.292  0.00  0.00    +0.145 HD
ENDBRANCH   6  26
TORSDOF 3
ENDMDL
MODEL 9
REMARK VINA RESULT:     -11.1      9.851     14.022
REMARK  Name = 24958200
REMARK  3 active torsions:
REMARK  status: ('A' for Active; 'I' for Inactive)
REMARK    1  A    between atoms: N_1  and  C_13
REMARK    2  A    between atoms: C_6  and  C_26
REMARK    3  A    between atoms: C_10  and  C_17
REMARK                            x       y       z     vdW  Elec       q    Type
REMARK                         _______ _______ _______ _____ _____    ______ ____
ROOT
ATOM      1  N   UNL     1      32.378  -9.650 -22.054  0.00  0.00    -0.189 N 
ATOM      2  N   UNL     1      32.206  -8.659 -22.950  0.00  0.00    -0.174 NA
ATOM      3  C   UNL     1      32.008  -7.925 -20.809  0.00  0.00    +0.036 C 
ATOM      4  C   UNL     1      32.270  -9.265 -20.749  0.00  0.00    +0.091 C 
ATOM      5  C   UNL     1      31.972  -7.563 -22.206  0.00  0.00    +0.105 C 
ATOM      6  C   UNL     1      31.720  -6.235 -22.594  0.00  0.00    +0.072 C 
ATOM      7  C   UNL     1      31.817  -7.088 -19.718  0.00  0.00    +0.003 C 
ATOM      8  C   UNL     1      31.520  -5.357 -21.506  0.00  0.00    +0.006 C 
ATOM      9  C   UNL     1      31.566  -5.766 -20.136  0.00  0.00    +0.000 C 
ENDROOT
BRANCH   1  13
ATOM     10  C   UNL     1      33.172 -13.534 -23.357  0.00  0.00    -0.024 C 
ATOM     11  C   UNL     1      33.693 -12.444 -24.054  0.00  0.00    -0.003 C 
ATOM     12  C   UNL     1      32.385 -13.325 -22.223  0.00  0.00    -0.003 C 
ATOM     13  C   UNL     1      32.641 -10.936 -22.486  0.00  0.00    +0.074 C 
ATOM     14  C   UNL     1      33.428 -11.145 -23.618  0.00  0.00    +0.016 C 
ATOM     15  C   UNL     1      32.120 -12.027 -21.788  0.00  0.00    +0.016 C 
BRANCH  10  17
ATOM     16  N   UNL     1      33.683 -16.433 -25.805  0.00  0.00    +0.384 N 
ATOM     17  C   UNL     1      33.459 -14.947 -23.831  0.00  0.00    +0.001 C 
ATOM     18  C   UNL     1      34.789 -15.477 -23.272  0.00  0.00    +0.000 C 
ATOM     19  C   UNL     1      33.433 -15.058 -25.367  0.00  0.00    -0.077 C 
ATOM     20  C   UNL     1      35.070 -16.878 -23.809  0.00  0.00    -0.023 C 
ATOM     21  C   UNL     1      34.980 -16.918 -25.332  0.00  0.00    -0.082 C 
ATOM     22  H   UNL     1      33.669 -16.464 -26.824  0.00  0.00    -0.085 HD
ATOM     23  H   UNL     1      32.955 -17.031 -25.414  0.00  0.00    -0.085 HD
ENDBRANCH  10  17
ENDBRANCH   1  13
BRANCH   6  26
ATOM     24  O   UNL     1      30.735  -5.098 -24.406  0.00  0.00    -0.270 OA
ATOM     25  N   UNL     1      32.714  -6.180 -24.817  0.00  0.00    -0.325 N 
ATOM     26  C   UNL     1      31.670  -5.802 -23.974  0.00  0.00    +0.244 C 
ATOM     27  H   UNL     1      32.711  -5.901 -25.762  0.00  0.00    +0.145 HD
ATOM     28  H   UNL     1      33.457  -6.725 -24.468  0.00  0.00    +0.145 HD
ENDBRANCH   6  26
TORSDOF 3
ENDMDL
