MODEL 1
REMARK VINA RESULT:     -14.3      0.000      0.000
REMARK  Name = 51049992
REMARK  10 active torsions:
REMARK  status: ('A' for Active; 'I' for Inactive)
REMARK    1  A    between atoms: C_1  and  C_7
REMARK    2  A    between atoms: C_6  and  C_23
REMARK    3  A    between atoms: C_7  and  N_8
REMARK    4  A    between atoms: C_23  and  O_24
REMARK    5  A    between atoms: O_24  and  C_25
REMARK    6  A    between atoms: C_26  and  C_31
REMARK    7  A    between atoms: C_31  and  C_32
REMARK    8  A    between atoms: C_31  and  C_35
REMARK    9  A    between atoms: C_35  and  C_37
REMARK   10  A    between atoms: C_37  and  O_38
REMARK                            x       y       z     vdW  Elec       q    Type
REMARK                         _______ _______ _______ _____ _____    ______ ____
ROOT
ATOM      1  C   UNL     1      33.885 -13.848 -23.926  0.00  0.00    -0.043 C 
ATOM      2  C   UNL     1      34.200 -12.580 -24.418  0.00  0.00    -0.007 C 
ATOM      3  C   UNL     1      32.920 -13.988 -22.928  0.00  0.00    -0.007 C 
ATOM      4  C   UNL     1      33.550 -11.455 -23.912  0.00  0.00    -0.001 C 
ATOM      5  C   UNL     1      32.271 -12.862 -22.422  0.00  0.00    -0.001 C 
ATOM      6  C   UNL     1      32.586 -11.595 -22.914  0.00  0.00    +0.021 C 
ENDROOT
BRANCH   1   7
ATOM      7  C   UNL     1      34.586 -15.062 -24.473  0.00  0.00    -0.050 C 
BRANCH   7   8
ATOM      8  N   UNL     1      34.400 -16.231 -23.613  0.00  0.00    +0.390 N 
ATOM      9  C   UNL     1      35.259 -18.481 -21.913  0.00  0.00    +0.033 C 
ATOM     10  C   UNL     1      34.698 -17.167 -21.340  0.00  0.00    -0.015 C 
ATOM     11  C   UNL     1      34.778 -18.666 -23.364  0.00  0.00    -0.015 C 
ATOM     12  C   UNL     1      35.018 -17.418 -24.220  0.00  0.00    -0.076 C 
ATOM     13  C   UNL     1      34.941 -15.975 -22.272  0.00  0.00    -0.076 C 
ATOM     14  C   UNL     1      34.903 -19.670 -21.046  0.00  0.00    -0.019 C 
ATOM     15  C   UNL     1      36.783 -18.531 -21.816  0.00  0.00    -0.023 C 
ATOM     16  C   UNL     1      36.075 -20.268 -20.558  0.00  0.00    -0.004 C 
ATOM     17  C   UNL     1      37.228 -19.541 -21.052  0.00  0.00    -0.005 C 
ATOM     18  C   UNL     1      33.657 -20.180 -20.715  0.00  0.00    -0.004 C 
ATOM     19  C   UNL     1      36.028 -21.381 -19.735  0.00  0.00    -0.000 C 
ATOM     20  C   UNL     1      33.599 -21.303 -19.886  0.00  0.00    -0.000 C 
ATOM     21  C   UNL     1      34.774 -21.898 -19.400  0.00  0.00    -0.000 C 
ATOM     22  H   UNL     1      33.401 -16.413 -23.518  0.00  0.00    -0.079 HD
ENDBRANCH   7   8
ENDBRANCH   1   7
BRANCH   6  23
ATOM     23  C   UNL     1      31.890 -10.392 -22.375  0.00  0.00    +0.232 C 
BRANCH  23  24
ATOM     24  O   UNL     1      32.854  -9.410 -22.013  0.00  0.00    -0.471 OA
BRANCH  24  25
ATOM     25  C   UNL     1      32.740  -8.184 -22.612  0.00  0.00    +0.139 C 
ATOM     26  C   UNL     1      32.509  -5.687 -23.834  0.00  0.00    -0.010 C 
ATOM     27  C   UNL     1      31.532  -7.489 -22.556  0.00  0.00    +0.037 C 
ATOM     28  C   UNL     1      33.833  -7.629 -23.279  0.00  0.00    +0.037 C 
ATOM     29  C   UNL     1      31.416  -6.240 -23.167  0.00  0.00    -0.000 C 
ATOM     30  C   UNL     1      33.717  -6.381 -23.891  0.00  0.00    -0.000 C 
BRANCH  26  31
ATOM     31  C   UNL     1      32.386  -4.352 -24.488  0.00  0.00    +0.097 C 
BRANCH  31  32
ATOM     32  C   UNL     1      32.700  -4.421 -25.942  0.00  0.00    -0.087 C 
ATOM     33  C   UNL     1      32.963  -4.462 -27.114  0.00  0.00    -0.090 C 
ATOM     34  C   UNL     1      33.281  -4.510 -28.539  0.00  0.00    +0.090 C 
ENDBRANCH  31  32
BRANCH  31  35
ATOM     35  C   UNL     1      30.984  -3.718 -24.277  0.00  0.00    +0.127 C 
BRANCH  35  37
ATOM     36  O   UNL     1      29.958  -2.147 -22.716  0.00  0.00    -0.250 OA
ATOM     37  C   UNL     1      30.958  -2.594 -23.259  0.00  0.00    +0.315 C 
BRANCH  37  38
ATOM     38  O   UNL     1      32.211  -2.134 -23.000  0.00  0.00    -0.480 OA
ATOM     39  H   UNL     1      32.344  -1.486 -22.337  0.00  0.00    +0.295 HD
ENDBRANCH  37  38
ENDBRANCH  35  37
ENDBRANCH  31  35
ENDBRANCH  26  31
ENDBRANCH  24  25
ENDBRANCH  23  24
ENDBRANCH   6  23
TORSDOF 10
ENDMDL
MODEL 2
REMARK VINA RESULT:     -14.2      6.015     14.999
REMARK  Name = 51049992
REMARK  10 active torsions:
REMARK  status: ('A' for Active; 'I' for Inactive)
REMARK    1  A    between atoms: C_1  and  C_7
REMARK    2  A    between atoms: C_6  and  C_23
REMARK    3  A    between atoms: C_7  and  N_8
REMARK    4  A    between atoms: C_23  and  O_24
REMARK    5  A    between atoms: O_24  and  C_25
REMARK    6  A    between atoms: C_26  and  C_31
REMARK    7  A    between atoms: C_31  and  C_32
REMARK    8  A    between atoms: C_31  and  C_35
REMARK    9  A    between atoms: C_35  and  C_37
REMARK   10  A    between atoms: C_37  and  O_38
REMARK                            x       y       z     vdW  Elec       q    Type
REMARK                         _______ _______ _______ _____ _____    ______ ____
ROOT
ATOM      1  C   UNL     1      35.474 -18.335 -22.942  0.00  0.00    -0.043 C 
ATOM      2  C   UNL     1      34.563 -19.228 -22.377  0.00  0.00    -0.007 C 
ATOM      3  C   UNL     1      36.788 -18.290 -22.472  0.00  0.00    -0.007 C 
ATOM      4  C   UNL     1      34.964 -20.075 -21.345  0.00  0.00    -0.001 C 
ATOM      5  C   UNL     1      37.189 -19.137 -21.440  0.00  0.00    -0.001 C 
ATOM      6  C   UNL     1      36.278 -20.030 -20.876  0.00  0.00    +0.021 C 
ENDROOT
BRANCH   1   7
ATOM      7  C   UNL     1      35.041 -17.420 -24.055  0.00  0.00    -0.050 C 
BRANCH   7   8
ATOM      8  N   UNL     1      34.306 -16.259 -23.552  0.00  0.00    +0.390 N 
ATOM      9  C   UNL     1      33.600 -13.404 -23.359  0.00  0.00    +0.033 C 
ATOM     10  C   UNL     1      32.737 -14.429 -24.117  0.00  0.00    -0.015 C 
ATOM     11  C   UNL     1      34.464 -14.124 -22.308  0.00  0.00    -0.015 C 
ATOM     12  C   UNL     1      35.224 -15.316 -22.897  0.00  0.00    -0.076 C 
ATOM     13  C   UNL     1      33.563 -15.610 -24.639  0.00  0.00    -0.076 C 
ATOM     14  C   UNL     1      32.757 -12.308 -22.740  0.00  0.00    -0.019 C 
ATOM     15  C   UNL     1      34.454 -12.571 -24.314  0.00  0.00    -0.023 C 
ATOM     16  C   UNL     1      33.116 -11.068 -23.290  0.00  0.00    -0.004 C 
ATOM     17  C   UNL     1      34.172 -11.260 -24.265  0.00  0.00    -0.005 C 
ATOM     18  C   UNL     1      31.763 -12.395 -21.779  0.00  0.00    -0.004 C 
ATOM     19  C   UNL     1      32.493  -9.896 -22.893  0.00  0.00    -0.000 C 
ATOM     20  C   UNL     1      31.128 -11.219 -21.372  0.00  0.00    -0.000 C 
ATOM     21  C   UNL     1      31.490  -9.980 -21.924  0.00  0.00    -0.000 C 
ATOM     22  H   UNL     1      33.632 -16.574 -22.855  0.00  0.00    -0.079 HD
ENDBRANCH   7   8
ENDBRANCH   1   7
BRANCH   6  23
ATOM     23  C   UNL     1      36.708 -20.938 -19.775  0.00  0.00    +0.232 C 
BRANCH  23  24
ATOM     24  O   UNL     1      35.569 -21.340 -19.021  0.00  0.00    -0.471 OA
BRANCH  24  25
ATOM     25  C   UNL     1      35.808 -22.052 -17.876  0.00  0.00    +0.139 C 
ATOM     26  C   UNL     1      36.292 -23.499 -15.540  0.00  0.00    -0.010 C 
ATOM     27  C   UNL     1      34.785 -22.803 -17.295  0.00  0.00    +0.037 C 
ATOM     28  C   UNL     1      37.072 -22.025 -17.288  0.00  0.00    +0.037 C 
ATOM     29  C   UNL     1      35.028 -23.527 -16.128  0.00  0.00    -0.000 C 
ATOM     30  C   UNL     1      37.314 -22.748 -16.120  0.00  0.00    -0.000 C 
BRANCH  26  31
ATOM     31  C   UNL     1      36.552 -24.273 -14.292  0.00  0.00    +0.097 C 
BRANCH  31  32
ATOM     32  C   UNL     1      37.928 -24.841 -14.274  0.00  0.00    -0.087 C 
ATOM     33  C   UNL     1      39.034 -25.311 -14.247  0.00  0.00    -0.090 C 
ATOM     34  C   UNL     1      40.379 -25.881 -14.212  0.00  0.00    +0.090 C 
ENDBRANCH  31  32
BRANCH  31  35
ATOM     35  C   UNL     1      36.310 -23.428 -13.012  0.00  0.00    +0.127 C 
BRANCH  35  37
ATOM     36  O   UNL     1      36.728 -24.235 -10.747  0.00  0.00    -0.250 OA
ATOM     37  C   UNL     1      36.050 -24.251 -11.765  0.00  0.00    +0.315 C 
BRANCH  37  38
ATOM     38  O   UNL     1      34.938 -25.020 -11.904  0.00  0.00    -0.480 OA
ATOM     39  H   UNL     1      34.969 -25.798 -12.423  0.00  0.00    +0.295 HD
ENDBRANCH  37  38
ENDBRANCH  35  37
ENDBRANCH  31  35
ENDBRANCH  26  31
ENDBRANCH  24  25
ENDBRANCH  23  24
ENDBRANCH   6  23
TORSDOF 10
ENDMDL
MODEL 3
REMARK VINA RESULT:     -14.1      1.552      2.413
REMARK  Name = 51049992
REMARK  10 active torsions:
REMARK  status: ('A' for Active; 'I' for Inactive)
REMARK    1  A    between atoms: C_1  and  C_7
REMARK    2  A    between atoms: C_6  and  C_23
REMARK    3  A    between atoms: C_7  and  N_8
REMARK    4  A    between atoms: C_23  and  O_24
REMARK    5  A    between atoms: O_24  and  C_25
REMARK    6  A    between atoms: C_26  and  C_31
REMARK    7  A    between atoms: C_31  and  C_32
REMARK    8  A    between atoms: C_31  and  C_35
REMARK    9  A    between atoms: C_35  and  C_37
REMARK   10  A    between atoms: C_37  and  O_38
REMARK                            x       y       z     vdW  Elec       q    Type
REMARK                         _______ _______ _______ _____ _____    ______ ____
ROOT
ATOM      1  C   UNL     1      33.975 -14.056 -23.560  0.00  0.00    -0.043 C 
ATOM      2  C   UNL     1      34.146 -12.796 -24.135  0.00  0.00    -0.007 C 
ATOM      3  C   UNL     1      33.068 -14.225 -22.513  0.00  0.00    -0.007 C 
ATOM      4  C   UNL     1      33.411 -11.708 -23.665  0.00  0.00    -0.001 C 
ATOM      5  C   UNL     1      32.333 -13.137 -22.043  0.00  0.00    -0.001 C 
ATOM      6  C   UNL     1      32.505 -11.879 -22.619  0.00  0.00    +0.021 C 
ENDROOT
BRANCH   1   7
ATOM      7  C   UNL     1      34.768 -15.229 -24.067  0.00  0.00    -0.050 C 
BRANCH   7   8
ATOM      8  N   UNL     1      34.539 -16.430 -23.264  0.00  0.00    +0.390 N 
ATOM      9  C   UNL     1      35.310 -18.741 -21.604  0.00  0.00    +0.033 C 
ATOM     10  C   UNL     1      34.713 -17.451 -21.014  0.00  0.00    -0.015 C 
ATOM     11  C   UNL     1      34.911 -18.872 -23.085  0.00  0.00    -0.015 C 
ATOM     12  C   UNL     1      35.194 -17.593 -23.879  0.00  0.00    -0.076 C 
ATOM     13  C   UNL     1      35.004 -16.224 -21.886  0.00  0.00    -0.076 C 
ATOM     14  C   UNL     1      34.910 -19.963 -20.803  0.00  0.00    -0.019 C 
ATOM     15  C   UNL     1      36.826 -18.793 -21.424  0.00  0.00    -0.023 C 
ATOM     16  C   UNL     1      36.055 -20.577 -20.274  0.00  0.00    -0.004 C 
ATOM     17  C   UNL     1      37.232 -19.830 -20.675  0.00  0.00    -0.005 C 
ATOM     18  C   UNL     1      33.650 -20.487 -20.563  0.00  0.00    -0.004 C 
ATOM     19  C   UNL     1      35.966 -21.720 -19.497  0.00  0.00    -0.000 C 
ATOM     20  C   UNL     1      33.549 -21.640 -19.781  0.00  0.00    -0.000 C 
ATOM     21  C   UNL     1      34.697 -22.252 -19.252  0.00  0.00    -0.000 C 
ATOM     22  H   UNL     1      33.537 -16.617 -23.232  0.00  0.00    -0.079 HD
ENDBRANCH   7   8
ENDBRANCH   1   7
BRANCH   6  23
ATOM     23  C   UNL     1      31.717 -10.716 -22.118  0.00  0.00    +0.232 C 
BRANCH  23  24
ATOM     24  O   UNL     1      32.602  -9.654 -21.782  0.00  0.00    -0.471 OA
BRANCH  24  25
ATOM     25  C   UNL     1      32.640  -8.587 -22.640  0.00  0.00    +0.139 C 
ATOM     26  C   UNL     1      32.718  -6.413 -24.386  0.00  0.00    -0.010 C 
ATOM     27  C   UNL     1      33.834  -7.893 -22.838  0.00  0.00    +0.037 C 
ATOM     28  C   UNL     1      31.485  -8.194 -23.316  0.00  0.00    +0.037 C 
ATOM     29  C   UNL     1      33.873  -6.806 -23.711  0.00  0.00    -0.000 C 
ATOM     30  C   UNL     1      31.524  -7.106 -24.189  0.00  0.00    -0.000 C 
BRANCH  26  31
ATOM     31  C   UNL     1      32.758  -5.251 -25.320  0.00  0.00    +0.097 C 
BRANCH  31  32
ATOM     32  C   UNL     1      32.288  -4.000 -24.663  0.00  0.00    -0.087 C 
ATOM     33  C   UNL     1      31.899  -3.001 -24.120  0.00  0.00    -0.090 C 
ATOM     34  C   UNL     1      31.424  -1.786 -23.462  0.00  0.00    +0.090 C 
ENDBRANCH  31  32
BRANCH  31  35
ATOM     35  C   UNL     1      34.169  -5.032 -25.930  0.00  0.00    +0.127 C 
BRANCH  35  37
ATOM     36  O   UNL     1      35.116  -4.068 -27.962  0.00  0.00    -0.250 OA
ATOM     37  C   UNL     1      34.156  -4.529 -27.360  0.00  0.00    +0.315 C 
BRANCH  37  38
ATOM     38  O   UNL     1      32.925  -4.664 -27.920  0.00  0.00    -0.480 OA
ATOM     39  H   UNL     1      32.805  -5.232 -28.655  0.00  0.00    +0.295 HD
ENDBRANCH  37  38
ENDBRANCH  35  37
ENDBRANCH  31  35
ENDBRANCH  26  31
ENDBRANCH  24  25
ENDBRANCH  23  24
ENDBRANCH   6  23
TORSDOF 10
ENDMDL
MODEL 4
REMARK VINA RESULT:     -13.8      4.067     13.922
REMARK  Name = 51049992
REMARK  10 active torsions:
REMARK  status: ('A' for Active; 'I' for Inactive)
REMARK    1  A    between atoms: C_1  and  C_7
REMARK    2  A    between atoms: C_6  and  C_23
REMARK    3  A    between atoms: C_7  and  N_8
REMARK    4  A    between atoms: C_23  and  O_24
REMARK    5  A    between atoms: O_24  and  C_25
REMARK    6  A    between atoms: C_26  and  C_31
REMARK    7  A    between atoms: C_31  and  C_32
REMARK    8  A    between atoms: C_31  and  C_35
REMARK    9  A    between atoms: C_35  and  C_37
REMARK   10  A    between atoms: C_37  and  O_38
REMARK                            x       y       z     vdW  Elec       q    Type
REMARK                         _______ _______ _______ _____ _____    ______ ____
ROOT
ATOM      1  C   UNL     1      32.532 -12.645 -21.744  0.00  0.00    -0.043 C 
ATOM      2  C   UNL     1      32.691 -13.754 -20.912  0.00  0.00    -0.007 C 
ATOM      3  C   UNL     1      33.018 -12.681 -23.052  0.00  0.00    -0.007 C 
ATOM      4  C   UNL     1      33.334 -14.896 -21.387  0.00  0.00    -0.001 C 
ATOM      5  C   UNL     1      33.662 -13.823 -23.526  0.00  0.00    -0.001 C 
ATOM      6  C   UNL     1      33.820 -14.931 -22.694  0.00  0.00    +0.021 C 
ENDROOT
BRANCH   1   7
ATOM      7  C   UNL     1      31.838 -11.413 -21.232  0.00  0.00    -0.050 C 
BRANCH   7   8
ATOM      8  N   UNL     1      32.133 -10.239 -22.054  0.00  0.00    +0.390 N 
ATOM      9  C   UNL     1      31.962  -7.408 -22.857  0.00  0.00    +0.033 C 
ATOM     10  C   UNL     1      33.177  -7.994 -22.116  0.00  0.00    -0.015 C 
ATOM     11  C   UNL     1      31.202  -8.531 -23.587  0.00  0.00    -0.015 C 
ATOM     12  C   UNL     1      30.904  -9.722 -22.670  0.00  0.00    -0.076 C 
ATOM     13  C   UNL     1      32.803  -9.206 -21.254  0.00  0.00    -0.076 C 
ATOM     14  C   UNL     1      32.363  -6.294 -23.801  0.00  0.00    -0.019 C 
ATOM     15  C   UNL     1      31.045  -6.634 -21.910  0.00  0.00    -0.023 C 
ATOM     16  C   UNL     1      31.744  -5.097 -23.409  0.00  0.00    -0.004 C 
ATOM     17  C   UNL     1      30.932  -5.336 -22.232  0.00  0.00    -0.005 C 
ATOM     18  C   UNL     1      33.198  -6.331 -24.906  0.00  0.00    -0.004 C 
ATOM     19  C   UNL     1      31.946  -3.919 -24.109  0.00  0.00    -0.000 C 
ATOM     20  C   UNL     1      33.408  -5.148 -25.619  0.00  0.00    -0.000 C 
ATOM     21  C   UNL     1      32.788  -3.952 -25.224  0.00  0.00    -0.000 C 
ATOM     22  H   UNL     1      32.766 -10.515 -22.804  0.00  0.00    -0.079 HD
ENDBRANCH   7   8
ENDBRANCH   1   7
BRANCH   6  23
ATOM     23  C   UNL     1      34.505 -16.154 -23.202  0.00  0.00    +0.232 C 
BRANCH  23  24
ATOM     24  O   UNL     1      35.575 -16.495 -22.328  0.00  0.00    -0.471 OA
BRANCH  24  25
ATOM     25  C   UNL     1      35.543 -17.745 -21.771  0.00  0.00    +0.139 C 
ATOM     26  C   UNL     1      35.476 -20.294 -20.638  0.00  0.00    -0.010 C 
ATOM     27  C   UNL     1      36.728 -18.363 -21.373  0.00  0.00    +0.037 C 
ATOM     28  C   UNL     1      34.323 -18.402 -21.603  0.00  0.00    +0.037 C 
ATOM     29  C   UNL     1      36.694 -19.637 -20.806  0.00  0.00    -0.000 C 
ATOM     30  C   UNL     1      34.290 -19.677 -21.037  0.00  0.00    -0.000 C 
BRANCH  26  31
ATOM     31  C   UNL     1      35.439 -21.656 -20.032  0.00  0.00    +0.097 C 
BRANCH  31  32
ATOM     32  C   UNL     1      36.233 -21.720 -18.774  0.00  0.00    -0.087 C 
ATOM     33  C   UNL     1      36.866 -21.757 -17.753  0.00  0.00    -0.090 C 
ATOM     34  C   UNL     1      37.637 -21.800 -16.513  0.00  0.00    +0.090 C 
ENDBRANCH  31  32
BRANCH  31  35
ATOM     35  C   UNL     1      33.989 -22.147 -19.770  0.00  0.00    +0.127 C 
BRANCH  35  37
ATOM     36  O   UNL     1      33.803 -23.659 -17.864  0.00  0.00    -0.250 OA
ATOM     37  C   UNL     1      33.905 -23.489 -19.071  0.00  0.00    +0.315 C 
BRANCH  37  38
ATOM     38  O   UNL     1      33.942 -24.514 -19.963  0.00  0.00    -0.480 OA
ATOM     39  H   UNL     1      34.456 -25.275 -19.781  0.00  0.00    +0.295 HD
ENDBRANCH  37  38
ENDBRANCH  35  37
ENDBRANCH  31  35
ENDBRANCH  26  31
ENDBRANCH  24  25
ENDBRANCH  23  24
ENDBRANCH   6  23
TORSDOF 10
ENDMDL
MODEL 5
REMARK VINA RESULT:     -13.6      5.414      9.567
REMARK  Name = 51049992
REMARK  10 active torsions:
REMARK  status: ('A' for Active; 'I' for Inactive)
REMARK    1  A    between atoms: C_1  and  C_7
REMARK    2  A    between atoms: C_6  and  C_23
REMARK    3  A    between atoms: C_7  and  N_8
REMARK    4  A    between atoms: C_23  and  O_24
REMARK    5  A    between atoms: O_24  and  C_25
REMARK    6  A    between atoms: C_26  and  C_31
REMARK    7  A    between atoms: C_31  and  C_32
REMARK    8  A    between atoms: C_31  and  C_35
REMARK    9  A    between atoms: C_35  and  C_37
REMARK   10  A    between atoms: C_37  and  O_38
REMARK                            x       y       z     vdW  Elec       q    Type
REMARK                         _______ _______ _______ _____ _____    ______ ____
ROOT
ATOM      1  C   UNL     1      34.371 -21.577 -19.521  0.00  0.00    -0.043 C 
ATOM      2  C   UNL     1      33.645 -20.662 -20.284  0.00  0.00    -0.007 C 
ATOM      3  C   UNL     1      35.765 -21.568 -19.562  0.00  0.00    -0.007 C 
ATOM      4  C   UNL     1      34.313 -19.739 -21.088  0.00  0.00    -0.001 C 
ATOM      5  C   UNL     1      36.434 -20.645 -20.366  0.00  0.00    -0.001 C 
ATOM      6  C   UNL     1      35.708 -19.730 -21.129  0.00  0.00    +0.021 C 
ENDROOT
BRANCH   1   7
ATOM      7  C   UNL     1      33.649 -22.573 -18.654  0.00  0.00    -0.050 C 
BRANCH   7   8
ATOM      8  N   UNL     1      34.289 -22.722 -17.346  0.00  0.00    +0.390 N 
ATOM      9  C   UNL     1      35.787 -24.126 -15.232  0.00  0.00    +0.033 C 
ATOM     10  C   UNL     1      36.426 -23.062 -16.142  0.00  0.00    -0.015 C 
ATOM     11  C   UNL     1      34.262 -23.925 -15.182  0.00  0.00    -0.015 C 
ATOM     12  C   UNL     1      33.646 -23.797 -16.579  0.00  0.00    -0.076 C 
ATOM     13  C   UNL     1      35.728 -22.967 -17.503  0.00  0.00    -0.076 C 
ATOM     14  C   UNL     1      36.401 -24.124 -13.847  0.00  0.00    -0.019 C 
ATOM     15  C   UNL     1      36.152 -25.541 -15.679  0.00  0.00    -0.023 C 
ATOM     16  C   UNL     1      37.005 -25.365 -13.596  0.00  0.00    -0.004 C 
ATOM     17  C   UNL     1      36.836 -26.226 -14.750  0.00  0.00    -0.005 C 
ATOM     18  C   UNL     1      36.424 -23.119 -12.894  0.00  0.00    -0.004 C 
ATOM     19  C   UNL     1      37.643 -25.626 -12.394  0.00  0.00    -0.000 C 
ATOM     20  C   UNL     1      37.065 -23.372 -11.678  0.00  0.00    -0.000 C 
ATOM     21  C   UNL     1      37.669 -24.615 -11.430  0.00  0.00    -0.000 C 
ATOM     22  H   UNL     1      34.174 -21.854 -16.824  0.00  0.00    -0.079 HD
ENDBRANCH   7   8
ENDBRANCH   1   7
BRANCH   6  23
ATOM     23  C   UNL     1      36.422 -18.741 -21.986  0.00  0.00    +0.232 C 
BRANCH  23  24
ATOM     24  O   UNL     1      35.825 -18.715 -23.277  0.00  0.00    -0.471 OA
BRANCH  24  25
ATOM     25  C   UNL     1      35.149 -17.575 -23.622  0.00  0.00    +0.139 C 
ATOM     26  C   UNL     1      33.770 -15.253 -24.322  0.00  0.00    -0.010 C 
ATOM     27  C   UNL     1      35.070 -16.512 -22.722  0.00  0.00    +0.037 C 
ATOM     28  C   UNL     1      34.538 -17.477 -24.872  0.00  0.00    +0.037 C 
ATOM     29  C   UNL     1      34.380 -15.351 -23.072  0.00  0.00    -0.000 C 
ATOM     30  C   UNL     1      33.848 -16.316 -25.222  0.00  0.00    -0.000 C 
BRANCH  26  31
ATOM     31  C   UNL     1      33.033 -14.012 -24.698  0.00  0.00    +0.097 C 
BRANCH  31  32
ATOM     32  C   UNL     1      32.586 -13.254 -23.497  0.00  0.00    -0.087 C 
ATOM     33  C   UNL     1      32.240 -12.645 -22.520  0.00  0.00    -0.090 C 
ATOM     34  C   UNL     1      31.819 -11.908 -21.331  0.00  0.00    +0.090 C 
ENDBRANCH  31  32
BRANCH  31  35
ATOM     35  C   UNL     1      33.865 -13.090 -25.629  0.00  0.00    +0.127 C 
BRANCH  35  37
ATOM     36  O   UNL     1      34.423 -13.775 -27.904  0.00  0.00    -0.250 OA
ATOM     37  C   UNL     1      33.617 -13.315 -27.108  0.00  0.00    +0.315 C 
BRANCH  37  38
ATOM     38  O   UNL     1      32.355 -12.949 -27.458  0.00  0.00    -0.480 OA
ATOM     39  H   UNL     1      32.221 -12.331 -28.148  0.00  0.00    +0.295 HD
ENDBRANCH  37  38
ENDBRANCH  35  37
ENDBRANCH  31  35
ENDBRANCH  26  31
ENDBRANCH  24  25
ENDBRANCH  23  24
ENDBRANCH   6  23
TORSDOF 10
ENDMDL
MODEL 6
REMARK VINA RESULT:     -13.6      6.048     14.610
REMARK  Name = 51049992
REMARK  10 active torsions:
REMARK  status: ('A' for Active; 'I' for Inactive)
REMARK    1  A    between atoms: C_1  and  C_7
REMARK    2  A    between atoms: C_6  and  C_23
REMARK    3  A    between atoms: C_7  and  N_8
REMARK    4  A    between atoms: C_23  and  O_24
REMARK    5  A    between atoms: O_24  and  C_25
REMARK    6  A    between atoms: C_26  and  C_31
REMARK    7  A    between atoms: C_31  and  C_32
REMARK    8  A    between atoms: C_31  and  C_35
REMARK    9  A    between atoms: C_35  and  C_37
REMARK   10  A    between atoms: C_37  and  O_38
REMARK                            x       y       z     vdW  Elec       q    Type
REMARK                         _______ _______ _______ _____ _____    ______ ____
ROOT
ATOM      1  C   UNL     1      35.308 -18.172 -23.065  0.00  0.00    -0.043 C 
ATOM      2  C   UNL     1      34.417 -19.192 -22.729  0.00  0.00    -0.007 C 
ATOM      3  C   UNL     1      36.519 -18.052 -22.382  0.00  0.00    -0.007 C 
ATOM      4  C   UNL     1      34.736 -20.090 -21.712  0.00  0.00    -0.001 C 
ATOM      5  C   UNL     1      36.838 -18.951 -21.365  0.00  0.00    -0.001 C 
ATOM      6  C   UNL     1      35.947 -19.970 -21.030  0.00  0.00    +0.021 C 
ENDROOT
BRANCH   1   7
ATOM      7  C   UNL     1      34.963 -17.203 -24.163  0.00  0.00    -0.050 C 
BRANCH   7   8
ATOM      8  N   UNL     1      34.226 -16.045 -23.656  0.00  0.00    +0.390 N 
ATOM      9  C   UNL     1      33.543 -13.187 -23.420  0.00  0.00    +0.033 C 
ATOM     10  C   UNL     1      32.693 -14.185 -24.226  0.00  0.00    -0.015 C 
ATOM     11  C   UNL     1      34.369 -13.939 -22.361  0.00  0.00    -0.015 C 
ATOM     12  C   UNL     1      35.134 -15.126 -22.954  0.00  0.00    -0.076 C 
ATOM     13  C   UNL     1      33.521 -15.364 -24.749  0.00  0.00    -0.076 C 
ATOM     14  C   UNL     1      32.694 -12.096 -22.802  0.00  0.00    -0.019 C 
ATOM     15  C   UNL     1      34.434 -12.343 -24.331  0.00  0.00    -0.023 C 
ATOM     16  C   UNL     1      33.082 -10.848 -23.314  0.00  0.00    -0.004 C 
ATOM     17  C   UNL     1      34.164 -11.030 -24.262  0.00  0.00    -0.005 C 
ATOM     18  C   UNL     1      31.672 -12.193 -21.872  0.00  0.00    -0.004 C 
ATOM     19  C   UNL     1      32.459  -9.679 -22.909  0.00  0.00    -0.000 C 
ATOM     20  C   UNL     1      31.038 -11.019 -21.457  0.00  0.00    -0.000 C 
ATOM     21  C   UNL     1      31.428  -9.772 -21.972  0.00  0.00    -0.000 C 
ATOM     22  H   UNL     1      33.529 -16.367 -22.986  0.00  0.00    -0.079 HD
ENDBRANCH   7   8
ENDBRANCH   1   7
BRANCH   6  23
ATOM     23  C   UNL     1      36.289 -20.932 -19.944  0.00  0.00    +0.232 C 
BRANCH  23  24
ATOM     24  O   UNL     1      35.297 -21.951 -19.883  0.00  0.00    -0.471 OA
BRANCH  24  25
ATOM     25  C   UNL     1      34.922 -22.373 -18.636  0.00  0.00    +0.139 C 
ATOM     26  C   UNL     1      34.156 -23.231 -16.094  0.00  0.00    -0.010 C 
ATOM     27  C   UNL     1      33.617 -22.811 -18.410  0.00  0.00    +0.037 C 
ATOM     28  C   UNL     1      35.844 -22.364 -17.589  0.00  0.00    +0.037 C 
ATOM     29  C   UNL     1      33.234 -23.241 -17.139  0.00  0.00    -0.000 C 
ATOM     30  C   UNL     1      35.461 -22.792 -16.318  0.00  0.00    -0.000 C 
BRANCH  26  31
ATOM     31  C   UNL     1      33.748 -23.690 -14.734  0.00  0.00    +0.097 C 
BRANCH  31  32
ATOM     32  C   UNL     1      32.373 -24.260 -14.736  0.00  0.00    -0.087 C 
ATOM     33  C   UNL     1      31.257 -24.707 -14.747  0.00  0.00    -0.090 C 
ATOM     34  C   UNL     1      29.900 -25.248 -14.757  0.00  0.00    +0.090 C 
ENDBRANCH  31  32
BRANCH  31  35
ATOM     35  C   UNL     1      34.748 -24.714 -14.132  0.00  0.00    +0.127 C 
BRANCH  35  37
ATOM     36  O   UNL     1      36.227 -23.430 -12.677  0.00  0.00    -0.250 OA
ATOM     37  C   UNL     1      35.361 -24.282 -12.815  0.00  0.00    +0.315 C 
BRANCH  37  38
ATOM     38  O   UNL     1      34.815 -24.959 -11.770  0.00  0.00    -0.480 OA
ATOM     39  H   UNL     1      35.179 -25.778 -11.501  0.00  0.00    +0.295 HD
ENDBRANCH  37  38
ENDBRANCH  35  37
ENDBRANCH  31  35
ENDBRANCH  26  31
ENDBRANCH  24  25
ENDBRANCH  23  24
ENDBRANCH   6  23
TORSDOF 10
ENDMDL
MODEL 7
REMARK VINA RESULT:     -13.5      4.788      9.280
REMARK  Name = 51049992
REMARK  10 active torsions:
REMARK  status: ('A' for Active; 'I' for Inactive)
REMARK    1  A    between atoms: C_1  and  C_7
REMARK    2  A    between atoms: C_6  and  C_23
REMARK    3  A    between atoms: C_7  and  N_8
REMARK    4  A    between atoms: C_23  and  O_24
REMARK    5  A    between atoms: O_24  and  C_25
REMARK    6  A    between atoms: C_26  and  C_31
REMARK    7  A    between atoms: C_31  and  C_32
REMARK    8  A    between atoms: C_31  and  C_35
REMARK    9  A    between atoms: C_35  and  C_37
REMARK   10  A    between atoms: C_37  and  O_38
REMARK                            x       y       z     vdW  Elec       q    Type
REMARK                         _______ _______ _______ _____ _____    ______ ____
ROOT
ATOM      1  C   UNL     1      33.713 -21.904 -19.119  0.00  0.00    -0.043 C 
ATOM      2  C   UNL     1      32.941 -20.992 -19.839  0.00  0.00    -0.007 C 
ATOM      3  C   UNL     1      35.089 -21.981 -19.343  0.00  0.00    -0.007 C 
ATOM      4  C   UNL     1      33.543 -20.158 -20.781  0.00  0.00    -0.001 C 
ATOM      5  C   UNL     1      35.690 -21.147 -20.285  0.00  0.00    -0.001 C 
ATOM      6  C   UNL     1      34.918 -20.236 -21.004  0.00  0.00    +0.021 C 
ENDROOT
BRANCH   1   7
ATOM      7  C   UNL     1      33.063 -22.803 -18.103  0.00  0.00    -0.050 C 
BRANCH   7   8
ATOM      8  N   UNL     1      33.867 -22.921 -16.886  0.00  0.00    +0.390 N 
ATOM      9  C   UNL     1      35.659 -24.263 -14.968  0.00  0.00    +0.033 C 
ATOM     10  C   UNL     1      36.148 -23.191 -15.959  0.00  0.00    -0.015 C 
ATOM     11  C   UNL     1      34.147 -24.101 -14.727  0.00  0.00    -0.015 C 
ATOM     12  C   UNL     1      33.356 -24.004 -16.036  0.00  0.00    -0.076 C 
ATOM     13  C   UNL     1      35.281 -23.130 -17.222  0.00  0.00    -0.076 C 
ATOM     14  C   UNL     1      36.442 -24.229 -13.672  0.00  0.00    -0.019 C 
ATOM     15  C   UNL     1      36.003 -25.672 -15.447  0.00  0.00    -0.023 C 
ATOM     16  C   UNL     1      37.107 -25.451 -13.490  0.00  0.00    -0.004 C 
ATOM     17  C   UNL     1      36.818 -26.329 -14.607  0.00  0.00    -0.005 C 
ATOM     18  C   UNL     1      36.558 -23.213 -12.737  0.00  0.00    -0.004 C 
ATOM     19  C   UNL     1      37.898 -25.682 -12.377  0.00  0.00    -0.000 C 
ATOM     20  C   UNL     1      37.354 -23.436 -11.610  0.00  0.00    -0.000 C 
ATOM     21  C   UNL     1      38.018 -24.660 -11.432  0.00  0.00    -0.000 C 
ATOM     22  H   UNL     1      33.796 -22.050 -16.360  0.00  0.00    -0.079 HD
ENDBRANCH   7   8
ENDBRANCH   1   7
BRANCH   6  23
ATOM     23  C   UNL     1      35.562 -19.342 -22.009  0.00  0.00    +0.232 C 
BRANCH  23  24
ATOM     24  O   UNL     1      35.993 -18.146 -21.370  0.00  0.00    -0.471 OA
BRANCH  24  25
ATOM     25  C   UNL     1      35.423 -16.977 -21.801  0.00  0.00    +0.139 C 
ATOM     26  C   UNL     1      34.265 -14.595 -22.678  0.00  0.00    -0.010 C 
ATOM     27  C   UNL     1      35.393 -16.675 -23.163  0.00  0.00    +0.037 C 
ATOM     28  C   UNL     1      34.874 -16.087 -20.878  0.00  0.00    +0.037 C 
ATOM     29  C   UNL     1      34.814 -15.484 -23.601  0.00  0.00    -0.000 C 
ATOM     30  C   UNL     1      34.296 -14.895 -21.316  0.00  0.00    -0.000 C 
BRANCH  26  31
ATOM     31  C   UNL     1      33.646 -13.321 -23.146  0.00  0.00    +0.097 C 
BRANCH  31  32
ATOM     32  C   UNL     1      33.559 -13.265 -24.631  0.00  0.00    -0.087 C 
ATOM     33  C   UNL     1      33.488 -13.237 -25.830  0.00  0.00    -0.090 C 
ATOM     34  C   UNL     1      33.404 -13.204 -27.289  0.00  0.00    +0.090 C 
ENDBRANCH  31  32
BRANCH  31  35
ATOM     35  C   UNL     1      32.244 -13.083 -22.522  0.00  0.00    +0.127 C 
BRANCH  35  37
ATOM     36  O   UNL     1      32.563 -10.670 -22.706  0.00  0.00    -0.250 OA
ATOM     37  C   UNL     1      31.885 -11.621 -22.341  0.00  0.00    +0.315 C 
BRANCH  37  38
ATOM     38  O   UNL     1      30.683 -11.480 -21.723  0.00  0.00    -0.480 OA
ATOM     39  H   UNL     1      29.902 -11.773 -22.146  0.00  0.00    +0.295 HD
ENDBRANCH  37  38
ENDBRANCH  35  37
ENDBRANCH  31  35
ENDBRANCH  26  31
ENDBRANCH  24  25
ENDBRANCH  23  24
ENDBRANCH   6  23
TORSDOF 10
ENDMDL
MODEL 8
REMARK VINA RESULT:     -13.4      4.967     13.872
REMARK  Name = 51049992
REMARK  10 active torsions:
REMARK  status: ('A' for Active; 'I' for Inactive)
REMARK    1  A    between atoms: C_1  and  C_7
REMARK    2  A    between atoms: C_6  and  C_23
REMARK    3  A    between atoms: C_7  and  N_8
REMARK    4  A    between atoms: C_23  and  O_24
REMARK    5  A    between atoms: O_24  and  C_25
REMARK    6  A    between atoms: C_26  and  C_31
REMARK    7  A    between atoms: C_31  and  C_32
REMARK    8  A    between atoms: C_31  and  C_35
REMARK    9  A    between atoms: C_35  and  C_37
REMARK   10  A    between atoms: C_37  and  O_38
REMARK                            x       y       z     vdW  Elec       q    Type
REMARK                         _______ _______ _______ _____ _____    ______ ____
ROOT
ATOM      1  C   UNL     1      33.912 -14.697 -23.435  0.00  0.00    -0.043 C 
ATOM      2  C   UNL     1      34.407 -15.796 -24.137  0.00  0.00    -0.007 C 
ATOM      3  C   UNL     1      34.002 -14.662 -22.043  0.00  0.00    -0.007 C 
ATOM      4  C   UNL     1      34.991 -16.859 -23.449  0.00  0.00    -0.001 C 
ATOM      5  C   UNL     1      34.586 -15.725 -21.354  0.00  0.00    -0.001 C 
ATOM      6  C   UNL     1      35.081 -16.823 -22.057  0.00  0.00    +0.021 C 
ENDROOT
BRANCH   1   7
ATOM      7  C   UNL     1      33.282 -13.550 -24.178  0.00  0.00    -0.050 C 
BRANCH   7   8
ATOM      8  N   UNL     1      33.204 -12.344 -23.354  0.00  0.00    +0.390 N 
ATOM      9  C   UNL     1      32.365  -9.600 -22.680  0.00  0.00    +0.033 C 
ATOM     10  C   UNL     1      31.720 -10.848 -22.052  0.00  0.00    -0.015 C 
ATOM     11  C   UNL     1      33.778  -9.941 -23.189  0.00  0.00    -0.015 C 
ATOM     12  C   UNL     1      33.793 -11.199 -24.062  0.00  0.00    -0.076 C 
ATOM     13  C   UNL     1      31.813 -12.074 -22.969  0.00  0.00    -0.076 C 
ATOM     14  C   UNL     1      32.381  -8.431 -21.717  0.00  0.00    -0.019 C 
ATOM     15  C   UNL     1      31.494  -9.014 -23.790  0.00  0.00    -0.023 C 
ATOM     16  C   UNL     1      31.625  -7.373 -22.245  0.00  0.00    -0.004 C 
ATOM     17  C   UNL     1      31.085  -7.762 -23.533  0.00  0.00    -0.005 C 
ATOM     18  C   UNL     1      33.006  -8.309 -20.486  0.00  0.00    -0.004 C 
ATOM     19  C   UNL     1      31.477  -6.180 -21.557  0.00  0.00    -0.000 C 
ATOM     20  C   UNL     1      32.864  -7.109 -19.785  0.00  0.00    -0.000 C 
ATOM     21  C   UNL     1      32.106  -6.053 -20.316  0.00  0.00    -0.000 C 
ATOM     22  H   UNL     1      33.741 -12.494 -22.501  0.00  0.00    -0.079 HD
ENDBRANCH   7   8
ENDBRANCH   1   7
BRANCH   6  23
ATOM     23  C   UNL     1      35.708 -17.958 -21.321  0.00  0.00    +0.232 C 
BRANCH  23  24
ATOM     24  O   UNL     1      35.198 -19.188 -21.824  0.00  0.00    -0.471 OA
BRANCH  24  25
ATOM     25  C   UNL     1      34.772 -20.104 -20.899  0.00  0.00    +0.139 C 
ATOM     26  C   UNL     1      33.906 -21.967 -19.012  0.00  0.00    -0.010 C 
ATOM     27  C   UNL     1      33.412 -20.236 -20.622  0.00  0.00    +0.037 C 
ATOM     28  C   UNL     1      35.700 -20.904 -20.231  0.00  0.00    +0.037 C 
ATOM     29  C   UNL     1      32.978 -21.168 -19.679  0.00  0.00    -0.000 C 
ATOM     30  C   UNL     1      35.267 -21.835 -19.288  0.00  0.00    -0.000 C 
BRANCH  26  31
ATOM     31  C   UNL     1      33.443 -22.964 -18.003  0.00  0.00    +0.097 C 
BRANCH  31  32
ATOM     32  C   UNL     1      34.418 -23.109 -16.887  0.00  0.00    -0.087 C 
ATOM     33  C   UNL     1      35.207 -23.209 -15.986  0.00  0.00    -0.090 C 
ATOM     34  C   UNL     1      36.168 -23.330 -14.892  0.00  0.00    +0.090 C 
ENDBRANCH  31  32
BRANCH  31  35
ATOM     35  C   UNL     1      32.037 -22.624 -17.439  0.00  0.00    +0.127 C 
BRANCH  35  37
ATOM     36  O   UNL     1      31.314 -24.533 -16.101  0.00  0.00    -0.250 OA
ATOM     37  C   UNL     1      31.683 -23.369 -16.167  0.00  0.00    +0.315 C 
BRANCH  37  38
ATOM     38  O   UNL     1      31.838 -22.577 -15.073  0.00  0.00    -0.480 OA
ATOM     39  H   UNL     1      31.098 -22.140 -14.702  0.00  0.00    +0.295 HD
ENDBRANCH  37  38
ENDBRANCH  35  37
ENDBRANCH  31  35
ENDBRANCH  26  31
ENDBRANCH  24  25
ENDBRANCH  23  24
ENDBRANCH   6  23
TORSDOF 10
ENDMDL
MODEL 9
REMARK VINA RESULT:     -13.1      1.964      2.954
REMARK  Name = 51049992
REMARK  10 active torsions:
REMARK  status: ('A' for Active; 'I' for Inactive)
REMARK    1  A    between atoms: C_1  and  C_7
REMARK    2  A    between atoms: C_6  and  C_23
REMARK    3  A    between atoms: C_7  and  N_8
REMARK    4  A    between atoms: C_23  and  O_24
REMARK    5  A    between atoms: O_24  and  C_25
REMARK    6  A    between atoms: C_26  and  C_31
REMARK    7  A    between atoms: C_31  and  C_32
REMARK    8  A    between atoms: C_31  and  C_35
REMARK    9  A    between atoms: C_35  and  C_37
REMARK   10  A    between atoms: C_37  and  O_38
REMARK                            x       y       z     vdW  Elec       q    Type
REMARK                         _______ _______ _______ _____ _____    ______ ____
ROOT
ATOM      1  C   UNL     1      34.521 -15.555 -24.407  0.00  0.00    -0.043 C 
ATOM      2  C   UNL     1      33.467 -14.978 -25.116  0.00  0.00    -0.007 C 
ATOM      3  C   UNL     1      35.011 -14.934 -23.258  0.00  0.00    -0.007 C 
ATOM      4  C   UNL     1      32.904 -13.780 -24.676  0.00  0.00    -0.001 C 
ATOM      5  C   UNL     1      34.449 -13.736 -22.818  0.00  0.00    -0.001 C 
ATOM      6  C   UNL     1      33.395 -13.159 -23.527  0.00  0.00    +0.021 C 
ENDROOT
BRANCH   1   7
ATOM      7  C   UNL     1      35.128 -16.848 -24.883  0.00  0.00    -0.050 C 
BRANCH   7   8
ATOM      8  N   UNL     1      35.430 -17.749 -23.770  0.00  0.00    +0.390 N 
ATOM      9  C   UNL     1      34.802 -19.633 -21.592  0.00  0.00    +0.033 C 
ATOM     10  C   UNL     1      35.358 -20.086 -22.954  0.00  0.00    -0.015 C 
ATOM     11  C   UNL     1      35.167 -18.159 -21.342  0.00  0.00    -0.015 C 
ATOM     12  C   UNL     1      34.809 -17.261 -22.531  0.00  0.00    -0.076 C 
ATOM     13  C   UNL     1      34.993 -19.116 -24.083  0.00  0.00    -0.076 C 
ATOM     14  C   UNL     1      35.274 -20.529 -20.466  0.00  0.00    -0.019 C 
ATOM     15  C   UNL     1      33.294 -19.863 -21.496  0.00  0.00    -0.023 C 
ATOM     16  C   UNL     1      34.170 -21.145 -19.858  0.00  0.00    -0.004 C 
ATOM     17  C   UNL     1      32.953 -20.715 -20.517  0.00  0.00    -0.005 C 
ATOM     18  C   UNL     1      36.561 -20.778 -20.017  0.00  0.00    -0.004 C 
ATOM     19  C   UNL     1      34.329 -22.019 -18.795  0.00  0.00    -0.000 C 
ATOM     20  C   UNL     1      36.732 -21.658 -18.945  0.00  0.00    -0.000 C 
ATOM     21  C   UNL     1      35.625 -22.273 -18.339  0.00  0.00    -0.000 C 
ATOM     22  H   UNL     1      36.439 -17.768 -23.628  0.00  0.00    -0.079 HD
ENDBRANCH   7   8
ENDBRANCH   1   7
BRANCH   6  23
ATOM     23  C   UNL     1      32.791 -11.880 -23.055  0.00  0.00    +0.232 C 
BRANCH  23  24
ATOM     24  O   UNL     1      33.187 -10.822 -23.920  0.00  0.00    -0.471 OA
BRANCH  24  25
ATOM     25  C   UNL     1      32.987  -9.546 -23.465  0.00  0.00    +0.139 C 
ATOM     26  C   UNL     1      32.579  -6.945 -22.543  0.00  0.00    -0.010 C 
ATOM     27  C   UNL     1      31.692  -9.084 -23.228  0.00  0.00    +0.037 C 
ATOM     28  C   UNL     1      34.078  -8.706 -23.242  0.00  0.00    +0.037 C 
ATOM     29  C   UNL     1      31.488  -7.784 -22.766  0.00  0.00    -0.000 C 
ATOM     30  C   UNL     1      33.874  -7.405 -22.781  0.00  0.00    -0.000 C 
BRANCH  26  31
ATOM     31  C   UNL     1      32.363  -5.554 -22.049  0.00  0.00    +0.097 C 
BRANCH  31  32
ATOM     32  C   UNL     1      31.833  -4.666 -23.121  0.00  0.00    -0.087 C 
ATOM     33  C   UNL     1      31.389  -3.950 -23.978  0.00  0.00    -0.090 C 
ATOM     34  C   UNL     1      30.849  -3.082 -25.022  0.00  0.00    +0.090 C 
ENDBRANCH  31  32
BRANCH  31  35
ATOM     35  C   UNL     1      31.428  -5.506 -20.810  0.00  0.00    +0.127 C 
BRANCH  35  37
ATOM     36  O   UNL     1      31.702  -7.198 -19.072  0.00  0.00    -0.250 OA
ATOM     37  C   UNL     1      32.024  -6.124 -19.559  0.00  0.00    +0.315 C 
BRANCH  37  38
ATOM     38  O   UNL     1      32.995  -5.332 -19.033  0.00  0.00    -0.480 OA
ATOM     39  H   UNL     1      33.635  -4.940 -19.592  0.00  0.00    +0.295 HD
ENDBRANCH  37  38
ENDBRANCH  35  37
ENDBRANCH  31  35
ENDBRANCH  26  31
ENDBRANCH  24  25
ENDBRANCH  23  24
ENDBRANCH   6  23
TORSDOF 10
ENDMDL
