MODEL 1
REMARK VINA RESULT:     -13.6      0.000      0.000
REMARK  Name = 10172943
REMARK  7 active torsions:
REMARK  status: ('A' for Active; 'I' for Inactive)
REMARK    1  A    between atoms: O_1  and  C_3
REMARK    2  A    between atoms: O_1  and  C_19
REMARK    3  A    between atoms: C_4  and  C_11
REMARK    4  A    between atoms: C_19  and  C_20
REMARK    5  A    between atoms: C_20  and  N_21
REMARK    6  A    between atoms: C_20  and  C_25
REMARK    7  A    between atoms: C_25  and  C_27
REMARK                            x       y       z     vdW  Elec       q    Type
REMARK                         _______ _______ _______ _____ _____    ______ ____
ROOT
ATOM      1  O   UNL     1      34.054 -13.904 -24.086  0.00  0.00    -0.476 OA
ENDROOT
BRANCH   1   3
ATOM      2  N   UNL     1      34.380 -17.060 -25.878  0.00  0.00    -0.239 NA
ATOM      3  C   UNL     1      34.311 -15.230 -24.320  0.00  0.00    +0.158 C 
ATOM      4  C   UNL     1      35.000 -17.391 -23.565  0.00  0.00    +0.022 C 
ATOM      5  C   UNL     1      34.745 -16.052 -23.296  0.00  0.00    +0.040 C 
ATOM      6  C   UNL     1      34.143 -15.763 -25.579  0.00  0.00    +0.136 C 
ATOM      7  C   UNL     1      34.803 -17.843 -24.860  0.00  0.00    +0.099 C 
BRANCH   4  11
ATOM      8  N   UNL     1      35.443 -21.347 -19.348  0.00  0.00    -0.280 N 
ATOM      9  N   UNL     1      36.674 -20.846 -19.574  0.00  0.00    -0.173 NA
ATOM     10  C   UNL     1      35.102 -19.911 -20.922  0.00  0.00    +0.032 A 
ATOM     11  C   UNL     1      35.456 -18.286 -22.526  0.00  0.00    +0.002 C 
ATOM     12  C   UNL     1      36.498 -19.943 -20.554  0.00  0.00    +0.102 A 
ATOM     13  C   UNL     1      34.506 -19.115 -21.892  0.00  0.00    +0.003 C 
ATOM     14  C   UNL     1      34.459 -20.820 -20.131  0.00  0.00    +0.053 A 
ATOM     15  C   UNL     1      36.852 -18.285 -22.194  0.00  0.00    +0.002 C 
ATOM     16  C   UNL     1      37.428 -19.108 -21.201  0.00  0.00    +0.021 C 
ATOM     17  C   UNL     1      33.056 -21.253 -20.019  0.00  0.00    +0.051 C 
ATOM     18  H   UNL     1      35.269 -22.039 -18.670  0.00  0.00    +0.189 HD
ENDBRANCH   4  11
ENDBRANCH   1   3
BRANCH   1  19
ATOM     19  C   UNL     1      32.958 -13.604 -23.232  0.00  0.00    +0.184 C 
BRANCH  19  20
ATOM     20  C   UNL     1      33.038 -12.175 -22.680  0.00  0.00    -0.017 C 
BRANCH  20  21
ATOM     21  N   UNL     1      33.427 -11.272 -23.770  0.00  0.00    +0.384 N 
ATOM     22  H   UNL     1      34.418 -11.045 -23.686  0.00  0.00    -0.089 HD
ATOM     23  H   UNL     1      32.875 -10.416 -23.715  0.00  0.00    -0.089 HD
ATOM     24  H   UNL     1      33.257 -11.729 -24.666  0.00  0.00    -0.089 HD
ENDBRANCH  20  21
BRANCH  20  25
ATOM     25  C   UNL     1      31.711 -11.677 -22.047  0.00  0.00    +0.009 C 
BRANCH  25  27
ATOM     26  N   UNL     1      32.174  -9.446 -19.195  0.00  0.00    -0.312 N 
ATOM     27  C   UNL     1      31.871 -10.567 -21.086  0.00  0.00    -0.008 C 
ATOM     28  C   UNL     1      31.839  -9.177 -21.384  0.00  0.00    +0.011 C 
ATOM     29  C   UNL     1      32.031  -8.495 -20.180  0.00  0.00    +0.048 C 
ATOM     30  C   UNL     1      32.078 -10.701 -19.732  0.00  0.00    +0.058 C 
ATOM     31  C   UNL     1      31.665  -8.430 -22.566  0.00  0.00    +0.001 C 
ATOM     32  C   UNL     1      32.058  -7.098 -20.099  0.00  0.00    +0.015 C 
ATOM     33  C   UNL     1      31.690  -7.032 -22.500  0.00  0.00    +0.000 C 
ATOM     34  C   UNL     1      31.884  -6.378 -21.285  0.00  0.00    +0.001 C 
ATOM     35  H   UNL     1      32.322  -9.250 -18.241  0.00  0.00    +0.152 HD
ENDBRANCH  25  27
ENDBRANCH  20  25
ENDBRANCH  19  20
ENDBRANCH   1  19
TORSDOF 7
ENDMDL
MODEL 2
REMARK VINA RESULT:     -13.3      1.592      9.404
REMARK  Name = 10172943
REMARK  7 active torsions:
REMARK  status: ('A' for Active; 'I' for Inactive)
REMARK    1  A    between atoms: O_1  and  C_3
REMARK    2  A    between atoms: O_1  and  C_19
REMARK    3  A    between atoms: C_4  and  C_11
REMARK    4  A    between atoms: C_19  and  C_20
REMARK    5  A    between atoms: C_20  and  N_21
REMARK    6  A    between atoms: C_20  and  C_25
REMARK    7  A    between atoms: C_25  and  C_27
REMARK                            x       y       z     vdW  Elec       q    Type
REMARK                         _______ _______ _______ _____ _____    ______ ____
ROOT
ATOM      1  O   UNL     1      33.759 -16.771 -25.656  0.00  0.00    -0.476 OA
ENDROOT
BRANCH   1   3
ATOM      2  N   UNL     1      33.643 -13.279 -26.690  0.00  0.00    -0.239 NA
ATOM      3  C   UNL     1      33.607 -15.411 -25.579  0.00  0.00    +0.158 C 
ATOM      4  C   UNL     1      33.127 -13.427 -24.333  0.00  0.00    +0.022 C 
ATOM      5  C   UNL     1      33.276 -14.808 -24.379  0.00  0.00    +0.040 C 
ATOM      6  C   UNL     1      33.779 -14.624 -26.697  0.00  0.00    +0.136 C 
ATOM      7  C   UNL     1      33.320 -12.713 -25.505  0.00  0.00    +0.099 C 
BRANCH   4  11
ATOM      8  N   UNL     1      31.753  -9.569 -20.227  0.00  0.00    -0.280 N 
ATOM      9  N   UNL     1      31.799 -10.786 -19.651  0.00  0.00    -0.173 NA
ATOM     10  C   UNL     1      32.270 -10.868 -21.872  0.00  0.00    +0.032 A 
ATOM     11  C   UNL     1      32.781 -12.757 -23.101  0.00  0.00    +0.002 C 
ATOM     12  C   UNL     1      32.120 -11.624 -20.651  0.00  0.00    +0.102 A 
ATOM     13  C   UNL     1      32.596 -11.357 -23.130  0.00  0.00    +0.003 C 
ATOM     14  C   UNL     1      32.028  -9.559 -21.563  0.00  0.00    +0.053 A 
ATOM     15  C   UNL     1      32.642 -13.548 -21.913  0.00  0.00    +0.002 C 
ATOM     16  C   UNL     1      32.309 -13.019 -20.646  0.00  0.00    +0.021 C 
ATOM     17  C   UNL     1      32.020  -8.317 -22.353  0.00  0.00    +0.051 C 
ATOM     18  H   UNL     1      31.538  -8.751 -19.724  0.00  0.00    +0.189 HD
ENDBRANCH   4  11
ENDBRANCH   1   3
BRANCH   1  19
ATOM     19  C   UNL     1      34.950 -17.316 -25.104  0.00  0.00    +0.184 C 
BRANCH  19  20
ATOM     20  C   UNL     1      34.657 -18.240 -23.915  0.00  0.00    -0.017 C 
BRANCH  20  21
ATOM     21  N   UNL     1      35.260 -19.552 -24.182  0.00  0.00    +0.384 N 
ATOM     22  H   UNL     1      35.682 -19.549 -25.111  0.00  0.00    -0.089 HD
ATOM     23  H   UNL     1      34.539 -20.272 -24.138  0.00  0.00    -0.089 HD
ATOM     24  H   UNL     1      35.976 -19.745 -23.483  0.00  0.00    -0.089 HD
ENDBRANCH  20  21
BRANCH  20  25
ATOM     25  C   UNL     1      35.185 -17.697 -22.561  0.00  0.00    +0.009 C 
BRANCH  25  27
ATOM     26  N   UNL     1      37.099 -19.965 -20.433  0.00  0.00    -0.312 N 
ATOM     27  C   UNL     1      35.707 -18.735 -21.648  0.00  0.00    -0.008 C 
ATOM     28  C   UNL     1      34.950 -19.740 -20.985  0.00  0.00    +0.011 C 
ATOM     29  C   UNL     1      35.847 -20.498 -20.229  0.00  0.00    +0.048 C 
ATOM     30  C   UNL     1      37.026 -18.899 -21.290  0.00  0.00    +0.058 C 
ATOM     31  C   UNL     1      33.582 -20.078 -20.953  0.00  0.00    +0.001 C 
ATOM     32  C   UNL     1      35.443 -21.581 -19.440  0.00  0.00    +0.015 C 
ATOM     33  C   UNL     1      33.164 -21.159 -20.169  0.00  0.00    +0.000 C 
ATOM     34  C   UNL     1      34.082 -21.898 -19.425  0.00  0.00    +0.001 C 
ATOM     35  H   UNL     1      37.929 -20.302 -20.024  0.00  0.00    +0.152 HD
ENDBRANCH  25  27
ENDBRANCH  20  25
ENDBRANCH  19  20
ENDBRANCH   1  19
TORSDOF 7
ENDMDL
MODEL 3
REMARK VINA RESULT:     -13.2      1.637      1.989
REMARK  Name = 10172943
REMARK  7 active torsions:
REMARK  status: ('A' for Active; 'I' for Inactive)
REMARK    1  A    between atoms: O_1  and  C_3
REMARK    2  A    between atoms: O_1  and  C_19
REMARK    3  A    between atoms: C_4  and  C_11
REMARK    4  A    between atoms: C_19  and  C_20
REMARK    5  A    between atoms: C_20  and  N_21
REMARK    6  A    between atoms: C_20  and  C_25
REMARK    7  A    between atoms: C_25  and  C_27
REMARK                            x       y       z     vdW  Elec       q    Type
REMARK                         _______ _______ _______ _____ _____    ______ ____
ROOT
ATOM      1  O   UNL     1      34.165 -13.853 -23.979  0.00  0.00    -0.476 OA
ENDROOT
BRANCH   1   3
ATOM      2  N   UNL     1      34.451 -16.974 -25.839  0.00  0.00    -0.239 NA
ATOM      3  C   UNL     1      34.401 -15.178 -24.240  0.00  0.00    +0.158 C 
ATOM      4  C   UNL     1      35.043 -17.369 -23.528  0.00  0.00    +0.022 C 
ATOM      5  C   UNL     1      34.811 -16.031 -23.232  0.00  0.00    +0.040 C 
ATOM      6  C   UNL     1      34.235 -15.680 -25.513  0.00  0.00    +0.136 C 
ATOM      7  C   UNL     1      34.850 -17.788 -24.835  0.00  0.00    +0.099 C 
BRANCH   4  11
ATOM      8  N   UNL     1      35.374 -21.422 -19.394  0.00  0.00    -0.280 N 
ATOM      9  N   UNL     1      36.617 -20.941 -19.600  0.00  0.00    -0.173 NA
ATOM     10  C   UNL     1      35.075 -19.946 -20.939  0.00  0.00    +0.032 A 
ATOM     11  C   UNL     1      35.473 -18.294 -22.505  0.00  0.00    +0.002 C 
ATOM     12  C   UNL     1      36.467 -20.014 -20.562  0.00  0.00    +0.102 A 
ATOM     13  C   UNL     1      34.502 -19.118 -21.896  0.00  0.00    +0.003 C 
ATOM     14  C   UNL     1      34.407 -20.859 -20.173  0.00  0.00    +0.053 A 
ATOM     15  C   UNL     1      36.866 -18.328 -22.163  0.00  0.00    +0.002 C 
ATOM     16  C   UNL     1      37.418 -19.184 -21.183  0.00  0.00    +0.021 C 
ATOM     17  C   UNL     1      32.995 -21.266 -20.081  0.00  0.00    +0.051 C 
ATOM     18  H   UNL     1      35.181 -22.125 -18.732  0.00  0.00    +0.189 HD
ENDBRANCH   4  11
ENDBRANCH   1   3
BRANCH   1  19
ATOM     19  C   UNL     1      32.840 -13.384 -24.188  0.00  0.00    +0.184 C 
BRANCH  19  20
ATOM     20  C   UNL     1      32.321 -12.585 -22.986  0.00  0.00    -0.017 C 
BRANCH  20  21
ATOM     21  N   UNL     1      32.193 -13.492 -21.839  0.00  0.00    +0.384 N 
ATOM     22  H   UNL     1      31.751 -14.361 -22.142  0.00  0.00    -0.089 HD
ATOM     23  H   UNL     1      31.621 -13.051 -21.120  0.00  0.00    -0.089 HD
ATOM     24  H   UNL     1      33.118 -13.694 -21.461  0.00  0.00    -0.089 HD
ENDBRANCH  20  21
BRANCH  20  25
ATOM     25  C   UNL     1      33.230 -11.388 -22.597  0.00  0.00    +0.009 C 
BRANCH  25  27
ATOM     26  N   UNL     1      31.196  -8.404 -23.135  0.00  0.00    -0.312 N 
ATOM     27  C   UNL     1      32.653 -10.061 -22.891  0.00  0.00    -0.008 C 
ATOM     28  C   UNL     1      33.357  -8.914 -23.352  0.00  0.00    +0.011 C 
ATOM     29  C   UNL     1      32.420  -7.888 -23.497  0.00  0.00    +0.048 C 
ATOM     30  C   UNL     1      31.326  -9.717 -22.768  0.00  0.00    +0.058 C 
ATOM     31  C   UNL     1      34.706  -8.648 -23.661  0.00  0.00    +0.001 C 
ATOM     32  C   UNL     1      32.766  -6.605 -23.936  0.00  0.00    +0.015 C 
ATOM     33  C   UNL     1      35.067  -7.370 -24.101  0.00  0.00    +0.000 C 
ATOM     34  C   UNL     1      34.110  -6.365 -24.236  0.00  0.00    +0.001 C 
ATOM     35  H   UNL     1      30.350  -7.902 -23.140  0.00  0.00    +0.152 HD
ENDBRANCH  25  27
ENDBRANCH  20  25
ENDBRANCH  19  20
ENDBRANCH   1  19
TORSDOF 7
ENDMDL
MODEL 4
REMARK VINA RESULT:     -13.2      2.050     10.077
REMARK  Name = 10172943
REMARK  7 active torsions:
REMARK  status: ('A' for Active; 'I' for Inactive)
REMARK    1  A    between atoms: O_1  and  C_3
REMARK    2  A    between atoms: O_1  and  C_19
REMARK    3  A    between atoms: C_4  and  C_11
REMARK    4  A    between atoms: C_19  and  C_20
REMARK    5  A    between atoms: C_20  and  N_21
REMARK    6  A    between atoms: C_20  and  C_25
REMARK    7  A    between atoms: C_25  and  C_27
REMARK                            x       y       z     vdW  Elec       q    Type
REMARK                         _______ _______ _______ _____ _____    ______ ____
ROOT
ATOM      1  O   UNL     1      35.903 -17.910 -23.602  0.00  0.00    -0.476 OA
ENDROOT
BRANCH   1   3
ATOM      2  N   UNL     1      34.119 -15.804 -25.981  0.00  0.00    -0.239 NA
ATOM      3  C   UNL     1      35.129 -16.888 -24.087  0.00  0.00    +0.158 C 
ATOM      4  C   UNL     1      33.807 -14.924 -23.750  0.00  0.00    +0.022 C 
ATOM      5  C   UNL     1      34.589 -15.947 -23.229  0.00  0.00    +0.040 C 
ATOM      6  C   UNL     1      34.874 -16.784 -25.437  0.00  0.00    +0.136 C 
ATOM      7  C   UNL     1      33.604 -14.895 -25.121  0.00  0.00    +0.099 C 
BRANCH   4  11
ATOM      8  N   UNL     1      31.737 -10.035 -21.416  0.00  0.00    -0.280 N 
ATOM      9  N   UNL     1      31.581 -11.023 -20.512  0.00  0.00    -0.173 NA
ATOM     10  C   UNL     1      32.547 -11.759 -22.431  0.00  0.00    +0.032 A 
ATOM     11  C   UNL     1      33.223 -13.921 -22.891  0.00  0.00    +0.002 C 
ATOM     12  C   UNL     1      32.077 -12.117 -21.114  0.00  0.00    +0.102 A 
ATOM     13  C   UNL     1      33.129 -12.597 -23.374  0.00  0.00    +0.003 C 
ATOM     14  C   UNL     1      32.314 -10.422 -22.589  0.00  0.00    +0.053 A 
ATOM     15  C   UNL     1      32.769 -14.321 -21.590  0.00  0.00    +0.002 C 
ATOM     16  C   UNL     1      32.181 -13.443 -20.653  0.00  0.00    +0.021 C 
ATOM     17  C   UNL     1      32.559  -9.474 -23.689  0.00  0.00    +0.051 C 
ATOM     18  H   UNL     1      31.457  -9.108 -21.242  0.00  0.00    +0.189 HD
ENDBRANCH   4  11
ENDBRANCH   1   3
BRANCH   1  19
ATOM     19  C   UNL     1      35.220 -19.069 -23.142  0.00  0.00    +0.184 C 
BRANCH  19  20
ATOM     20  C   UNL     1      35.656 -19.464 -21.725  0.00  0.00    -0.017 C 
BRANCH  20  21
ATOM     21  N   UNL     1      35.737 -18.250 -20.904  0.00  0.00    +0.384 N 
ATOM     22  H   UNL     1      36.704 -17.927 -20.870  0.00  0.00    -0.089 HD
ATOM     23  H   UNL     1      35.413 -18.457 -19.959  0.00  0.00    -0.089 HD
ATOM     24  H   UNL     1      35.149 -17.524 -21.313  0.00  0.00    -0.089 HD
ENDBRANCH  20  21
BRANCH  20  25
ATOM     25  C   UNL     1      34.705 -20.484 -21.044  0.00  0.00    +0.009 C 
BRANCH  25  27
ATOM     26  N   UNL     1      36.716 -21.858 -18.324  0.00  0.00    -0.312 N 
ATOM     27  C   UNL     1      35.271 -21.145 -19.850  0.00  0.00    -0.008 C 
ATOM     28  C   UNL     1      34.556 -21.899 -18.880  0.00  0.00    +0.011 C 
ATOM     29  C   UNL     1      35.485 -22.336 -17.933  0.00  0.00    +0.048 C 
ATOM     30  C   UNL     1      36.597 -21.138 -19.482  0.00  0.00    +0.058 C 
ATOM     31  C   UNL     1      33.202 -22.253 -18.714  0.00  0.00    +0.001 C 
ATOM     32  C   UNL     1      35.126 -23.112 -16.824  0.00  0.00    +0.015 C 
ATOM     33  C   UNL     1      32.829 -23.029 -17.610  0.00  0.00    +0.000 C 
ATOM     34  C   UNL     1      33.778 -23.450 -16.681  0.00  0.00    +0.001 C 
ATOM     35  H   UNL     1      37.559 -22.014 -17.841  0.00  0.00    +0.152 HD
ENDBRANCH  25  27
ENDBRANCH  20  25
ENDBRANCH  19  20
ENDBRANCH   1  19
TORSDOF 7
ENDMDL
MODEL 5
REMARK VINA RESULT:     -13.1      4.668     11.387
REMARK  Name = 10172943
REMARK  7 active torsions:
REMARK  status: ('A' for Active; 'I' for Inactive)
REMARK    1  A    between atoms: O_1  and  C_3
REMARK    2  A    between atoms: O_1  and  C_19
REMARK    3  A    between atoms: C_4  and  C_11
REMARK    4  A    between atoms: C_19  and  C_20
REMARK    5  A    between atoms: C_20  and  N_21
REMARK    6  A    between atoms: C_20  and  C_25
REMARK    7  A    between atoms: C_25  and  C_27
REMARK                            x       y       z     vdW  Elec       q    Type
REMARK                         _______ _______ _______ _____ _____    ______ ____
ROOT
ATOM      1  O   UNL     1      36.525 -22.381 -18.784  0.00  0.00    -0.476 OA
ENDROOT
BRANCH   1   3
ATOM      2  N   UNL     1      33.064 -21.633 -19.645  0.00  0.00    -0.239 NA
ATOM      3  C   UNL     1      35.451 -21.779 -19.386  0.00  0.00    +0.158 C 
ATOM      4  C   UNL     1      34.528 -20.164 -20.889  0.00  0.00    +0.022 C 
ATOM      5  C   UNL     1      35.637 -20.756 -20.297  0.00  0.00    +0.040 C 
ATOM      6  C   UNL     1      34.167 -22.184 -19.090  0.00  0.00    +0.136 C 
ATOM      7  C   UNL     1      33.274 -20.635 -20.534  0.00  0.00    +0.099 C 
BRANCH   4  11
ATOM      8  N   UNL     1      34.969 -15.037 -23.561  0.00  0.00    -0.280 N 
ATOM      9  N   UNL     1      35.092 -16.001 -24.495  0.00  0.00    -0.173 NA
ATOM     10  C   UNL     1      34.784 -16.855 -22.413  0.00  0.00    +0.032 A 
ATOM     11  C   UNL     1      34.677 -19.092 -21.845  0.00  0.00    +0.002 C 
ATOM     12  C   UNL     1      34.981 -17.152 -23.812  0.00  0.00    +0.102 A 
ATOM     13  C   UNL     1      34.625 -17.762 -21.374  0.00  0.00    +0.003 C 
ATOM     14  C   UNL     1      34.782 -15.494 -22.290  0.00  0.00    +0.053 A 
ATOM     15  C   UNL     1      34.871 -19.434 -23.225  0.00  0.00    +0.002 C 
ATOM     16  C   UNL     1      35.030 -18.486 -24.259  0.00  0.00    +0.021 C 
ATOM     17  C   UNL     1      34.630 -14.580 -21.146  0.00  0.00    +0.051 C 
ATOM     18  H   UNL     1      35.011 -14.078 -23.780  0.00  0.00    +0.189 HD
ENDBRANCH   4  11
ENDBRANCH   1   3
BRANCH   1  19
ATOM     19  C   UNL     1      36.833 -21.966 -17.460  0.00  0.00    +0.184 C 
BRANCH  19  20
ATOM     20  C   UNL     1      36.359 -22.987 -16.417  0.00  0.00    -0.017 C 
BRANCH  20  21
ATOM     21  N   UNL     1      37.536 -23.546 -15.740  0.00  0.00    +0.384 N 
ATOM     22  H   UNL     1      37.323 -24.489 -15.414  0.00  0.00    -0.089 HD
ATOM     23  H   UNL     1      37.781 -22.957 -14.944  0.00  0.00    -0.089 HD
ATOM     24  H   UNL     1      38.319 -23.580 -16.392  0.00  0.00    -0.089 HD
ENDBRANCH  20  21
BRANCH  20  25
ATOM     25  C   UNL     1      35.391 -22.392 -15.360  0.00  0.00    +0.009 C 
BRANCH  25  27
ATOM     26  N   UNL     1      33.700 -24.991 -13.433  0.00  0.00    -0.312 N 
ATOM     27  C   UNL     1      34.482 -23.378 -14.741  0.00  0.00    -0.008 C 
ATOM     28  C   UNL     1      33.119 -23.605 -15.081  0.00  0.00    +0.011 C 
ATOM     29  C   UNL     1      32.652 -24.622 -14.246  0.00  0.00    +0.048 C 
ATOM     30  C   UNL     1      34.811 -24.246 -13.725  0.00  0.00    +0.058 C 
ATOM     31  C   UNL     1      32.235 -23.040 -16.021  0.00  0.00    +0.001 C 
ATOM     32  C   UNL     1      31.340 -25.105 -14.304  0.00  0.00    +0.015 C 
ATOM     33  C   UNL     1      30.919 -23.513 -16.092  0.00  0.00    +0.000 C 
ATOM     34  C   UNL     1      30.481 -24.529 -15.245  0.00  0.00    +0.001 C 
ATOM     35  H   UNL     1      33.657 -25.692 -12.742  0.00  0.00    +0.152 HD
ENDBRANCH  25  27
ENDBRANCH  20  25
ENDBRANCH  19  20
ENDBRANCH   1  19
TORSDOF 7
ENDMDL
MODEL 6
REMARK VINA RESULT:     -13.1      4.615     11.909
REMARK  Name = 10172943
REMARK  7 active torsions:
REMARK  status: ('A' for Active; 'I' for Inactive)
REMARK    1  A    between atoms: O_1  and  C_3
REMARK    2  A    between atoms: O_1  and  C_19
REMARK    3  A    between atoms: C_4  and  C_11
REMARK    4  A    between atoms: C_19  and  C_20
REMARK    5  A    between atoms: C_20  and  N_21
REMARK    6  A    between atoms: C_20  and  C_25
REMARK    7  A    between atoms: C_25  and  C_27
REMARK                            x       y       z     vdW  Elec       q    Type
REMARK                         _______ _______ _______ _____ _____    ______ ____
ROOT
ATOM      1  O   UNL     1      33.103 -22.394 -19.006  0.00  0.00    -0.476 OA
ENDROOT
BRANCH   1   3
ATOM      2  N   UNL     1      36.577 -21.412 -19.500  0.00  0.00    -0.239 NA
ATOM      3  C   UNL     1      34.192 -21.719 -19.492  0.00  0.00    +0.158 C 
ATOM      4  C   UNL     1      35.158 -20.045 -20.900  0.00  0.00    +0.022 C 
ATOM      5  C   UNL     1      34.034 -20.710 -20.424  0.00  0.00    +0.040 C 
ATOM      6  C   UNL     1      35.462 -22.037 -19.061  0.00  0.00    +0.136 C 
ATOM      7  C   UNL     1      36.396 -20.429 -20.411  0.00  0.00    +0.099 C 
BRANCH   4  11
ATOM      8  N   UNL     1      34.634 -14.961 -23.642  0.00  0.00    -0.280 N 
ATOM      9  N   UNL     1      34.699 -15.930 -24.577  0.00  0.00    -0.173 NA
ATOM     10  C   UNL     1      34.824 -16.762 -22.467  0.00  0.00    +0.032 A 
ATOM     11  C   UNL     1      35.039 -18.985 -21.875  0.00  0.00    +0.002 C 
ATOM     12  C   UNL     1      34.818 -17.071 -23.877  0.00  0.00    +0.102 A 
ATOM     13  C   UNL     1      34.930 -17.656 -21.410  0.00  0.00    +0.003 C 
ATOM     14  C   UNL     1      34.705 -15.405 -22.354  0.00  0.00    +0.053 A 
ATOM     15  C   UNL     1      35.038 -19.338 -23.265  0.00  0.00    +0.002 C 
ATOM     16  C   UNL     1      34.928 -18.403 -24.318  0.00  0.00    +0.021 C 
ATOM     17  C   UNL     1      34.651 -14.485 -21.207  0.00  0.00    +0.051 C 
ATOM     18  H   UNL     1      34.542 -14.008 -23.871  0.00  0.00    +0.189 HD
ENDBRANCH   4  11
ENDBRANCH   1   3
BRANCH   1  19
ATOM     19  C   UNL     1      33.362 -23.468 -18.112  0.00  0.00    +0.184 C 
BRANCH  19  20
ATOM     20  C   UNL     1      33.094 -23.073 -16.653  0.00  0.00    -0.017 C 
BRANCH  20  21
ATOM     21  N   UNL     1      31.644 -23.080 -16.424  0.00  0.00    +0.384 N 
ATOM     22  H   UNL     1      31.267 -23.998 -16.663  0.00  0.00    -0.089 HD
ATOM     23  H   UNL     1      31.205 -22.368 -17.007  0.00  0.00    -0.089 HD
ATOM     24  H   UNL     1      31.455 -22.880 -15.442  0.00  0.00    -0.089 HD
ENDBRANCH  20  21
BRANCH  20  25
ATOM     25  C   UNL     1      33.783 -24.005 -15.621  0.00  0.00    +0.009 C 
BRANCH  25  27
ATOM     26  N   UNL     1      37.192 -22.737 -15.299  0.00  0.00    -0.312 N 
ATOM     27  C   UNL     1      35.231 -23.765 -15.451  0.00  0.00    -0.008 C 
ATOM     28  C   UNL     1      36.231 -24.748 -15.210  0.00  0.00    +0.011 C 
ATOM     29  C   UNL     1      37.452 -24.077 -15.119  0.00  0.00    +0.048 C 
ATOM     30  C   UNL     1      35.853 -22.538 -15.501  0.00  0.00    +0.058 C 
ATOM     31  C   UNL     1      36.214 -26.148 -15.060  0.00  0.00    +0.001 C 
ATOM     32  C   UNL     1      38.662 -24.739 -14.883  0.00  0.00    +0.015 C 
ATOM     33  C   UNL     1      37.417 -26.825 -14.824  0.00  0.00    +0.000 C 
ATOM     34  C   UNL     1      38.621 -26.129 -14.737  0.00  0.00    +0.001 C 
ATOM     35  H   UNL     1      37.872 -22.025 -15.285  0.00  0.00    +0.152 HD
ENDBRANCH  25  27
ENDBRANCH  20  25
ENDBRANCH  19  20
ENDBRANCH   1  19
TORSDOF 7
ENDMDL
MODEL 7
REMARK VINA RESULT:     -13.0      2.430      4.826
REMARK  Name = 10172943
REMARK  7 active torsions:
REMARK  status: ('A' for Active; 'I' for Inactive)
REMARK    1  A    between atoms: O_1  and  C_3
REMARK    2  A    between atoms: O_1  and  C_19
REMARK    3  A    between atoms: C_4  and  C_11
REMARK    4  A    between atoms: C_19  and  C_20
REMARK    5  A    between atoms: C_20  and  N_21
REMARK    6  A    between atoms: C_20  and  C_25
REMARK    7  A    between atoms: C_25  and  C_27
REMARK                            x       y       z     vdW  Elec       q    Type
REMARK                         _______ _______ _______ _____ _____    ______ ____
ROOT
ATOM      1  O   UNL     1      34.488 -18.368 -23.873  0.00  0.00    -0.476 OA
ENDROOT
BRANCH   1   3
ATOM      2  N   UNL     1      37.520 -18.691 -21.879  0.00  0.00    -0.239 NA
ATOM      3  C   UNL     1      35.334 -18.778 -22.876  0.00  0.00    +0.158 C 
ATOM      4  C   UNL     1      35.775 -20.045 -20.897  0.00  0.00    +0.022 C 
ATOM      5  C   UNL     1      34.894 -19.649 -21.896  0.00  0.00    +0.040 C 
ATOM      6  C   UNL     1      36.635 -18.328 -22.834  0.00  0.00    +0.136 C 
ATOM      7  C   UNL     1      37.066 -19.544 -20.933  0.00  0.00    +0.099 C 
BRANCH   4  11
ATOM      8  N   UNL     1      35.447 -23.496 -16.247  0.00  0.00    -0.280 N 
ATOM      9  N   UNL     1      34.248 -23.518 -16.863  0.00  0.00    -0.173 NA
ATOM     10  C   UNL     1      35.740 -22.179 -17.932  0.00  0.00    +0.032 A 
ATOM     11  C   UNL     1      35.358 -20.952 -19.853  0.00  0.00    +0.002 C 
ATOM     12  C   UNL     1      34.395 -22.704 -17.922  0.00  0.00    +0.102 A 
ATOM     13  C   UNL     1      36.295 -21.304 -18.857  0.00  0.00    +0.003 C 
ATOM     14  C   UNL     1      36.383 -22.706 -16.848  0.00  0.00    +0.053 A 
ATOM     15  C   UNL     1      34.012 -21.449 -19.882  0.00  0.00    +0.002 C 
ATOM     16  C   UNL     1      33.478 -22.339 -18.925  0.00  0.00    +0.021 C 
ATOM     17  C   UNL     1      37.746 -22.564 -16.310  0.00  0.00    +0.051 C 
ATOM     18  H   UNL     1      35.633 -24.010 -15.429  0.00  0.00    +0.189 HD
ENDBRANCH   4  11
ENDBRANCH   1   3
BRANCH   1  19
ATOM     19  C   UNL     1      35.064 -17.620 -24.936  0.00  0.00    +0.184 C 
BRANCH  19  20
ATOM     20  C   UNL     1      34.449 -16.219 -25.047  0.00  0.00    -0.017 C 
BRANCH  20  21
ATOM     21  N   UNL     1      33.224 -16.306 -25.850  0.00  0.00    +0.384 N 
ATOM     22  H   UNL     1      32.454 -16.626 -25.262  0.00  0.00    -0.089 HD
ATOM     23  H   UNL     1      33.366 -16.967 -26.615  0.00  0.00    -0.089 HD
ATOM     24  H   UNL     1      33.002 -15.387 -26.232  0.00  0.00    -0.089 HD
ENDBRANCH  20  21
BRANCH  20  25
ATOM     25  C   UNL     1      34.119 -15.575 -23.674  0.00  0.00    +0.009 C 
BRANCH  25  27
ATOM     26  N   UNL     1      33.708 -12.027 -24.434  0.00  0.00    -0.312 N 
ATOM     27  C   UNL     1      33.814 -14.130 -23.734  0.00  0.00    -0.008 C 
ATOM     28  C   UNL     1      33.104 -13.373 -22.761  0.00  0.00    +0.011 C 
ATOM     29  C   UNL     1      33.051 -12.057 -23.225  0.00  0.00    +0.048 C 
ATOM     30  C   UNL     1      34.174 -13.275 -24.750  0.00  0.00    +0.058 C 
ATOM     31  C   UNL     1      32.497 -13.682 -21.528  0.00  0.00    +0.001 C 
ATOM     32  C   UNL     1      32.420 -11.030 -22.513  0.00  0.00    +0.015 C 
ATOM     33  C   UNL     1      31.862 -12.665 -20.805  0.00  0.00    +0.000 C 
ATOM     34  C   UNL     1      31.825 -11.360 -21.293  0.00  0.00    +0.001 C 
ATOM     35  H   UNL     1      33.827 -11.224 -24.991  0.00  0.00    +0.152 HD
ENDBRANCH  25  27
ENDBRANCH  20  25
ENDBRANCH  19  20
ENDBRANCH   1  19
TORSDOF 7
ENDMDL
MODEL 8
REMARK VINA RESULT:     -12.9      2.798     10.965
REMARK  Name = 10172943
REMARK  7 active torsions:
REMARK  status: ('A' for Active; 'I' for Inactive)
REMARK    1  A    between atoms: O_1  and  C_3
REMARK    2  A    between atoms: O_1  and  C_19
REMARK    3  A    between atoms: C_4  and  C_11
REMARK    4  A    between atoms: C_19  and  C_20
REMARK    5  A    between atoms: C_20  and  N_21
REMARK    6  A    between atoms: C_20  and  C_25
REMARK    7  A    between atoms: C_25  and  C_27
REMARK                            x       y       z     vdW  Elec       q    Type
REMARK                         _______ _______ _______ _____ _____    ______ ____
ROOT
ATOM      1  O   UNL     1      31.460 -11.885 -21.316  0.00  0.00    -0.476 OA
ENDROOT
BRANCH   1   3
ATOM      2  N   UNL     1      32.294  -8.845 -19.488  0.00  0.00    -0.239 NA
ATOM      3  C   UNL     1      31.884 -10.604 -21.076  0.00  0.00    +0.158 C 
ATOM      4  C   UNL     1      32.743  -8.507 -21.840  0.00  0.00    +0.022 C 
ATOM      5  C   UNL     1      32.316  -9.801 -22.115  0.00  0.00    +0.040 C 
ATOM      6  C   UNL     1      31.888 -10.098 -19.794  0.00  0.00    +0.136 C 
ATOM      7  C   UNL     1      32.712  -8.080 -20.522  0.00  0.00    +0.099 C 
BRANCH   4  11
ATOM      8  N   UNL     1      33.319  -4.372 -25.865  0.00  0.00    -0.280 N 
ATOM      9  N   UNL     1      34.440  -5.120 -25.878  0.00  0.00    -0.173 NA
ATOM     10  C   UNL     1      32.943  -5.842 -24.330  0.00  0.00    +0.032 A 
ATOM     11  C   UNL     1      33.203  -7.634 -22.894  0.00  0.00    +0.002 C 
ATOM     12  C   UNL     1      34.240  -6.050 -24.929  0.00  0.00    +0.102 A 
ATOM     13  C   UNL     1      32.355  -6.586 -23.314  0.00  0.00    +0.003 C 
ATOM     14  C   UNL     1      32.383  -4.762 -24.952  0.00  0.00    +0.053 A 
ATOM     15  C   UNL     1      34.499  -7.878 -23.460  0.00  0.00    +0.002 C 
ATOM     16  C   UNL     1      35.068  -7.102 -24.494  0.00  0.00    +0.021 C 
ATOM     17  C   UNL     1      31.099  -4.058 -24.800  0.00  0.00    +0.051 C 
ATOM     18  H   UNL     1      33.186  -3.605 -26.467  0.00  0.00    +0.189 HD
ENDBRANCH   4  11
ENDBRANCH   1   3
BRANCH   1  19
ATOM     19  C   UNL     1      32.336 -12.934 -20.926  0.00  0.00    +0.184 C 
BRANCH  19  20
ATOM     20  C   UNL     1      32.629 -13.893 -22.087  0.00  0.00    -0.017 C 
BRANCH  20  21
ATOM     21  N   UNL     1      32.044 -13.339 -23.314  0.00  0.00    +0.384 N 
ATOM     22  H   UNL     1      31.882 -12.339 -23.190  0.00  0.00    -0.089 HD
ATOM     23  H   UNL     1      31.159 -13.806 -23.509  0.00  0.00    -0.089 HD
ATOM     24  H   UNL     1      32.686 -13.486 -24.092  0.00  0.00    -0.089 HD
ENDBRANCH  20  21
BRANCH  20  25
ATOM     25  C   UNL     1      34.143 -14.153 -22.311  0.00  0.00    +0.009 C 
BRANCH  25  27
ATOM     26  N   UNL     1      35.239 -17.410 -21.075  0.00  0.00    -0.312 N 
ATOM     27  C   UNL     1      34.564 -15.551 -22.082  0.00  0.00    -0.008 C 
ATOM     28  C   UNL     1      34.684 -16.571 -23.066  0.00  0.00    +0.011 C 
ATOM     29  C   UNL     1      35.109 -17.727 -22.408  0.00  0.00    +0.048 C 
ATOM     30  C   UNL     1      34.912 -16.096 -20.867  0.00  0.00    +0.058 C 
ATOM     31  C   UNL     1      34.470 -16.623 -24.458  0.00  0.00    +0.001 C 
ATOM     32  C   UNL     1      35.332 -18.938 -23.075  0.00  0.00    +0.015 C 
ATOM     33  C   UNL     1      34.689 -17.826 -25.138  0.00  0.00    +0.000 C 
ATOM     34  C   UNL     1      35.113 -18.965 -24.455  0.00  0.00    +0.001 C 
ATOM     35  H   UNL     1      35.526 -18.036 -20.372  0.00  0.00    +0.152 HD
ENDBRANCH  25  27
ENDBRANCH  20  25
ENDBRANCH  19  20
ENDBRANCH   1  19
TORSDOF 7
ENDMDL
MODEL 9
REMARK VINA RESULT:     -12.9      4.171     11.201
REMARK  Name = 10172943
REMARK  7 active torsions:
REMARK  status: ('A' for Active; 'I' for Inactive)
REMARK    1  A    between atoms: O_1  and  C_3
REMARK    2  A    between atoms: O_1  and  C_19
REMARK    3  A    between atoms: C_4  and  C_11
REMARK    4  A    between atoms: C_19  and  C_20
REMARK    5  A    between atoms: C_20  and  N_21
REMARK    6  A    between atoms: C_20  and  C_25
REMARK    7  A    between atoms: C_25  and  C_27
REMARK                            x       y       z     vdW  Elec       q    Type
REMARK                         _______ _______ _______ _____ _____    ______ ____
ROOT
ATOM      1  O   UNL     1      35.083 -21.813 -20.083  0.00  0.00    -0.476 OA
ENDROOT
BRANCH   1   3
ATOM      2  N   UNL     1      37.514 -19.113 -20.364  0.00  0.00    -0.239 NA
ATOM      3  C   UNL     1      35.693 -20.673 -20.539  0.00  0.00    +0.158 C 
ATOM      4  C   UNL     1      35.788 -18.804 -22.028  0.00  0.00    +0.022 C 
ATOM      5  C   UNL     1      35.146 -19.955 -21.587  0.00  0.00    +0.040 C 
ATOM      6  C   UNL     1      36.862 -20.226 -19.962  0.00  0.00    +0.136 C 
ATOM      7  C   UNL     1      36.959 -18.428 -21.389  0.00  0.00    +0.099 C 
BRANCH   4  11
ATOM      8  N   UNL     1      33.741 -14.601 -25.460  0.00  0.00    -0.280 N 
ATOM      9  N   UNL     1      33.737 -15.749 -26.166  0.00  0.00    -0.173 NA
ATOM     10  C   UNL     1      34.521 -16.041 -24.054  0.00  0.00    +0.032 A 
ATOM     11  C   UNL     1      35.252 -18.024 -23.120  0.00  0.00    +0.002 C 
ATOM     12  C   UNL     1      34.219 -16.672 -25.317  0.00  0.00    +0.102 A 
ATOM     13  C   UNL     1      35.036 -16.644 -22.914  0.00  0.00    +0.003 C 
ATOM     14  C   UNL     1      34.203 -14.719 -24.182  0.00  0.00    +0.053 A 
ATOM     15  C   UNL     1      34.968 -18.693 -24.357  0.00  0.00    +0.002 C 
ATOM     16  C   UNL     1      34.443 -18.050 -25.500  0.00  0.00    +0.021 C 
ATOM     17  C   UNL     1      34.277 -13.566 -23.269  0.00  0.00    +0.051 C 
ATOM     18  H   UNL     1      33.433 -13.745 -25.836  0.00  0.00    +0.189 HD
ENDBRANCH   4  11
ENDBRANCH   1   3
BRANCH   1  19
ATOM     19  C   UNL     1      33.845 -21.650 -19.405  0.00  0.00    +0.184 C 
BRANCH  19  20
ATOM     20  C   UNL     1      33.587 -22.787 -18.407  0.00  0.00    -0.017 C 
BRANCH  20  21
ATOM     21  N   UNL     1      33.653 -24.065 -19.125  0.00  0.00    +0.384 N 
ATOM     22  H   UNL     1      34.554 -24.509 -18.947  0.00  0.00    -0.089 HD
ATOM     23  H   UNL     1      33.547 -23.898 -20.126  0.00  0.00    -0.089 HD
ATOM     24  H   UNL     1      32.902 -24.675 -18.802  0.00  0.00    -0.089 HD
ENDBRANCH  20  21
BRANCH  20  25
ATOM     25  C   UNL     1      34.587 -22.811 -17.221  0.00  0.00    +0.009 C 
BRANCH  25  27
ATOM     26  N   UNL     1      34.193 -25.096 -14.400  0.00  0.00    -0.312 N 
ATOM     27  C   UNL     1      34.159 -23.643 -16.077  0.00  0.00    -0.008 C 
ATOM     28  C   UNL     1      32.861 -23.684 -15.498  0.00  0.00    +0.011 C 
ATOM     29  C   UNL     1      32.909 -24.603 -14.448  0.00  0.00    +0.048 C 
ATOM     30  C   UNL     1      34.957 -24.522 -15.381  0.00  0.00    +0.058 C 
ATOM     31  C   UNL     1      31.645 -23.025 -15.767  0.00  0.00    +0.001 C 
ATOM     32  C   UNL     1      31.797 -24.898 -13.650  0.00  0.00    +0.015 C 
ATOM     33  C   UNL     1      30.525 -23.309 -14.978  0.00  0.00    +0.000 C 
ATOM     34  C   UNL     1      30.602 -24.231 -13.936  0.00  0.00    +0.001 C 
ATOM     35  H   UNL     1      34.516 -25.765 -13.754  0.00  0.00    +0.152 HD
ENDBRANCH  25  27
ENDBRANCH  20  25
ENDBRANCH  19  20
ENDBRANCH   1  19
TORSDOF 7
ENDMDL
