MODEL 1
REMARK VINA RESULT:     -12.3      0.000      0.000
REMARK  Name = 11998575
REMARK  7 active torsions:
REMARK  status: ('A' for Active; 'I' for Inactive)
REMARK    1  A    between atoms: C_6  and  C_18
REMARK    2  A    between atoms: C_14  and  O_22
REMARK    3  A    between atoms: C_15  and  O_16
REMARK    4  A    between atoms: C_18  and  O_20
REMARK    5  A    between atoms: O_22  and  C_23
REMARK    6  A    between atoms: C_23  and  C_24
REMARK    7  A    between atoms: C_29  and  O_30
REMARK                            x       y       z     vdW  Elec       q    Type
REMARK                         _______ _______ _______ _____ _____    ______ ____
ROOT
ATOM      1  O   UNL     1      37.512 -22.098 -17.617  0.00  0.00    -0.421 OA
ATOM      2  O   UNL     1      38.679 -22.832 -15.801  0.00  0.00    -0.244 OA
ATOM      3  C   UNL     1      35.105 -23.005 -16.440  0.00  0.00    +0.009 A 
ATOM      4  C   UNL     1      35.087 -22.359 -17.759  0.00  0.00    +0.038 A 
ATOM      5  C   UNL     1      36.329 -23.168 -15.769  0.00  0.00    +0.076 A 
ATOM      6  C   UNL     1      35.228 -24.239 -13.895  0.00  0.00    +0.004 C 
ATOM      7  C   UNL     1      36.294 -21.924 -18.310  0.00  0.00    +0.152 A 
ATOM      8  C   UNL     1      36.389 -23.780 -14.506  0.00  0.00    +0.004 C 
ATOM      9  C   UNL     1      33.946 -23.480 -15.796  0.00  0.00    +0.000 C 
ATOM     10  C   UNL     1      33.932 -22.140 -18.526  0.00  0.00    +0.043 C 
ATOM     11  C   UNL     1      34.007 -24.090 -14.539  0.00  0.00    -0.002 C 
ATOM     12  C   UNL     1      37.602 -22.700 -16.369  0.00  0.00    +0.346 A 
ATOM     13  C   UNL     1      36.381 -21.300 -19.557  0.00  0.00    +0.078 C 
ATOM     14  C   UNL     1      35.220 -21.098 -20.294  0.00  0.00    +0.176 C 
ATOM     15  C   UNL     1      33.997 -21.517 -19.780  0.00  0.00    +0.173 C 
ENDROOT
BRANCH  15  16
ATOM     16  O   UNL     1      32.849 -21.326 -20.490  0.00  0.00    -0.468 OA
ATOM     17  C   UNL     1      32.428 -19.979 -20.688  0.00  0.00    +0.253 C 
ENDBRANCH  15  16
BRANCH   6  18
ATOM     18  C   UNL     1      35.292 -24.890 -12.555  0.00  0.00    +0.133 C 
ATOM     19  C   UNL     1      36.695 -25.402 -12.212  0.00  0.00    +0.037 C 
BRANCH  18  20
ATOM     20  O   UNL     1      34.886 -23.964 -11.540  0.00  0.00    -0.380 OA
ATOM     21  H   UNL     1      35.357 -24.162 -10.716  0.00  0.00    +0.211 HD
ENDBRANCH  18  20
ENDBRANCH   6  18
BRANCH  14  22
ATOM     22  O   UNL     1      35.293 -20.492 -21.512  0.00  0.00    -0.467 OA
BRANCH  22  23
ATOM     23  C   UNL     1      35.931 -19.217 -21.565  0.00  0.00    +0.232 C 
BRANCH  23  24
ATOM     24  C   UNL     1      35.452 -18.481 -22.783  0.00  0.00    +0.021 C 
ATOM     25  C   UNL     1      35.482 -17.092 -22.804  0.00  0.00    +0.002 C 
ATOM     26  C   UNL     1      34.980 -19.198 -23.878  0.00  0.00    +0.002 C 
ATOM     27  C   UNL     1      35.036 -16.408 -23.936  0.00  0.00    +0.037 C 
ATOM     28  C   UNL     1      34.535 -18.515 -25.010  0.00  0.00    +0.037 C 
ATOM     29  C   UNL     1      34.562 -17.120 -25.038  0.00  0.00    +0.139 C 
BRANCH  29  30
ATOM     30  O   UNL     1      34.128 -16.453 -26.142  0.00  0.00    -0.471 OA
ATOM     31  C   UNL     1      33.457 -15.212 -25.930  0.00  0.00    +0.252 C 
ENDBRANCH  29  30
ENDBRANCH  23  24
ENDBRANCH  22  23
ENDBRANCH  14  22
TORSDOF 7
ENDMDL
MODEL 2
REMARK VINA RESULT:     -12.2      2.947      9.000
REMARK  Name = 11998575
REMARK  7 active torsions:
REMARK  status: ('A' for Active; 'I' for Inactive)
REMARK    1  A    between atoms: C_6  and  C_18
REMARK    2  A    between atoms: C_14  and  O_22
REMARK    3  A    between atoms: C_15  and  O_16
REMARK    4  A    between atoms: C_18  and  O_20
REMARK    5  A    between atoms: O_22  and  C_23
REMARK    6  A    between atoms: C_23  and  C_24
REMARK    7  A    between atoms: C_29  and  O_30
REMARK                            x       y       z     vdW  Elec       q    Type
REMARK                         _______ _______ _______ _____ _____    ______ ____
ROOT
ATOM      1  O   UNL     1      32.774 -22.114 -19.030  0.00  0.00    -0.421 OA
ATOM      2  O   UNL     1      32.292 -20.912 -20.907  0.00  0.00    -0.244 OA
ATOM      3  C   UNL     1      35.483 -21.325 -19.216  0.00  0.00    +0.009 A 
ATOM      4  C   UNL     1      35.040 -22.201 -18.124  0.00  0.00    +0.038 A 
ATOM      5  C   UNL     1      34.548 -20.883 -20.168  0.00  0.00    +0.076 A 
ATOM      6  C   UNL     1      36.254 -19.634 -21.353  0.00  0.00    +0.004 C 
ATOM      7  C   UNL     1      33.695 -22.570 -18.063  0.00  0.00    +0.152 A 
ATOM      8  C   UNL     1      34.931 -20.044 -21.227  0.00  0.00    +0.004 C 
ATOM      9  C   UNL     1      36.815 -20.893 -19.369  0.00  0.00    +0.000 C 
ATOM     10  C   UNL     1      35.877 -22.707 -17.116  0.00  0.00    +0.043 C 
ATOM     11  C   UNL     1      37.195 -20.059 -20.425  0.00  0.00    -0.002 C 
ATOM     12  C   UNL     1      33.123 -21.286 -20.088  0.00  0.00    +0.346 A 
ATOM     13  C   UNL     1      33.178 -23.400 -17.064  0.00  0.00    +0.078 C 
ATOM     14  C   UNL     1      34.030 -23.886 -16.081  0.00  0.00    +0.176 C 
ATOM     15  C   UNL     1      35.378 -23.541 -16.106  0.00  0.00    +0.173 C 
ENDROOT
BRANCH  15  16
ATOM     16  O   UNL     1      36.227 -24.010 -15.148  0.00  0.00    -0.468 OA
ATOM     17  C   UNL     1      37.604 -23.666 -15.281  0.00  0.00    +0.253 C 
ENDBRANCH  15  16
BRANCH   6  18
ATOM     18  C   UNL     1      36.660 -18.745 -22.478  0.00  0.00    +0.133 C 
ATOM     19  C   UNL     1      35.891 -17.420 -22.493  0.00  0.00    +0.037 C 
BRANCH  18  20
ATOM     20  O   UNL     1      38.061 -18.457 -22.395  0.00  0.00    -0.380 OA
ATOM     21  H   UNL     1      38.559 -19.288 -22.350  0.00  0.00    +0.211 HD
ENDBRANCH  18  20
ENDBRANCH   6  18
BRANCH  14  22
ATOM     22  O   UNL     1      33.537 -24.697 -15.104  0.00  0.00    -0.467 OA
BRANCH  22  23
ATOM     23  C   UNL     1      32.720 -24.087 -14.106  0.00  0.00    +0.232 C 
BRANCH  23  24
ATOM     24  C   UNL     1      31.326 -23.935 -14.641  0.00  0.00    +0.021 C 
ATOM     25  C   UNL     1      30.588 -25.066 -14.971  0.00  0.00    +0.002 C 
ATOM     26  C   UNL     1      30.785 -22.663 -14.803  0.00  0.00    +0.002 C 
ATOM     27  C   UNL     1      29.292 -24.924 -15.469  0.00  0.00    +0.037 C 
ATOM     28  C   UNL     1      29.490 -22.522 -15.301  0.00  0.00    +0.037 C 
ATOM     29  C   UNL     1      28.744 -23.653 -15.634  0.00  0.00    +0.139 C 
BRANCH  29  30
ATOM     30  O   UNL     1      27.480 -23.515 -16.119  0.00  0.00    -0.471 OA
ATOM     31  C   UNL     1      27.220 -22.380 -16.944  0.00  0.00    +0.252 C 
ENDBRANCH  29  30
ENDBRANCH  23  24
ENDBRANCH  22  23
ENDBRANCH  14  22
TORSDOF 7
ENDMDL
MODEL 3
REMARK VINA RESULT:     -12.1      6.039     12.609
REMARK  Name = 11998575
REMARK  7 active torsions:
REMARK  status: ('A' for Active; 'I' for Inactive)
REMARK    1  A    between atoms: C_6  and  C_18
REMARK    2  A    between atoms: C_14  and  O_22
REMARK    3  A    between atoms: C_15  and  O_16
REMARK    4  A    between atoms: C_18  and  O_20
REMARK    5  A    between atoms: O_22  and  C_23
REMARK    6  A    between atoms: C_23  and  C_24
REMARK    7  A    between atoms: C_29  and  O_30
REMARK                            x       y       z     vdW  Elec       q    Type
REMARK                         _______ _______ _______ _____ _____    ______ ____
ROOT
ATOM      1  O   UNL     1      31.996 -11.912 -20.986  0.00  0.00    -0.421 OA
ATOM      2  O   UNL     1      31.268 -10.435 -19.409  0.00  0.00    -0.244 OA
ATOM      3  C   UNL     1      32.756  -9.758 -22.655  0.00  0.00    +0.009 A 
ATOM      4  C   UNL     1      32.961 -11.144 -23.095  0.00  0.00    +0.038 A 
ATOM      5  C   UNL     1      32.178  -9.512 -21.397  0.00  0.00    +0.076 A 
ATOM      6  C   UNL     1      32.325  -7.117 -21.730  0.00  0.00    +0.004 C 
ATOM      7  C   UNL     1      32.574 -12.182 -22.245  0.00  0.00    +0.152 A 
ATOM      8  C   UNL     1      31.965  -8.202 -20.939  0.00  0.00    +0.004 C 
ATOM      9  C   UNL     1      33.110  -8.639 -23.433  0.00  0.00    +0.000 C 
ATOM     10  C   UNL     1      33.526 -11.517 -24.325  0.00  0.00    +0.043 C 
ATOM     11  C   UNL     1      32.897  -7.335 -22.977  0.00  0.00    -0.002 C 
ATOM     12  C   UNL     1      31.773 -10.627 -20.508  0.00  0.00    +0.346 A 
ATOM     13  C   UNL     1      32.727 -13.532 -22.574  0.00  0.00    +0.078 C 
ATOM     14  C   UNL     1      33.289 -13.870 -23.799  0.00  0.00    +0.176 C 
ATOM     15  C   UNL     1      33.688 -12.864 -24.674  0.00  0.00    +0.173 C 
ENDROOT
BRANCH  15  16
ATOM     16  O   UNL     1      34.240 -13.179 -25.880  0.00  0.00    -0.468 OA
ATOM     17  C   UNL     1      33.348 -13.318 -26.983  0.00  0.00    +0.253 C 
ENDBRANCH  15  16
BRANCH   6  18
ATOM     18  C   UNL     1      32.097  -5.726 -21.244  0.00  0.00    +0.133 C 
ATOM     19  C   UNL     1      30.668  -5.235 -21.501  0.00  0.00    +0.037 C 
BRANCH  18  20
ATOM     20  O   UNL     1      32.359  -5.648 -19.838  0.00  0.00    -0.380 OA
ATOM     21  H   UNL     1      33.232  -5.252 -19.694  0.00  0.00    +0.211 HD
ENDBRANCH  18  20
ENDBRANCH   6  18
BRANCH  14  22
ATOM     22  O   UNL     1      33.442 -15.182 -24.130  0.00  0.00    -0.467 OA
BRANCH  22  23
ATOM     23  C   UNL     1      34.777 -15.675 -24.231  0.00  0.00    +0.232 C 
BRANCH  23  24
ATOM     24  C   UNL     1      34.899 -16.926 -23.411  0.00  0.00    +0.021 C 
ATOM     25  C   UNL     1      35.078 -16.834 -22.036  0.00  0.00    +0.002 C 
ATOM     26  C   UNL     1      34.835 -18.167 -24.037  0.00  0.00    +0.002 C 
ATOM     27  C   UNL     1      35.192 -17.998 -21.274  0.00  0.00    +0.037 C 
ATOM     28  C   UNL     1      34.949 -19.331 -23.275  0.00  0.00    +0.037 C 
ATOM     29  C   UNL     1      35.128 -19.245 -21.895  0.00  0.00    +0.139 C 
BRANCH  29  30
ATOM     30  O   UNL     1      35.238 -20.381 -21.152  0.00  0.00    -0.471 OA
ATOM     31  C   UNL     1      34.140 -20.713 -20.305  0.00  0.00    +0.252 C 
ENDBRANCH  29  30
ENDBRANCH  23  24
ENDBRANCH  22  23
ENDBRANCH  14  22
TORSDOF 7
ENDMDL
MODEL 4
REMARK VINA RESULT:     -11.6      6.416     11.172
REMARK  Name = 11998575
REMARK  7 active torsions:
REMARK  status: ('A' for Active; 'I' for Inactive)
REMARK    1  A    between atoms: C_6  and  C_18
REMARK    2  A    between atoms: C_14  and  O_22
REMARK    3  A    between atoms: C_15  and  O_16
REMARK    4  A    between atoms: C_18  and  O_20
REMARK    5  A    between atoms: O_22  and  C_23
REMARK    6  A    between atoms: C_23  and  C_24
REMARK    7  A    between atoms: C_29  and  O_30
REMARK                            x       y       z     vdW  Elec       q    Type
REMARK                         _______ _______ _______ _____ _____    ______ ____
ROOT
ATOM      1  O   UNL     1      33.637 -12.925 -24.299  0.00  0.00    -0.421 OA
ATOM      2  O   UNL     1      34.768 -14.658 -25.255  0.00  0.00    -0.244 OA
ATOM      3  C   UNL     1      33.579 -14.317 -21.838  0.00  0.00    +0.009 A 
ATOM      4  C   UNL     1      32.965 -12.988 -21.952  0.00  0.00    +0.038 A 
ATOM      5  C   UNL     1      34.195 -14.890 -22.963  0.00  0.00    +0.076 A 
ATOM      6  C   UNL     1      34.786 -16.874 -21.704  0.00  0.00    +0.004 C 
ATOM      7  C   UNL     1      33.012 -12.329 -23.182  0.00  0.00    +0.152 A 
ATOM      8  C   UNL     1      34.794 -16.159 -22.896  0.00  0.00    +0.004 C 
ATOM      9  C   UNL     1      33.587 -15.065 -20.645  0.00  0.00    +0.000 C 
ATOM     10  C   UNL     1      32.321 -12.312 -20.903  0.00  0.00    +0.043 C 
ATOM     11  C   UNL     1      34.183 -16.328 -20.579  0.00  0.00    -0.002 C 
ATOM     12  C   UNL     1      34.236 -14.177 -24.263  0.00  0.00    +0.346 A 
ATOM     13  C   UNL     1      32.456 -11.064 -23.391  0.00  0.00    +0.078 C 
ATOM     14  C   UNL     1      31.825 -10.420 -22.334  0.00  0.00    +0.176 C 
ATOM     15  C   UNL     1      31.756 -11.043 -21.091  0.00  0.00    +0.173 C 
ENDROOT
BRANCH  15  16
ATOM     16  O   UNL     1      31.140 -10.425 -20.044  0.00  0.00    -0.468 OA
ATOM     17  C   UNL     1      31.935 -10.159 -18.891  0.00  0.00    +0.253 C 
ENDBRANCH  15  16
BRANCH   6  18
ATOM     18  C   UNL     1      35.421 -18.221 -21.633  0.00  0.00    +0.133 C 
ATOM     19  C   UNL     1      36.120 -18.616 -22.938  0.00  0.00    +0.037 C 
BRANCH  18  20
ATOM     20  O   UNL     1      36.385 -18.255 -20.573  0.00  0.00    -0.380 OA
ATOM     21  H   UNL     1      36.057 -18.821 -19.858  0.00  0.00    +0.211 HD
ENDBRANCH  18  20
ENDBRANCH   6  18
BRANCH  14  22
ATOM     22  O   UNL     1      31.278  -9.188 -22.526  0.00  0.00    -0.467 OA
BRANCH  22  23
ATOM     23  C   UNL     1      31.952  -8.080 -21.931  0.00  0.00    +0.232 C 
BRANCH  23  24
ATOM     24  C   UNL     1      32.823  -7.425 -22.964  0.00  0.00    +0.021 C 
ATOM     25  C   UNL     1      32.264  -6.532 -23.870  0.00  0.00    +0.002 C 
ATOM     26  C   UNL     1      34.182  -7.722 -23.006  0.00  0.00    +0.002 C 
ATOM     27  C   UNL     1      33.074  -5.924 -24.830  0.00  0.00    +0.037 C 
ATOM     28  C   UNL     1      34.991  -7.114 -23.966  0.00  0.00    +0.037 C 
ATOM     29  C   UNL     1      34.437  -6.216 -24.878  0.00  0.00    +0.139 C 
BRANCH  29  30
ATOM     30  O   UNL     1      35.227  -5.623 -25.815  0.00  0.00    -0.471 OA
ATOM     31  C   UNL     1      34.584  -4.776 -26.765  0.00  0.00    +0.252 C 
ENDBRANCH  29  30
ENDBRANCH  23  24
ENDBRANCH  22  23
ENDBRANCH  14  22
TORSDOF 7
ENDMDL
MODEL 5
REMARK VINA RESULT:     -11.6      7.099     13.639
REMARK  Name = 11998575
REMARK  7 active torsions:
REMARK  status: ('A' for Active; 'I' for Inactive)
REMARK    1  A    between atoms: C_6  and  C_18
REMARK    2  A    between atoms: C_14  and  O_22
REMARK    3  A    between atoms: C_15  and  O_16
REMARK    4  A    between atoms: C_18  and  O_20
REMARK    5  A    between atoms: O_22  and  C_23
REMARK    6  A    between atoms: C_23  and  C_24
REMARK    7  A    between atoms: C_29  and  O_30
REMARK                            x       y       z     vdW  Elec       q    Type
REMARK                         _______ _______ _______ _____ _____    ______ ____
ROOT
ATOM      1  O   UNL     1      32.013  -9.666 -19.903  0.00  0.00    -0.421 OA
ATOM      2  O   UNL     1      31.675  -7.570 -19.070  0.00  0.00    -0.244 OA
ATOM      3  C   UNL     1      32.125  -8.609 -22.523  0.00  0.00    +0.009 A 
ATOM      4  C   UNL     1      32.283 -10.052 -22.299  0.00  0.00    +0.038 A 
ATOM      5  C   UNL     1      31.917  -7.759 -21.424  0.00  0.00    +0.076 A 
ATOM      6  C   UNL     1      31.810  -5.817 -22.869  0.00  0.00    +0.004 C 
ATOM      7  C   UNL     1      32.223 -10.538 -20.992  0.00  0.00    +0.152 A 
ATOM      8  C   UNL     1      31.761  -6.374 -21.596  0.00  0.00    +0.004 C 
ATOM      9  C   UNL     1      32.169  -8.016 -23.800  0.00  0.00    +0.000 C 
ATOM     10  C   UNL     1      32.495 -11.000 -23.313  0.00  0.00    +0.043 C 
ATOM     11  C   UNL     1      32.013  -6.637 -23.971  0.00  0.00    -0.002 C 
ATOM     12  C   UNL     1      31.855  -8.293 -20.042  0.00  0.00    +0.346 A 
ATOM     13  C   UNL     1      32.361 -11.893 -20.677  0.00  0.00    +0.078 C 
ATOM     14  C   UNL     1      32.568 -12.808 -21.701  0.00  0.00    +0.176 C 
ATOM     15  C   UNL     1      32.635 -12.363 -23.018  0.00  0.00    +0.173 C 
ENDROOT
BRANCH  15  16
ATOM     16  O   UNL     1      32.838 -13.248 -24.035  0.00  0.00    -0.468 OA
ATOM     17  C   UNL     1      33.740 -12.853 -25.066  0.00  0.00    +0.253 C 
ENDBRANCH  15  16
BRANCH   6  18
ATOM     18  C   UNL     1      31.643  -4.346 -23.051  0.00  0.00    +0.133 C 
ATOM     19  C   UNL     1      31.261  -3.966 -24.485  0.00  0.00    +0.037 C 
BRANCH  18  20
ATOM     20  O   UNL     1      30.629  -3.854 -22.165  0.00  0.00    -0.380 OA
ATOM     21  H   UNL     1      30.555  -4.446 -21.400  0.00  0.00    +0.211 HD
ENDBRANCH  18  20
ENDBRANCH   6  18
BRANCH  14  22
ATOM     22  O   UNL     1      32.703 -14.130 -21.406  0.00  0.00    -0.467 OA
BRANCH  22  23
ATOM     23  C   UNL     1      33.939 -14.543 -20.824  0.00  0.00    +0.232 C 
BRANCH  23  24
ATOM     24  C   UNL     1      34.464 -15.729 -21.579  0.00  0.00    +0.021 C 
ATOM     25  C   UNL     1      34.839 -16.874 -20.888  0.00  0.00    +0.002 C 
ATOM     26  C   UNL     1      34.571 -15.669 -22.965  0.00  0.00    +0.002 C 
ATOM     27  C   UNL     1      35.327 -17.977 -21.590  0.00  0.00    +0.037 C 
ATOM     28  C   UNL     1      35.060 -16.771 -23.667  0.00  0.00    +0.037 C 
ATOM     29  C   UNL     1      35.438 -17.925 -22.979  0.00  0.00    +0.139 C 
BRANCH  29  30
ATOM     30  O   UNL     1      35.914 -19.000 -23.664  0.00  0.00    -0.471 OA
ATOM     31  C   UNL     1      35.033 -19.614 -24.603  0.00  0.00    +0.252 C 
ENDBRANCH  29  30
ENDBRANCH  23  24
ENDBRANCH  22  23
ENDBRANCH  14  22
TORSDOF 7
ENDMDL
MODEL 6
REMARK VINA RESULT:     -11.5      1.744      2.421
REMARK  Name = 11998575
REMARK  7 active torsions:
REMARK  status: ('A' for Active; 'I' for Inactive)
REMARK    1  A    between atoms: C_6  and  C_18
REMARK    2  A    between atoms: C_14  and  O_22
REMARK    3  A    between atoms: C_15  and  O_16
REMARK    4  A    between atoms: C_18  and  O_20
REMARK    5  A    between atoms: O_22  and  C_23
REMARK    6  A    between atoms: C_23  and  C_24
REMARK    7  A    between atoms: C_29  and  O_30
REMARK                            x       y       z     vdW  Elec       q    Type
REMARK                         _______ _______ _______ _____ _____    ______ ____
ROOT
ATOM      1  O   UNL     1      36.204 -22.784 -17.081  0.00  0.00    -0.421 OA
ATOM      2  O   UNL     1      36.267 -23.958 -15.127  0.00  0.00    -0.244 OA
ATOM      3  C   UNL     1      33.383 -22.979 -17.110  0.00  0.00    +0.009 A 
ATOM      4  C   UNL     1      34.088 -22.276 -18.189  0.00  0.00    +0.038 A 
ATOM      5  C   UNL     1      34.123 -23.555 -16.063  0.00  0.00    +0.076 A 
ATOM      6  C   UNL     1      32.102 -24.352 -14.991  0.00  0.00    +0.004 C 
ATOM      7  C   UNL     1      35.481 -22.199 -18.142  0.00  0.00    +0.152 A 
ATOM      8  C   UNL     1      33.487 -24.235 -15.012  0.00  0.00    +0.004 C 
ATOM      9  C   UNL     1      31.982 -23.114 -17.062  0.00  0.00    +0.000 C 
ATOM     10  C   UNL     1      33.462 -21.662 -19.286  0.00  0.00    +0.043 C 
ATOM     11  C   UNL     1      31.349 -23.793 -16.015  0.00  0.00    -0.002 C 
ATOM     12  C   UNL     1      35.603 -23.464 -16.030  0.00  0.00    +0.346 A 
ATOM     13  C   UNL     1      36.241 -21.553 -19.121  0.00  0.00    +0.078 C 
ATOM     14  C   UNL     1      35.594 -20.956 -20.195  0.00  0.00    +0.176 C 
ATOM     15  C   UNL     1      34.206 -21.010 -20.279  0.00  0.00    +0.173 C 
ENDROOT
BRANCH  15  16
ATOM     16  O   UNL     1      33.556 -20.429 -21.327  0.00  0.00    -0.468 OA
ATOM     17  C   UNL     1      32.329 -19.763 -21.037  0.00  0.00    +0.253 C 
ENDBRANCH  15  16
BRANCH   6  18
ATOM     18  C   UNL     1      31.427 -25.077 -13.876  0.00  0.00    +0.133 C 
ATOM     19  C   UNL     1      30.847 -24.130 -12.820  0.00  0.00    +0.037 C 
BRANCH  18  20
ATOM     20  O   UNL     1      30.364 -25.889 -14.391  0.00  0.00    -0.380 OA
ATOM     21  H   UNL     1      29.512 -25.522 -14.107  0.00  0.00    +0.211 HD
ENDBRANCH  18  20
ENDBRANCH   6  18
BRANCH  14  22
ATOM     22  O   UNL     1      36.325 -20.325 -21.156  0.00  0.00    -0.467 OA
BRANCH  22  23
ATOM     23  C   UNL     1      36.368 -18.899 -21.107  0.00  0.00    +0.232 C 
BRANCH  23  24
ATOM     24  C   UNL     1      35.827 -18.350 -22.394  0.00  0.00    +0.021 C 
ATOM     25  C   UNL     1      35.626 -19.199 -23.476  0.00  0.00    +0.002 C 
ATOM     26  C   UNL     1      35.533 -16.993 -22.494  0.00  0.00    +0.002 C 
ATOM     27  C   UNL     1      35.124 -18.688 -24.673  0.00  0.00    +0.037 C 
ATOM     28  C   UNL     1      35.031 -16.482 -23.690  0.00  0.00    +0.037 C 
ATOM     29  C   UNL     1      34.826 -17.329 -24.780  0.00  0.00    +0.139 C 
BRANCH  29  30
ATOM     30  O   UNL     1      34.336 -16.830 -25.947  0.00  0.00    -0.471 OA
ATOM     31  C   UNL     1      33.626 -15.595 -25.879  0.00  0.00    +0.252 C 
ENDBRANCH  29  30
ENDBRANCH  23  24
ENDBRANCH  22  23
ENDBRANCH  14  22
TORSDOF 7
ENDMDL
MODEL 7
REMARK VINA RESULT:     -11.5      1.944      9.713
REMARK  Name = 11998575
REMARK  7 active torsions:
REMARK  status: ('A' for Active; 'I' for Inactive)
REMARK    1  A    between atoms: C_6  and  C_18
REMARK    2  A    between atoms: C_14  and  O_22
REMARK    3  A    between atoms: C_15  and  O_16
REMARK    4  A    between atoms: C_18  and  O_20
REMARK    5  A    between atoms: O_22  and  C_23
REMARK    6  A    between atoms: C_23  and  C_24
REMARK    7  A    between atoms: C_29  and  O_30
REMARK                            x       y       z     vdW  Elec       q    Type
REMARK                         _______ _______ _______ _____ _____    ______ ____
ROOT
ATOM      1  O   UNL     1      37.198 -20.151 -19.916  0.00  0.00    -0.421 OA
ATOM      2  O   UNL     1      38.343 -18.649 -21.195  0.00  0.00    -0.244 OA
ATOM      3  C   UNL     1      34.917 -19.809 -21.553  0.00  0.00    +0.009 A 
ATOM      4  C   UNL     1      34.879 -20.733 -20.413  0.00  0.00    +0.038 A 
ATOM      5  C   UNL     1      36.098 -19.096 -21.823  0.00  0.00    +0.076 A 
ATOM      6  C   UNL     1      35.075 -18.007 -23.731  0.00  0.00    +0.004 C 
ATOM      7  C   UNL     1      36.024 -20.877 -19.626  0.00  0.00    +0.152 A 
ATOM      8  C   UNL     1      36.176 -18.202 -22.904  0.00  0.00    +0.004 C 
ATOM      9  C   UNL     1      33.820 -19.590 -22.408  0.00  0.00    +0.000 C 
ATOM     10  C   UNL     1      33.762 -21.499 -20.042  0.00  0.00    +0.043 C 
ATOM     11  C   UNL     1      33.898 -18.700 -23.484  0.00  0.00    -0.002 C 
ATOM     12  C   UNL     1      37.304 -19.261 -20.977  0.00  0.00    +0.346 A 
ATOM     13  C   UNL     1      36.085 -21.730 -18.521  0.00  0.00    +0.078 C 
ATOM     14  C   UNL     1      34.964 -22.475 -18.178  0.00  0.00    +0.176 C 
ATOM     15  C   UNL     1      33.803 -22.360 -18.936  0.00  0.00    +0.173 C 
ENDROOT
BRANCH  15  16
ATOM     16  O   UNL     1      32.694 -23.084 -18.613  0.00  0.00    -0.468 OA
ATOM     17  C   UNL     1      32.055 -22.770 -17.378  0.00  0.00    +0.253 C 
ENDBRANCH  15  16
BRANCH   6  18
ATOM     18  C   UNL     1      35.158 -17.057 -24.878  0.00  0.00    +0.133 C 
ATOM     19  C   UNL     1      33.788 -16.748 -25.491  0.00  0.00    +0.037 C 
BRANCH  18  20
ATOM     20  O   UNL     1      35.754 -15.826 -24.453  0.00  0.00    -0.380 OA
ATOM     21  H   UNL     1      35.058 -15.205 -24.189  0.00  0.00    +0.211 HD
ENDBRANCH  18  20
ENDBRANCH   6  18
BRANCH  14  22
ATOM     22  O   UNL     1      35.012 -23.308 -17.102  0.00  0.00    -0.467 OA
BRANCH  22  23
ATOM     23  C   UNL     1      35.458 -22.748 -15.867  0.00  0.00    +0.232 C 
BRANCH  23  24
ATOM     24  C   UNL     1      36.523 -23.632 -15.286  0.00  0.00    +0.021 C 
ATOM     25  C   UNL     1      37.851 -23.440 -15.647  0.00  0.00    +0.002 C 
ATOM     26  C   UNL     1      36.169 -24.638 -14.391  0.00  0.00    +0.002 C 
ATOM     27  C   UNL     1      38.840 -24.263 -15.106  0.00  0.00    +0.037 C 
ATOM     28  C   UNL     1      37.158 -25.460 -13.851  0.00  0.00    +0.037 C 
ATOM     29  C   UNL     1      38.493 -25.272 -14.209  0.00  0.00    +0.139 C 
BRANCH  29  30
ATOM     30  O   UNL     1      39.458 -26.074 -13.681  0.00  0.00    -0.471 OA
ATOM     31  C   UNL     1      40.587 -26.360 -14.505  0.00  0.00    +0.252 C 
ENDBRANCH  29  30
ENDBRANCH  23  24
ENDBRANCH  22  23
ENDBRANCH  14  22
TORSDOF 7
ENDMDL
MODEL 8
REMARK VINA RESULT:     -11.3      1.497      9.963
REMARK  Name = 11998575
REMARK  7 active torsions:
REMARK  status: ('A' for Active; 'I' for Inactive)
REMARK    1  A    between atoms: C_6  and  C_18
REMARK    2  A    between atoms: C_14  and  O_22
REMARK    3  A    between atoms: C_15  and  O_16
REMARK    4  A    between atoms: C_18  and  O_20
REMARK    5  A    between atoms: O_22  and  C_23
REMARK    6  A    between atoms: C_23  and  C_24
REMARK    7  A    between atoms: C_29  and  O_30
REMARK                            x       y       z     vdW  Elec       q    Type
REMARK                         _______ _______ _______ _____ _____    ______ ____
ROOT
ATOM      1  O   UNL     1      37.357 -19.903 -20.213  0.00  0.00    -0.421 OA
ATOM      2  O   UNL     1      38.354 -18.377 -21.583  0.00  0.00    -0.244 OA
ATOM      3  C   UNL     1      35.012 -19.791 -21.791  0.00  0.00    +0.009 A 
ATOM      4  C   UNL     1      35.073 -20.668 -20.615  0.00  0.00    +0.038 A 
ATOM      5  C   UNL     1      36.130 -19.007 -22.124  0.00  0.00    +0.076 A 
ATOM      6  C   UNL     1      34.979 -18.072 -24.041  0.00  0.00    +0.004 C 
ATOM      7  C   UNL     1      36.246 -20.698 -19.859  0.00  0.00    +0.152 A 
ATOM      8  C   UNL     1      36.113 -18.155 -23.241  0.00  0.00    +0.004 C 
ATOM      9  C   UNL     1      33.878 -19.685 -22.620  0.00  0.00    +0.000 C 
ATOM     10  C   UNL     1      34.024 -21.496 -20.180  0.00  0.00    +0.043 C 
ATOM     11  C   UNL     1      33.862 -18.836 -23.731  0.00  0.00    -0.002 C 
ATOM     12  C   UNL     1      37.369 -19.051 -21.310  0.00  0.00    +0.346 A 
ATOM     13  C   UNL     1      36.400 -21.499 -18.724  0.00  0.00    +0.078 C 
ATOM     14  C   UNL     1      35.346 -22.307 -18.318  0.00  0.00    +0.176 C 
ATOM     15  C   UNL     1      34.159 -22.306 -19.045  0.00  0.00    +0.173 C 
ENDROOT
BRANCH  15  16
ATOM     16  O   UNL     1      33.114 -23.092 -18.659  0.00  0.00    -0.468 OA
ATOM     17  C   UNL     1      32.360 -22.658 -17.530  0.00  0.00    +0.253 C 
ENDBRANCH  15  16
BRANCH   6  18
ATOM     18  C   UNL     1      34.961 -17.167 -25.225  0.00  0.00    +0.133 C 
ATOM     19  C   UNL     1      33.546 -16.725 -25.612  0.00  0.00    +0.037 C 
BRANCH  18  20
ATOM     20  O   UNL     1      35.746 -15.997 -24.961  0.00  0.00    -0.380 OA
ATOM     21  H   UNL     1      36.630 -16.109 -25.343  0.00  0.00    +0.211 HD
ENDBRANCH  18  20
ENDBRANCH   6  18
BRANCH  14  22
ATOM     22  O   UNL     1      35.484 -23.090 -17.213  0.00  0.00    -0.467 OA
BRANCH  22  23
ATOM     23  C   UNL     1      36.410 -22.652 -16.219  0.00  0.00    +0.232 C 
BRANCH  23  24
ATOM     24  C   UNL     1      36.039 -23.264 -14.900  0.00  0.00    +0.021 C 
ATOM     25  C   UNL     1      36.972 -23.304 -13.872  0.00  0.00    +0.002 C 
ATOM     26  C   UNL     1      34.762 -23.789 -14.721  0.00  0.00    +0.002 C 
ATOM     27  C   UNL     1      36.626 -23.873 -12.646  0.00  0.00    +0.037 C 
ATOM     28  C   UNL     1      34.417 -24.358 -13.495  0.00  0.00    +0.037 C 
ATOM     29  C   UNL     1      35.349 -24.401 -12.458  0.00  0.00    +0.139 C 
BRANCH  29  30
ATOM     30  O   UNL     1      35.011 -24.956 -11.262  0.00  0.00    -0.471 OA
ATOM     31  C   UNL     1      35.762 -24.546 -10.121  0.00  0.00    +0.252 C 
ENDBRANCH  29  30
ENDBRANCH  23  24
ENDBRANCH  22  23
ENDBRANCH  14  22
TORSDOF 7
ENDMDL
MODEL 9
REMARK VINA RESULT:     -11.2      6.671     11.256
REMARK  Name = 11998575
REMARK  7 active torsions:
REMARK  status: ('A' for Active; 'I' for Inactive)
REMARK    1  A    between atoms: C_6  and  C_18
REMARK    2  A    between atoms: C_14  and  O_22
REMARK    3  A    between atoms: C_15  and  O_16
REMARK    4  A    between atoms: C_18  and  O_20
REMARK    5  A    between atoms: O_22  and  C_23
REMARK    6  A    between atoms: C_23  and  C_24
REMARK    7  A    between atoms: C_29  and  O_30
REMARK                            x       y       z     vdW  Elec       q    Type
REMARK                         _______ _______ _______ _____ _____    ______ ____
ROOT
ATOM      1  O   UNL     1      33.647 -13.642 -24.598  0.00  0.00    -0.421 OA
ATOM      2  O   UNL     1      34.660 -15.376 -25.677  0.00  0.00    -0.244 OA
ATOM      3  C   UNL     1      33.958 -14.991 -22.132  0.00  0.00    +0.009 A 
ATOM      4  C   UNL     1      33.312 -13.673 -22.179  0.00  0.00    +0.038 A 
ATOM      5  C   UNL     1      34.419 -15.576 -23.324  0.00  0.00    +0.076 A 
ATOM      6  C   UNL     1      35.213 -17.529 -22.131  0.00  0.00    +0.004 C 
ATOM      7  C   UNL     1      33.176 -13.036 -23.414  0.00  0.00    +0.152 A 
ATOM      8  C   UNL     1      35.042 -16.835 -23.323  0.00  0.00    +0.004 C 
ATOM      9  C   UNL     1      34.145 -15.719 -20.941  0.00  0.00    +0.000 C 
ATOM     10  C   UNL     1      32.811 -12.988 -21.060  0.00  0.00    +0.043 C 
ATOM     11  C   UNL     1      34.765 -16.972 -20.940  0.00  0.00    -0.002 C 
ATOM     12  C   UNL     1      34.265 -14.885 -24.627  0.00  0.00    +0.346 A 
ATOM     13  C   UNL     1      32.576 -11.782 -23.561  0.00  0.00    +0.078 C 
ATOM     14  C   UNL     1      32.088 -11.129 -22.435  0.00  0.00    +0.176 C 
ATOM     15  C   UNL     1      32.206 -11.731 -21.186  0.00  0.00    +0.173 C 
ENDROOT
BRANCH  15  16
ATOM     16  O   UNL     1      31.733 -11.104 -20.072  0.00  0.00    -0.468 OA
ATOM     17  C   UNL     1      32.524 -10.043 -19.542  0.00  0.00    +0.253 C 
ENDBRANCH  15  16
BRANCH   6  18
ATOM     18  C   UNL     1      35.873 -18.866 -22.130  0.00  0.00    +0.133 C 
ATOM     19  C   UNL     1      37.136 -18.903 -21.263  0.00  0.00    +0.037 C 
BRANCH  18  20
ATOM     20  O   UNL     1      34.963 -19.862 -21.649  0.00  0.00    -0.380 OA
ATOM     21  H   UNL     1      35.248 -20.164 -20.772  0.00  0.00    +0.211 HD
ENDBRANCH  18  20
ENDBRANCH   6  18
BRANCH  14  22
ATOM     22  O   UNL     1      31.501  -9.908 -22.567  0.00  0.00    -0.467 OA
BRANCH  22  23
ATOM     23  C   UNL     1      31.948  -9.085 -23.644  0.00  0.00    +0.232 C 
BRANCH  23  24
ATOM     24  C   UNL     1      31.647  -7.651 -23.321  0.00  0.00    +0.021 C 
ATOM     25  C   UNL     1      31.522  -6.725 -24.350  0.00  0.00    +0.002 C 
ATOM     26  C   UNL     1      31.497  -7.261 -21.994  0.00  0.00    +0.002 C 
ATOM     27  C   UNL     1      31.242  -5.391 -24.050  0.00  0.00    +0.037 C 
ATOM     28  C   UNL     1      31.217  -5.928 -21.694  0.00  0.00    +0.037 C 
ATOM     29  C   UNL     1      31.090  -4.994 -22.722  0.00  0.00    +0.139 C 
BRANCH  29  30
ATOM     30  O   UNL     1      30.817  -3.693 -22.429  0.00  0.00    -0.471 OA
ATOM     31  C   UNL     1      31.145  -2.721 -23.420  0.00  0.00    +0.252 C 
ENDBRANCH  29  30
ENDBRANCH  23  24
ENDBRANCH  22  23
ENDBRANCH  14  22
TORSDOF 7
ENDMDL
