MODEL 1
REMARK VINA RESULT:     -12.7      0.000      0.000
REMARK  Name = 9799284
REMARK  5 active torsions:
REMARK  status: ('A' for Active; 'I' for Inactive)
REMARK    1  A    between atoms: N_1  and  C_19
REMARK    2  A    between atoms: C_2  and  C_8
REMARK    3  A    between atoms: C_8  and  N_10
REMARK    4  A    between atoms: C_19  and  C_21
REMARK    5  A    between atoms: C_21  and  C_23
REMARK                            x       y       z     vdW  Elec       q    Type
REMARK                         _______ _______ _______ _____ _____    ______ ____
ROOT
ATOM      1  N   UNL     1      34.426 -16.239 -21.911  0.00  0.00    +0.392 N 
ATOM      2  C   UNL     1      33.187 -13.595 -22.175  0.00  0.00    +0.016 C 
ATOM      3  C   UNL     1      33.612 -14.429 -23.389  0.00  0.00    -0.021 C 
ATOM      4  C   UNL     1      32.910 -14.517 -20.984  0.00  0.00    -0.021 C 
ATOM      5  C   UNL     1      34.770 -15.366 -23.042  0.00  0.00    -0.077 C 
ATOM      6  C   UNL     1      34.091 -15.452 -20.716  0.00  0.00    -0.077 C 
ATOM      7  H   UNL     1      33.601 -16.781 -22.172  0.00  0.00    -0.079 HD
ENDROOT
BRANCH   2   8
ATOM      8  C   UNL     1      31.967 -12.735 -22.499  0.00  0.00    +0.094 C 
BRANCH   8  10
ATOM      9  O   UNL     1      31.166 -10.659 -20.459  0.00  0.00    -0.270 OA
ATOM     10  N   UNL     1      32.288 -11.341 -22.427  0.00  0.00    -0.272 N 
ATOM     11  C   UNL     1      33.130 -10.687 -23.433  0.00  0.00    +0.121 C 
ATOM     12  C   UNL     1      31.865 -10.452 -21.433  0.00  0.00    +0.249 C 
ATOM     13  C   UNL     1      33.181  -9.280 -22.944  0.00  0.00    +0.002 C 
ATOM     14  C   UNL     1      32.438  -9.145 -21.771  0.00  0.00    +0.051 C 
ATOM     15  C   UNL     1      33.832  -8.189 -23.488  0.00  0.00    -0.002 C 
ATOM     16  C   UNL     1      32.313  -7.943 -21.101  0.00  0.00    +0.004 C 
ATOM     17  C   UNL     1      33.722  -6.960 -22.830  0.00  0.00    -0.000 C 
ATOM     18  C   UNL     1      32.970  -6.838 -21.646  0.00  0.00    +0.000 C 
ENDBRANCH   8  10
ENDBRANCH   2   8
BRANCH   1  19
ATOM     19  C   UNL     1      35.522 -17.163 -21.625  0.00  0.00    -0.006 C 
BRANCH  19  21
ATOM     20  O   UNL     1      34.995 -18.759 -23.357  0.00  0.00    -0.294 OA
ATOM     21  C   UNL     1      35.164 -18.538 -22.161  0.00  0.00    +0.152 C 
BRANCH  21  23
ATOM     22  F   UNL     1      34.605 -22.743 -18.530  0.00  0.00    -0.204 F 
ATOM     23  C   UNL     1      35.015 -19.662 -21.189  0.00  0.00    +0.033 C 
ATOM     24  C   UNL     1      33.747 -20.087 -20.864  0.00  0.00    +0.005 C 
ATOM     25  C   UNL     1      36.150 -20.229 -20.658  0.00  0.00    +0.005 C 
ATOM     26  C   UNL     1      33.607 -21.138 -19.957  0.00  0.00    +0.030 C 
ATOM     27  C   UNL     1      36.011 -21.280 -19.752  0.00  0.00    +0.030 C 
ATOM     28  C   UNL     1      34.739 -21.734 -19.401  0.00  0.00    +0.140 C 
ENDBRANCH  21  23
ENDBRANCH  19  21
ENDBRANCH   1  19
TORSDOF 5
ENDMDL
MODEL 2
REMARK VINA RESULT:     -12.6      3.359      9.784
REMARK  Name = 9799284
REMARK  5 active torsions:
REMARK  status: ('A' for Active; 'I' for Inactive)
REMARK    1  A    between atoms: N_1  and  C_19
REMARK    2  A    between atoms: C_2  and  C_8
REMARK    3  A    between atoms: C_8  and  N_10
REMARK    4  A    between atoms: C_19  and  C_21
REMARK    5  A    between atoms: C_21  and  C_23
REMARK                            x       y       z     vdW  Elec       q    Type
REMARK                         _______ _______ _______ _____ _____    ______ ____
ROOT
ATOM      1  N   UNL     1      34.024 -14.663 -24.269  0.00  0.00    +0.392 N 
ATOM      2  C   UNL     1      34.952 -17.315 -23.432  0.00  0.00    +0.016 C 
ATOM      3  C   UNL     1      34.938 -16.874 -24.900  0.00  0.00    -0.021 C 
ATOM      4  C   UNL     1      35.047 -16.086 -22.522  0.00  0.00    -0.021 C 
ATOM      5  C   UNL     1      33.856 -15.823 -25.154  0.00  0.00    -0.077 C 
ATOM      6  C   UNL     1      33.961 -15.061 -22.856  0.00  0.00    -0.077 C 
ATOM      7  H   UNL     1      34.948 -14.266 -24.443  0.00  0.00    -0.079 HD
ENDROOT
BRANCH   2   8
ATOM      8  C   UNL     1      36.097 -18.288 -23.162  0.00  0.00    +0.094 C 
BRANCH   8  10
ATOM      9  O   UNL     1      37.825 -19.447 -20.974  0.00  0.00    -0.270 OA
ATOM     10  N   UNL     1      35.761 -19.195 -22.106  0.00  0.00    -0.272 N 
ATOM     11  C   UNL     1      34.404 -19.722 -21.938  0.00  0.00    +0.121 C 
ATOM     12  C   UNL     1      36.640 -19.679 -21.129  0.00  0.00    +0.249 C 
ATOM     13  C   UNL     1      34.543 -20.595 -20.739  0.00  0.00    +0.002 C 
ATOM     14  C   UNL     1      35.856 -20.569 -20.266  0.00  0.00    +0.051 C 
ATOM     15  C   UNL     1      33.587 -21.363 -20.101  0.00  0.00    -0.002 C 
ATOM     16  C   UNL     1      36.266 -21.289 -19.162  0.00  0.00    +0.004 C 
ATOM     17  C   UNL     1      33.976 -22.103 -18.980  0.00  0.00    -0.000 C 
ATOM     18  C   UNL     1      35.304 -22.066 -18.514  0.00  0.00    +0.000 C 
ENDBRANCH   8  10
ENDBRANCH   2   8
BRANCH   1  19
ATOM     19  C   UNL     1      33.015 -13.646 -24.560  0.00  0.00    -0.006 C 
BRANCH  19  21
ATOM     20  O   UNL     1      34.470 -11.721 -24.524  0.00  0.00    -0.294 OA
ATOM     21  C   UNL     1      33.500 -12.303 -24.044  0.00  0.00    +0.152 C 
BRANCH  21  23
ATOM     22  F   UNL     1      30.754  -9.937 -19.798  0.00  0.00    -0.204 F 
ATOM     23  C   UNL     1      32.765 -11.670 -22.909  0.00  0.00    +0.033 C 
ATOM     24  C   UNL     1      32.265 -12.481 -21.915  0.00  0.00    +0.005 C 
ATOM     25  C   UNL     1      32.617 -10.303 -22.900  0.00  0.00    +0.005 C 
ATOM     26  C   UNL     1      31.579 -11.889 -20.854  0.00  0.00    +0.030 C 
ATOM     27  C   UNL     1      31.932  -9.711 -21.840  0.00  0.00    +0.030 C 
ATOM     28  C   UNL     1      31.412 -10.505 -20.817  0.00  0.00    +0.140 C 
ENDBRANCH  21  23
ENDBRANCH  19  21
ENDBRANCH   1  19
TORSDOF 5
ENDMDL
MODEL 3
REMARK VINA RESULT:     -12.5      1.308      1.833
REMARK  Name = 9799284
REMARK  5 active torsions:
REMARK  status: ('A' for Active; 'I' for Inactive)
REMARK    1  A    between atoms: N_1  and  C_19
REMARK    2  A    between atoms: C_2  and  C_8
REMARK    3  A    between atoms: C_8  and  N_10
REMARK    4  A    between atoms: C_19  and  C_21
REMARK    5  A    between atoms: C_21  and  C_23
REMARK                            x       y       z     vdW  Elec       q    Type
REMARK                         _______ _______ _______ _____ _____    ______ ____
ROOT
ATOM      1  N   UNL     1      34.244 -15.370 -22.935  0.00  0.00    +0.392 N 
ATOM      2  C   UNL     1      32.905 -12.973 -21.908  0.00  0.00    +0.016 C 
ATOM      3  C   UNL     1      32.860 -13.370 -23.387  0.00  0.00    -0.021 C 
ATOM      4  C   UNL     1      33.141 -14.217 -21.044  0.00  0.00    -0.021 C 
ATOM      5  C   UNL     1      34.095 -14.180 -23.783  0.00  0.00    -0.077 C 
ATOM      6  C   UNL     1      34.367 -14.999 -21.518  0.00  0.00    -0.077 C 
ATOM      7  H   UNL     1      33.403 -15.938 -23.039  0.00  0.00    -0.079 HD
ENDROOT
BRANCH   2   8
ATOM      8  C   UNL     1      31.625 -12.252 -21.493  0.00  0.00    +0.094 C 
BRANCH   8  10
ATOM      9  O   UNL     1      31.723 -10.375 -19.130  0.00  0.00    -0.270 OA
ATOM     10  N   UNL     1      31.825 -10.835 -21.449  0.00  0.00    -0.272 N 
ATOM     11  C   UNL     1      32.030 -10.043 -22.666  0.00  0.00    +0.121 C 
ATOM     12  C   UNL     1      31.855 -10.045 -20.294  0.00  0.00    +0.249 C 
ATOM     13  C   UNL     1      32.191  -8.662 -22.128  0.00  0.00    +0.002 C 
ATOM     14  C   UNL     1      32.088  -8.666 -20.737  0.00  0.00    +0.051 C 
ATOM     15  C   UNL     1      32.412  -7.480 -22.808  0.00  0.00    -0.002 C 
ATOM     16  C   UNL     1      32.198  -7.518 -19.977  0.00  0.00    +0.004 C 
ATOM     17  C   UNL     1      32.528  -6.302 -22.063  0.00  0.00    -0.000 C 
ATOM     18  C   UNL     1      32.423  -6.321 -20.660  0.00  0.00    +0.000 C 
ENDBRANCH   8  10
ENDBRANCH   2   8
BRANCH   1  19
ATOM     19  C   UNL     1      35.398 -16.161 -23.359  0.00  0.00    -0.006 C 
BRANCH  19  21
ATOM     20  O   UNL     1      34.305 -18.063 -24.364  0.00  0.00    -0.294 OA
ATOM     21  C   UNL     1      34.994 -17.622 -23.447  0.00  0.00    +0.152 C 
BRANCH  21  23
ATOM     22  F   UNL     1      36.723 -21.101 -19.438  0.00  0.00    -0.204 F 
ATOM     23  C   UNL     1      35.456 -18.553 -22.375  0.00  0.00    +0.033 C 
ATOM     24  C   UNL     1      36.765 -18.476 -21.956  0.00  0.00    +0.005 C 
ATOM     25  C   UNL     1      34.557 -19.450 -21.849  0.00  0.00    +0.005 C 
ATOM     26  C   UNL     1      37.197 -19.345 -20.954  0.00  0.00    +0.030 C 
ATOM     27  C   UNL     1      34.988 -20.318 -20.847  0.00  0.00    +0.030 C 
ATOM     28  C   UNL     1      36.308 -20.267 -20.400  0.00  0.00    +0.140 C 
ENDBRANCH  21  23
ENDBRANCH  19  21
ENDBRANCH   1  19
TORSDOF 5
ENDMDL
MODEL 4
REMARK VINA RESULT:     -12.3      4.323      6.808
REMARK  Name = 9799284
REMARK  5 active torsions:
REMARK  status: ('A' for Active; 'I' for Inactive)
REMARK    1  A    between atoms: N_1  and  C_19
REMARK    2  A    between atoms: C_2  and  C_8
REMARK    3  A    between atoms: C_8  and  N_10
REMARK    4  A    between atoms: C_19  and  C_21
REMARK    5  A    between atoms: C_21  and  C_23
REMARK                            x       y       z     vdW  Elec       q    Type
REMARK                         _______ _______ _______ _____ _____    ______ ____
ROOT
ATOM      1  N   UNL     1      34.455 -21.370 -19.556  0.00  0.00    +0.392 N 
ATOM      2  C   UNL     1      35.699 -19.548 -21.487  0.00  0.00    +0.016 C 
ATOM      3  C   UNL     1      34.292 -19.316 -20.927  0.00  0.00    -0.021 C 
ATOM      4  C   UNL     1      36.519 -20.384 -20.499  0.00  0.00    -0.021 C 
ATOM      5  C   UNL     1      33.629 -20.635 -20.524  0.00  0.00    -0.077 C 
ATOM      6  C   UNL     1      35.783 -21.668 -20.110  0.00  0.00    -0.077 C 
ATOM      7  H   UNL     1      34.582 -20.776 -18.736  0.00  0.00    -0.079 HD
ENDROOT
BRANCH   2   8
ATOM      8  C   UNL     1      36.394 -18.224 -21.794  0.00  0.00    +0.094 C 
BRANCH   8  10
ATOM      9  O   UNL     1      35.086 -15.538 -21.359  0.00  0.00    -0.270 OA
ATOM     10  N   UNL     1      35.607 -17.427 -22.686  0.00  0.00    -0.272 N 
ATOM     11  C   UNL     1      35.313 -17.857 -24.056  0.00  0.00    +0.121 C 
ATOM     12  C   UNL     1      35.038 -16.182 -22.390  0.00  0.00    +0.249 C 
ATOM     13  C   UNL     1      34.491 -16.729 -24.579  0.00  0.00    +0.002 C 
ATOM     14  C   UNL     1      34.331 -15.748 -23.600  0.00  0.00    +0.051 C 
ATOM     15  C   UNL     1      33.920 -16.569 -25.827  0.00  0.00    -0.002 C 
ATOM     16  C   UNL     1      33.611 -14.589 -23.815  0.00  0.00    +0.004 C 
ATOM     17  C   UNL     1      33.185 -15.405 -26.072  0.00  0.00    -0.000 C 
ATOM     18  C   UNL     1      33.033 -14.423 -25.075  0.00  0.00    +0.000 C 
ENDBRANCH   8  10
ENDBRANCH   2   8
BRANCH   1  19
ATOM     19  C   UNL     1      33.785 -22.601 -19.141  0.00  0.00    -0.006 C 
BRANCH  19  21
ATOM     20  O   UNL     1      35.390 -23.035 -17.392  0.00  0.00    -0.294 OA
ATOM     21  C   UNL     1      34.211 -22.946 -17.726  0.00  0.00    +0.152 C 
BRANCH  21  23
ATOM     22  F   UNL     1      30.242 -23.842 -13.903  0.00  0.00    -0.204 F 
ATOM     23  C   UNL     1      33.149 -23.185 -16.703  0.00  0.00    +0.033 C 
ATOM     24  C   UNL     1      31.842 -22.913 -17.035  0.00  0.00    +0.005 C 
ATOM     25  C   UNL     1      33.520 -23.669 -15.470  0.00  0.00    +0.005 C 
ATOM     26  C   UNL     1      30.850 -23.137 -16.080  0.00  0.00    +0.030 C 
ATOM     27  C   UNL     1      32.529 -23.893 -14.515  0.00  0.00    +0.030 C 
ATOM     28  C   UNL     1      31.194 -23.627 -14.820  0.00  0.00    +0.140 C 
ENDBRANCH  21  23
ENDBRANCH  19  21
ENDBRANCH   1  19
TORSDOF 5
ENDMDL
MODEL 5
REMARK VINA RESULT:     -12.3      4.470      7.048
REMARK  Name = 9799284
REMARK  5 active torsions:
REMARK  status: ('A' for Active; 'I' for Inactive)
REMARK    1  A    between atoms: N_1  and  C_19
REMARK    2  A    between atoms: C_2  and  C_8
REMARK    3  A    between atoms: C_8  and  N_10
REMARK    4  A    between atoms: C_19  and  C_21
REMARK    5  A    between atoms: C_21  and  C_23
REMARK                            x       y       z     vdW  Elec       q    Type
REMARK                         _______ _______ _______ _____ _____    ______ ____
ROOT
ATOM      1  N   UNL     1      34.288 -21.767 -19.307  0.00  0.00    +0.392 N 
ATOM      2  C   UNL     1      35.714 -19.905 -21.066  0.00  0.00    +0.016 C 
ATOM      3  C   UNL     1      34.241 -19.714 -20.687  0.00  0.00    -0.021 C 
ATOM      4  C   UNL     1      36.427 -20.721 -19.982  0.00  0.00    -0.021 C 
ATOM      5  C   UNL     1      33.571 -21.052 -20.371  0.00  0.00    -0.077 C 
ATOM      6  C   UNL     1      35.683 -22.026 -19.690  0.00  0.00    -0.077 C 
ATOM      7  H   UNL     1      34.295 -21.173 -18.477  0.00  0.00    -0.079 HD
ENDROOT
BRANCH   2   8
ATOM      8  C   UNL     1      36.404 -18.560 -21.282  0.00  0.00    +0.094 C 
BRANCH   8  10
ATOM      9  O   UNL     1      35.020 -15.894 -20.978  0.00  0.00    -0.270 OA
ATOM     10  N   UNL     1      35.700 -17.772 -22.248  0.00  0.00    -0.272 N 
ATOM     11  C   UNL     1      35.552 -18.203 -23.642  0.00  0.00    +0.121 C 
ATOM     12  C   UNL     1      35.086 -16.536 -22.009  0.00  0.00    +0.249 C 
ATOM     13  C   UNL     1      34.770 -17.085 -24.243  0.00  0.00    +0.002 C 
ATOM     14  C   UNL     1      34.499 -16.109 -23.283  0.00  0.00    +0.051 C 
ATOM     15  C   UNL     1      34.325 -16.930 -25.542  0.00  0.00    -0.002 C 
ATOM     16  C   UNL     1      33.787 -14.960 -23.569  0.00  0.00    +0.004 C 
ATOM     17  C   UNL     1      33.602 -15.775 -25.858  0.00  0.00    -0.000 C 
ATOM     18  C   UNL     1      33.336 -14.798 -24.880  0.00  0.00    +0.000 C 
ENDBRANCH   8  10
ENDBRANCH   2   8
BRANCH   1  19
ATOM     19  C   UNL     1      33.606 -23.018 -18.980  0.00  0.00    -0.006 C 
BRANCH  19  21
ATOM     20  O   UNL     1      31.639 -22.252 -17.812  0.00  0.00    -0.294 OA
ATOM     21  C   UNL     1      32.735 -22.804 -17.756  0.00  0.00    +0.152 C 
BRANCH  21  23
ATOM     22  F   UNL     1      34.607 -24.608 -12.814  0.00  0.00    -0.204 F 
ATOM     23  C   UNL     1      33.236 -23.286 -16.434  0.00  0.00    +0.033 C 
ATOM     24  C   UNL     1      32.338 -23.425 -15.400  0.00  0.00    +0.005 C 
ATOM     25  C   UNL     1      34.575 -23.572 -16.301  0.00  0.00    +0.005 C 
ATOM     26  C   UNL     1      32.805 -23.877 -14.166  0.00  0.00    +0.030 C 
ATOM     27  C   UNL     1      35.043 -24.023 -15.068  0.00  0.00    +0.030 C 
ATOM     28  C   UNL     1      34.158 -24.175 -14.000  0.00  0.00    +0.140 C 
ENDBRANCH  21  23
ENDBRANCH  19  21
ENDBRANCH   1  19
TORSDOF 5
ENDMDL
MODEL 6
REMARK VINA RESULT:     -12.3      5.081     11.095
REMARK  Name = 9799284
REMARK  5 active torsions:
REMARK  status: ('A' for Active; 'I' for Inactive)
REMARK    1  A    between atoms: N_1  and  C_19
REMARK    2  A    between atoms: C_2  and  C_8
REMARK    3  A    between atoms: C_8  and  N_10
REMARK    4  A    between atoms: C_19  and  C_21
REMARK    5  A    between atoms: C_21  and  C_23
REMARK                            x       y       z     vdW  Elec       q    Type
REMARK                         _______ _______ _______ _____ _____    ______ ____
ROOT
ATOM      1  N   UNL     1      35.307 -19.685 -21.460  0.00  0.00    +0.392 N 
ATOM      2  C   UNL     1      34.511 -21.674 -19.459  0.00  0.00    +0.016 C 
ATOM      3  C   UNL     1      33.528 -21.103 -20.487  0.00  0.00    -0.021 C 
ATOM      4  C   UNL     1      35.941 -21.580 -20.001  0.00  0.00    -0.021 C 
ATOM      5  C   UNL     1      33.938 -19.696 -20.926  0.00  0.00    -0.077 C 
ATOM      6  C   UNL     1      36.271 -20.157 -20.457  0.00  0.00    -0.077 C 
ATOM      7  H   UNL     1      35.340 -20.324 -22.254  0.00  0.00    -0.079 HD
ENDROOT
BRANCH   2   8
ATOM      8  C   UNL     1      34.154 -23.114 -19.099  0.00  0.00    +0.094 C 
BRANCH   8  10
ATOM      9  O   UNL     1      35.331 -23.824 -16.411  0.00  0.00    -0.270 OA
ATOM     10  N   UNL     1      33.533 -23.183 -17.811  0.00  0.00    -0.272 N 
ATOM     11  C   UNL     1      32.111 -22.886 -17.619  0.00  0.00    +0.121 C 
ATOM     12  C   UNL     1      34.168 -23.525 -16.611  0.00  0.00    +0.249 C 
ATOM     13  C   UNL     1      31.936 -23.084 -16.152  0.00  0.00    +0.002 C 
ATOM     14  C   UNL     1      33.144 -23.459 -15.563  0.00  0.00    +0.051 C 
ATOM     15  C   UNL     1      30.797 -22.946 -15.381  0.00  0.00    -0.002 C 
ATOM     16  C   UNL     1      33.269 -23.708 -14.211  0.00  0.00    +0.004 C 
ATOM     17  C   UNL     1      30.896 -23.193 -14.008  0.00  0.00    -0.000 C 
ATOM     18  C   UNL     1      32.122 -23.570 -13.428  0.00  0.00    +0.000 C 
ENDBRANCH   8  10
ENDBRANCH   2   8
BRANCH   1  19
ATOM     19  C   UNL     1      35.665 -18.345 -21.923  0.00  0.00    -0.006 C 
BRANCH  19  21
ATOM     20  O   UNL     1      35.379 -19.146 -24.181  0.00  0.00    -0.294 OA
ATOM     21  C   UNL     1      35.295 -18.211 -23.389  0.00  0.00    +0.152 C 
BRANCH  21  23
ATOM     22  F   UNL     1      33.483 -13.261 -25.228  0.00  0.00    -0.204 F 
ATOM     23  C   UNL     1      34.809 -16.887 -23.881  0.00  0.00    +0.033 C 
ATOM     24  C   UNL     1      34.893 -15.801 -23.039  0.00  0.00    +0.005 C 
ATOM     25  C   UNL     1      34.298 -16.804 -25.155  0.00  0.00    +0.005 C 
ATOM     26  C   UNL     1      34.441 -14.564 -23.499  0.00  0.00    +0.030 C 
ATOM     27  C   UNL     1      33.846 -15.569 -25.615  0.00  0.00    +0.030 C 
ATOM     28  C   UNL     1      33.917 -14.448 -24.787  0.00  0.00    +0.140 C 
ENDBRANCH  21  23
ENDBRANCH  19  21
ENDBRANCH   1  19
TORSDOF 5
ENDMDL
MODEL 7
REMARK VINA RESULT:     -12.3      4.757      7.395
REMARK  Name = 9799284
REMARK  5 active torsions:
REMARK  status: ('A' for Active; 'I' for Inactive)
REMARK    1  A    between atoms: N_1  and  C_19
REMARK    2  A    between atoms: C_2  and  C_8
REMARK    3  A    between atoms: C_8  and  N_10
REMARK    4  A    between atoms: C_19  and  C_21
REMARK    5  A    between atoms: C_21  and  C_23
REMARK                            x       y       z     vdW  Elec       q    Type
REMARK                         _______ _______ _______ _____ _____    ______ ____
ROOT
ATOM      1  N   UNL     1      34.244 -21.512 -19.234  0.00  0.00    +0.392 N 
ATOM      2  C   UNL     1      35.643 -19.977 -21.303  0.00  0.00    +0.016 C 
ATOM      3  C   UNL     1      34.266 -19.570 -20.767  0.00  0.00    -0.021 C 
ATOM      4  C   UNL     1      36.387 -20.804 -20.248  0.00  0.00    -0.021 C 
ATOM      5  C   UNL     1      33.486 -20.784 -20.260  0.00  0.00    -0.077 C 
ATOM      6  C   UNL     1      35.535 -21.977 -19.758  0.00  0.00    -0.077 C 
ATOM      7  H   UNL     1      34.430 -20.869 -18.464  0.00  0.00    -0.079 HD
ENDROOT
BRANCH   2   8
ATOM      8  C   UNL     1      36.457 -18.753 -21.714  0.00  0.00    +0.094 C 
BRANCH   8  10
ATOM      9  O   UNL     1      35.322 -19.368 -24.443  0.00  0.00    -0.270 OA
ATOM     10  N   UNL     1      35.714 -17.921 -22.612  0.00  0.00    -0.272 N 
ATOM     11  C   UNL     1      35.377 -16.532 -22.284  0.00  0.00    +0.121 C 
ATOM     12  C   UNL     1      35.225 -18.300 -23.868  0.00  0.00    +0.249 C 
ATOM     13  C   UNL     1      34.619 -16.091 -23.489  0.00  0.00    +0.002 C 
ATOM     14  C   UNL     1      34.532 -17.130 -24.416  0.00  0.00    +0.051 C 
ATOM     15  C   UNL     1      34.044 -14.864 -23.759  0.00  0.00    -0.002 C 
ATOM     16  C   UNL     1      33.882 -16.995 -25.628  0.00  0.00    +0.004 C 
ATOM     17  C   UNL     1      33.379 -14.701 -24.978  0.00  0.00    -0.000 C 
ATOM     18  C   UNL     1      33.298 -15.757 -25.904  0.00  0.00    +0.000 C 
ENDBRANCH   8  10
ENDBRANCH   2   8
BRANCH   1  19
ATOM     19  C   UNL     1      33.464 -22.638 -18.723  0.00  0.00    -0.006 C 
BRANCH  19  21
ATOM     20  O   UNL     1      35.213 -23.098 -17.124  0.00  0.00    -0.294 OA
ATOM     21  C   UNL     1      34.009 -23.044 -17.365  0.00  0.00    +0.152 C 
BRANCH  21  23
ATOM     22  F   UNL     1      30.378 -24.343 -13.327  0.00  0.00    -0.204 F 
ATOM     23  C   UNL     1      33.038 -23.391 -16.285  0.00  0.00    +0.033 C 
ATOM     24  C   UNL     1      31.700 -23.155 -16.502  0.00  0.00    +0.005 C 
ATOM     25  C   UNL     1      33.519 -23.933 -15.116  0.00  0.00    +0.005 C 
ATOM     26  C   UNL     1      30.792 -23.480 -15.494  0.00  0.00    +0.030 C 
ATOM     27  C   UNL     1      32.613 -24.258 -14.108  0.00  0.00    +0.030 C 
ATOM     28  C   UNL     1      31.249 -24.032 -14.296  0.00  0.00    +0.140 C 
ENDBRANCH  21  23
ENDBRANCH  19  21
ENDBRANCH   1  19
TORSDOF 5
ENDMDL
MODEL 8
REMARK VINA RESULT:     -12.1      3.628     10.331
REMARK  Name = 9799284
REMARK  5 active torsions:
REMARK  status: ('A' for Active; 'I' for Inactive)
REMARK    1  A    between atoms: N_1  and  C_19
REMARK    2  A    between atoms: C_2  and  C_8
REMARK    3  A    between atoms: C_8  and  N_10
REMARK    4  A    between atoms: C_19  and  C_21
REMARK    5  A    between atoms: C_21  and  C_23
REMARK                            x       y       z     vdW  Elec       q    Type
REMARK                         _______ _______ _______ _____ _____    ______ ____
ROOT
ATOM      1  N   UNL     1      33.681 -13.796 -22.908  0.00  0.00    +0.392 N 
ATOM      2  C   UNL     1      34.662 -16.559 -22.942  0.00  0.00    +0.016 C 
ATOM      3  C   UNL     1      34.621 -15.685 -24.200  0.00  0.00    -0.021 C 
ATOM      4  C   UNL     1      34.749 -15.670 -21.696  0.00  0.00    -0.021 C 
ATOM      5  C   UNL     1      33.520 -14.628 -24.108  0.00  0.00    -0.077 C 
ATOM      6  C   UNL     1      33.643 -14.614 -21.687  0.00  0.00    -0.077 C 
ATOM      7  H   UNL     1      34.596 -13.347 -22.957  0.00  0.00    -0.079 HD
ENDROOT
BRANCH   2   8
ATOM      8  C   UNL     1      35.826 -17.545 -22.995  0.00  0.00    +0.094 C 
BRANCH   8  10
ATOM      9  O   UNL     1      37.815 -18.947 -21.208  0.00  0.00    -0.270 OA
ATOM     10  N   UNL     1      35.633 -18.616 -22.064  0.00  0.00    -0.272 N 
ATOM     11  C   UNL     1      34.318 -19.223 -21.841  0.00  0.00    +0.121 C 
ATOM     12  C   UNL     1      36.627 -19.205 -21.273  0.00  0.00    +0.249 C 
ATOM     13  C   UNL     1      34.612 -20.261 -20.814  0.00  0.00    +0.002 C 
ATOM     14  C   UNL     1      35.967 -20.249 -20.483  0.00  0.00    +0.051 C 
ATOM     15  C   UNL     1      33.754 -21.159 -20.208  0.00  0.00    -0.002 C 
ATOM     16  C   UNL     1      36.516 -21.111 -19.553  0.00  0.00    +0.004 C 
ATOM     17  C   UNL     1      34.284 -22.043 -19.262  0.00  0.00    -0.000 C 
ATOM     18  C   UNL     1      35.653 -22.019 -18.938  0.00  0.00    +0.000 C 
ENDBRANCH   8  10
ENDBRANCH   2   8
BRANCH   1  19
ATOM     19  C   UNL     1      32.652 -12.758 -22.861  0.00  0.00    -0.006 C 
BRANCH  19  21
ATOM     20  O   UNL     1      34.133 -11.423 -24.220  0.00  0.00    -0.294 OA
ATOM     21  C   UNL     1      33.235 -11.457 -23.382  0.00  0.00    +0.152 C 
BRANCH  21  23
ATOM     22  F   UNL     1      31.196  -6.653 -21.399  0.00  0.00    -0.204 F 
ATOM     23  C   UNL     1      32.691 -10.172 -22.851  0.00  0.00    +0.033 C 
ATOM     24  C   UNL     1      32.548  -9.111 -23.716  0.00  0.00    +0.005 C 
ATOM     25  C   UNL     1      32.352 -10.099 -21.520  0.00  0.00    +0.005 C 
ATOM     26  C   UNL     1      32.038  -7.910 -23.221  0.00  0.00    +0.030 C 
ATOM     27  C   UNL     1      31.842  -8.900 -21.025  0.00  0.00    +0.030 C 
ATOM     28  C   UNL     1      31.685  -7.805 -21.875  0.00  0.00    +0.140 C 
ENDBRANCH  21  23
ENDBRANCH  19  21
ENDBRANCH   1  19
TORSDOF 5
ENDMDL
MODEL 9
REMARK VINA RESULT:     -12.1      3.805      6.394
REMARK  Name = 9799284
REMARK  5 active torsions:
REMARK  status: ('A' for Active; 'I' for Inactive)
REMARK    1  A    between atoms: N_1  and  C_19
REMARK    2  A    between atoms: C_2  and  C_8
REMARK    3  A    between atoms: C_8  and  N_10
REMARK    4  A    between atoms: C_19  and  C_21
REMARK    5  A    between atoms: C_21  and  C_23
REMARK                            x       y       z     vdW  Elec       q    Type
REMARK                         _______ _______ _______ _____ _____    ______ ____
ROOT
ATOM      1  N   UNL     1      35.306 -21.334 -19.916  0.00  0.00    +0.392 N 
ATOM      2  C   UNL     1      35.491 -19.190 -21.907  0.00  0.00    +0.016 C 
ATOM      3  C   UNL     1      36.712 -19.994 -21.449  0.00  0.00    -0.021 C 
ATOM      4  C   UNL     1      34.219 -20.022 -21.710  0.00  0.00    -0.021 C 
ATOM      5  C   UNL     1      36.527 -20.525 -20.026  0.00  0.00    -0.077 C 
ATOM      6  C   UNL     1      34.117 -20.551 -20.278  0.00  0.00    -0.077 C 
ATOM      7  H   UNL     1      35.383 -22.111 -20.573  0.00  0.00    -0.079 HD
ENDROOT
BRANCH   2   8
ATOM      8  C   UNL     1      35.637 -18.749 -23.361  0.00  0.00    +0.094 C 
BRANCH   8  10
ATOM      9  O   UNL     1      34.716 -17.334 -25.864  0.00  0.00    -0.270 OA
ATOM     10  N   UNL     1      35.163 -17.410 -23.541  0.00  0.00    -0.272 N 
ATOM     11  C   UNL     1      35.053 -16.469 -22.423  0.00  0.00    +0.121 C 
ATOM     12  C   UNL     1      34.754 -16.839 -24.753  0.00  0.00    +0.249 C 
ATOM     13  C   UNL     1      34.527 -15.242 -23.084  0.00  0.00    +0.002 C 
ATOM     14  C   UNL     1      34.352 -15.462 -24.451  0.00  0.00    +0.051 C 
ATOM     15  C   UNL     1      34.220 -14.013 -22.530  0.00  0.00    -0.002 C 
ATOM     16  C   UNL     1      33.875 -14.489 -25.308  0.00  0.00    +0.004 C 
ATOM     17  C   UNL     1      33.734 -13.011 -23.376  0.00  0.00    -0.000 C 
ATOM     18  C   UNL     1      33.563 -13.247 -24.753  0.00  0.00    +0.000 C 
ENDBRANCH   8  10
ENDBRANCH   2   8
BRANCH   1  19
ATOM     19  C   UNL     1      35.171 -21.876 -18.565  0.00  0.00    -0.006 C 
BRANCH  19  21
ATOM     20  O   UNL     1      33.875 -23.671 -19.527  0.00  0.00    -0.294 OA
ATOM     21  C   UNL     1      34.087 -22.939 -18.563  0.00  0.00    +0.152 C 
BRANCH  21  23
ATOM     22  F   UNL     1      30.954 -23.523 -13.979  0.00  0.00    -0.204 F 
ATOM     23  C   UNL     1      33.248 -23.096 -17.337  0.00  0.00    +0.033 C 
ATOM     24  C   UNL     1      33.864 -23.458 -16.161  0.00  0.00    +0.005 C 
ATOM     25  C   UNL     1      31.895 -22.871 -17.431  0.00  0.00    +0.005 C 
ATOM     26  C   UNL     1      33.082 -23.604 -15.015  0.00  0.00    +0.030 C 
ATOM     27  C   UNL     1      31.112 -23.016 -16.287  0.00  0.00    +0.030 C 
ATOM     28  C   UNL     1      31.705 -23.383 -15.078  0.00  0.00    +0.140 C 
ENDBRANCH  21  23
ENDBRANCH  19  21
ENDBRANCH   1  19
TORSDOF 5
ENDMDL
