MODEL 1
REMARK VINA RESULT:     -12.9      0.000      0.000
REMARK  Name = 16122642
REMARK  7 active torsions:
REMARK  status: ('A' for Active; 'I' for Inactive)
REMARK    1  A    between atoms: C_2  and  C_10
REMARK    2  A    between atoms: C_3  and  O_18
REMARK    3  A    between atoms: O_18  and  C_19
REMARK    4  A    between atoms: C_19  and  C_20
REMARK    5  A    between atoms: C_20  and  N_21
REMARK    6  A    between atoms: C_20  and  C_25
REMARK    7  A    between atoms: C_25  and  C_27
REMARK                            x       y       z     vdW  Elec       q    Type
REMARK                         _______ _______ _______ _____ _____    ______ ____
ROOT
ATOM      1  N   UNL     1      33.928 -15.524 -26.210  0.00  0.00    -0.239 NA
ATOM      2  C   UNL     1      33.626 -14.826 -23.922  0.00  0.00    +0.022 C 
ATOM      3  C   UNL     1      34.730 -16.904 -24.394  0.00  0.00    +0.158 C 
ATOM      4  C   UNL     1      34.259 -15.975 -23.472  0.00  0.00    +0.040 C 
ATOM      5  C   UNL     1      33.485 -14.644 -25.284  0.00  0.00    +0.099 C 
ATOM      6  C   UNL     1      34.541 -16.633 -25.740  0.00  0.00    +0.136 C 
ENDROOT
BRANCH   2  10
ATOM      7  N   UNL     1      31.794  -9.994 -21.290  0.00  0.00    -0.280 N 
ATOM      8  N   UNL     1      31.722 -11.002 -20.399  0.00  0.00    -0.173 NA
ATOM      9  C   UNL     1      32.502 -11.693 -22.417  0.00  0.00    +0.032 A 
ATOM     10  C   UNL     1      33.125 -13.839 -22.983  0.00  0.00    +0.002 C 
ATOM     11  C   UNL     1      32.157 -12.082 -21.071  0.00  0.00    +0.102 A 
ATOM     12  C   UNL     1      32.991 -12.509 -23.430  0.00  0.00    +0.003 C 
ATOM     13  C   UNL     1      32.258 -10.353 -22.522  0.00  0.00    +0.053 A 
ATOM     14  C   UNL     1      32.797 -14.274 -21.661  0.00  0.00    +0.002 C 
ATOM     15  C   UNL     1      32.302 -13.418 -20.653  0.00  0.00    +0.021 C 
ATOM     16  C   UNL     1      32.401  -9.379 -23.617  0.00  0.00    +0.051 C 
ATOM     17  H   UNL     1      31.534  -9.071 -21.069  0.00  0.00    +0.189 HD
ENDBRANCH   2  10
BRANCH   3  18
ATOM     18  O   UNL     1      35.353 -18.037 -23.989  0.00  0.00    -0.476 OA
BRANCH  18  19
ATOM     19  C   UNL     1      36.394 -17.901 -23.019  0.00  0.00    +0.184 C 
BRANCH  19  20
ATOM     20  C   UNL     1      36.032 -18.665 -21.740  0.00  0.00    -0.017 C 
BRANCH  20  21
ATOM     21  N   UNL     1      35.691 -17.689 -20.701  0.00  0.00    +0.384 N 
ATOM     22  H   UNL     1      35.837 -18.106 -19.782  0.00  0.00    -0.089 HD
ATOM     23  H   UNL     1      34.713 -17.417 -20.799  0.00  0.00    -0.089 HD
ATOM     24  H   UNL     1      36.285 -16.866 -20.799  0.00  0.00    -0.089 HD
ENDBRANCH  20  21
BRANCH  20  25
ATOM     25  C   UNL     1      34.831 -19.618 -21.921  0.00  0.00    +0.008 C 
BRANCH  25  27
ATOM     26 BR   UNL     1      33.807 -23.399 -17.153  0.00  0.00    -0.049 Br
ATOM     27  C   UNL     1      34.580 -20.544 -20.756  0.00  0.00    -0.024 C 
ATOM     28  C   UNL     1      33.278 -20.774 -20.339  0.00  0.00    -0.004 C 
ATOM     29  C   UNL     1      35.656 -21.144 -20.123  0.00  0.00    -0.004 C 
ATOM     30  C   UNL     1      33.047 -21.629 -19.262  0.00  0.00    +0.006 C 
ATOM     31  C   UNL     1      35.424 -21.999 -19.045  0.00  0.00    +0.006 C 
ATOM     32  C   UNL     1      34.120 -22.241 -18.615  0.00  0.00    +0.035 C 
ENDBRANCH  25  27
ENDBRANCH  20  25
ENDBRANCH  19  20
ENDBRANCH  18  19
ENDBRANCH   3  18
TORSDOF 7
ENDMDL
MODEL 2
REMARK VINA RESULT:     -12.8      3.778      9.086
REMARK  Name = 16122642
REMARK  7 active torsions:
REMARK  status: ('A' for Active; 'I' for Inactive)
REMARK    1  A    between atoms: C_2  and  C_10
REMARK    2  A    between atoms: C_3  and  O_18
REMARK    3  A    between atoms: O_18  and  C_19
REMARK    4  A    between atoms: C_19  and  C_20
REMARK    5  A    between atoms: C_20  and  N_21
REMARK    6  A    between atoms: C_20  and  C_25
REMARK    7  A    between atoms: C_25  and  C_27
REMARK                            x       y       z     vdW  Elec       q    Type
REMARK                         _______ _______ _______ _____ _____    ______ ____
ROOT
ATOM      1  N   UNL     1      34.350 -17.463 -25.544  0.00  0.00    -0.239 NA
ATOM      2  C   UNL     1      35.102 -17.756 -23.271  0.00  0.00    +0.022 C 
ATOM      3  C   UNL     1      34.625 -15.552 -24.090  0.00  0.00    +0.158 C 
ATOM      4  C   UNL     1      35.036 -16.388 -23.057  0.00  0.00    +0.040 C 
ATOM      5  C   UNL     1      34.753 -18.244 -24.516  0.00  0.00    +0.099 C 
ATOM      6  C   UNL     1      34.295 -16.134 -25.303  0.00  0.00    +0.136 C 
ENDROOT
BRANCH   2  10
ATOM      7  N   UNL     1      35.418 -21.738 -19.067  0.00  0.00    -0.280 N 
ATOM      8  N   UNL     1      36.647 -21.209 -19.228  0.00  0.00    -0.173 NA
ATOM      9  C   UNL     1      35.125 -20.296 -20.646  0.00  0.00    +0.032 A 
ATOM     10  C   UNL     1      35.527 -18.654 -22.213  0.00  0.00    +0.002 C 
ATOM     11  C   UNL     1      36.501 -20.302 -20.210  0.00  0.00    +0.102 A 
ATOM     12  C   UNL     1      34.562 -19.504 -21.639  0.00  0.00    +0.003 C 
ATOM     13  C   UNL     1      34.463 -21.225 -19.895  0.00  0.00    +0.053 A 
ATOM     14  C   UNL     1      36.901 -18.622 -21.817  0.00  0.00    +0.002 C 
ATOM     15  C   UNL     1      37.444 -19.441 -20.803  0.00  0.00    +0.021 C 
ATOM     16  C   UNL     1      33.066 -21.688 -19.856  0.00  0.00    +0.051 C 
ATOM     17  H   UNL     1      35.225 -22.439 -18.404  0.00  0.00    +0.189 HD
ENDBRANCH   2  10
BRANCH   3  18
ATOM     18  O   UNL     1      34.548 -14.210 -23.914  0.00  0.00    -0.476 OA
BRANCH  18  19
ATOM     19  C   UNL     1      34.041 -13.740 -22.663  0.00  0.00    +0.184 C 
BRANCH  19  20
ATOM     20  C   UNL     1      32.771 -12.909 -22.883  0.00  0.00    -0.017 C 
BRANCH  20  21
ATOM     21  N   UNL     1      31.877 -13.658 -23.771  0.00  0.00    +0.384 N 
ATOM     22  H   UNL     1      32.403 -13.994 -24.577  0.00  0.00    -0.089 HD
ATOM     23  H   UNL     1      31.123 -13.048 -24.087  0.00  0.00    -0.089 HD
ATOM     24  H   UNL     1      31.484 -14.452 -23.266  0.00  0.00    -0.089 HD
ENDBRANCH  20  21
BRANCH  20  25
ATOM     25  C   UNL     1      32.010 -12.605 -21.574  0.00  0.00    +0.008 C 
BRANCH  25  27
ATOM     26 BR   UNL     1      31.990  -6.658 -19.928  0.00  0.00    -0.049 Br
ATOM     27  C   UNL     1      32.004 -11.150 -21.173  0.00  0.00    -0.024 C 
ATOM     28  C   UNL     1      32.004 -10.173 -22.156  0.00  0.00    -0.004 C 
ATOM     29  C   UNL     1      32.001 -10.819 -19.828  0.00  0.00    -0.004 C 
ATOM     30  C   UNL     1      32.000  -8.829 -21.783  0.00  0.00    +0.006 C 
ATOM     31  C   UNL     1      31.996  -9.475 -19.455  0.00  0.00    +0.006 C 
ATOM     32  C   UNL     1      31.995  -8.480 -20.433  0.00  0.00    +0.035 C 
ENDBRANCH  25  27
ENDBRANCH  20  25
ENDBRANCH  19  20
ENDBRANCH  18  19
ENDBRANCH   3  18
TORSDOF 7
ENDMDL
MODEL 3
REMARK VINA RESULT:     -12.7      5.215     10.908
REMARK  Name = 16122642
REMARK  7 active torsions:
REMARK  status: ('A' for Active; 'I' for Inactive)
REMARK    1  A    between atoms: C_2  and  C_10
REMARK    2  A    between atoms: C_3  and  O_18
REMARK    3  A    between atoms: O_18  and  C_19
REMARK    4  A    between atoms: C_19  and  C_20
REMARK    5  A    between atoms: C_20  and  N_21
REMARK    6  A    between atoms: C_20  and  C_25
REMARK    7  A    between atoms: C_25  and  C_27
REMARK                            x       y       z     vdW  Elec       q    Type
REMARK                         _______ _______ _______ _____ _____    ______ ____
ROOT
ATOM      1  N   UNL     1      31.919 -12.276 -20.618  0.00  0.00    -0.239 NA
ATOM      2  C   UNL     1      32.836 -12.996 -22.729  0.00  0.00    +0.022 C 
ATOM      3  C   UNL     1      32.293 -10.682 -22.397  0.00  0.00    +0.158 C 
ATOM      4  C   UNL     1      32.780 -11.697 -23.213  0.00  0.00    +0.040 C 
ATOM      5  C   UNL     1      32.400 -13.236 -21.440  0.00  0.00    +0.099 C 
ATOM      6  C   UNL     1      31.879 -11.021 -21.118  0.00  0.00    +0.136 C 
ENDROOT
BRANCH   2  10
ATOM      7  N   UNL     1      35.343 -17.805 -24.782  0.00  0.00    -0.280 N 
ATOM      8  N   UNL     1      34.792 -17.151 -25.822  0.00  0.00    -0.173 NA
ATOM      9  C   UNL     1      34.466 -16.065 -23.854  0.00  0.00    +0.032 A 
ATOM     10  C   UNL     1      33.340 -14.076 -23.557  0.00  0.00    +0.002 C 
ATOM     11  C   UNL     1      34.233 -16.056 -25.278  0.00  0.00    +0.102 A 
ATOM     12  C   UNL     1      34.053 -15.115 -22.928  0.00  0.00    +0.003 C 
ATOM     13  C   UNL     1      35.177 -17.197 -23.572  0.00  0.00    +0.053 A 
ATOM     14  C   UNL     1      33.083 -14.020 -24.963  0.00  0.00    +0.002 C 
ATOM     15  C   UNL     1      33.517 -15.004 -25.879  0.00  0.00    +0.021 C 
ATOM     16  C   UNL     1      35.714 -17.773 -22.328  0.00  0.00    +0.051 C 
ATOM     17  H   UNL     1      35.828 -18.655 -24.886  0.00  0.00    +0.189 HD
ENDBRANCH   2  10
BRANCH   3  18
ATOM     18  O   UNL     1      32.225  -9.402 -22.838  0.00  0.00    -0.476 OA
BRANCH  18  19
ATOM     19  C   UNL     1      31.751  -8.416 -21.918  0.00  0.00    +0.184 C 
BRANCH  19  20
ATOM     20  C   UNL     1      32.854  -7.395 -21.618  0.00  0.00    -0.017 C 
BRANCH  20  21
ATOM     21  N   UNL     1      33.335  -7.623 -20.252  0.00  0.00    +0.384 N 
ATOM     22  H   UNL     1      32.539  -7.744 -19.628  0.00  0.00    -0.089 HD
ATOM     23  H   UNL     1      33.886  -6.821 -19.947  0.00  0.00    -0.089 HD
ATOM     24  H   UNL     1      33.915  -8.462 -20.231  0.00  0.00    -0.089 HD
ENDBRANCH  20  21
BRANCH  20  25
ATOM     25  C   UNL     1      34.058  -7.501 -22.579  0.00  0.00    +0.008 C 
BRANCH  25  27
ATOM     26 BR   UNL     1      33.652  -3.967 -27.621  0.00  0.00    -0.049 Br
ATOM     27  C   UNL     1      33.958  -6.636 -23.811  0.00  0.00    -0.024 C 
ATOM     28  C   UNL     1      32.807  -5.896 -24.031  0.00  0.00    -0.004 C 
ATOM     29  C   UNL     1      35.019  -6.599 -24.700  0.00  0.00    -0.004 C 
ATOM     30  C   UNL     1      32.715  -5.097 -25.171  0.00  0.00    +0.006 C 
ATOM     31  C   UNL     1      34.928  -5.800 -25.840  0.00  0.00    +0.006 C 
ATOM     32  C   UNL     1      33.776  -5.049 -26.075  0.00  0.00    +0.035 C 
ENDBRANCH  25  27
ENDBRANCH  20  25
ENDBRANCH  19  20
ENDBRANCH  18  19
ENDBRANCH   3  18
TORSDOF 7
ENDMDL
MODEL 4
REMARK VINA RESULT:     -12.5      2.731      5.335
REMARK  Name = 16122642
REMARK  7 active torsions:
REMARK  status: ('A' for Active; 'I' for Inactive)
REMARK    1  A    between atoms: C_2  and  C_10
REMARK    2  A    between atoms: C_3  and  O_18
REMARK    3  A    between atoms: O_18  and  C_19
REMARK    4  A    between atoms: C_19  and  C_20
REMARK    5  A    between atoms: C_20  and  N_21
REMARK    6  A    between atoms: C_20  and  C_25
REMARK    7  A    between atoms: C_25  and  C_27
REMARK                            x       y       z     vdW  Elec       q    Type
REMARK                         _______ _______ _______ _____ _____    ______ ____
ROOT
ATOM      1  N   UNL     1      31.962 -12.751 -21.329  0.00  0.00    -0.239 NA
ATOM      2  C   UNL     1      32.251 -10.649 -22.477  0.00  0.00    +0.022 C 
ATOM      3  C   UNL     1      33.343 -12.617 -23.309  0.00  0.00    +0.158 C 
ATOM      4  C   UNL     1      33.074 -11.257 -23.413  0.00  0.00    +0.040 C 
ATOM      5  C   UNL     1      31.723 -11.427 -21.464  0.00  0.00    +0.099 C 
ATOM      6  C   UNL     1      32.767 -13.313 -22.258  0.00  0.00    +0.136 C 
ENDROOT
BRANCH   2  10
ATOM      7  N   UNL     1      31.490  -4.995 -21.438  0.00  0.00    -0.280 N 
ATOM      8  N   UNL     1      31.129  -5.232 -22.715  0.00  0.00    -0.173 NA
ATOM      9  C   UNL     1      31.830  -7.115 -21.655  0.00  0.00    +0.032 A 
ATOM     10  C   UNL     1      31.951  -9.232 -22.559  0.00  0.00    +0.002 C 
ATOM     11  C   UNL     1      31.330  -6.551 -22.885  0.00  0.00    +0.102 A 
ATOM     12  C   UNL     1      32.163  -8.442 -21.412  0.00  0.00    +0.003 C 
ATOM     13  C   UNL     1      31.919  -6.093 -20.753  0.00  0.00    +0.053 A 
ATOM     14  C   UNL     1      31.458  -8.721 -23.801  0.00  0.00    +0.002 C 
ATOM     15  C   UNL     1      31.128  -7.365 -24.015  0.00  0.00    +0.021 C 
ATOM     16  C   UNL     1      32.352  -6.016 -19.347  0.00  0.00    +0.051 C 
ATOM     17  H   UNL     1      31.445  -4.100 -21.032  0.00  0.00    +0.189 HD
ENDBRANCH   2  10
BRANCH   3  18
ATOM     18  O   UNL     1      34.142 -13.242 -24.208  0.00  0.00    -0.476 OA
BRANCH  18  19
ATOM     19  C   UNL     1      33.522 -13.766 -25.384  0.00  0.00    +0.184 C 
BRANCH  19  20
ATOM     20  C   UNL     1      33.393 -15.291 -25.283  0.00  0.00    -0.017 C 
BRANCH  20  21
ATOM     21  N   UNL     1      32.629 -15.768 -26.439  0.00  0.00    +0.384 N 
ATOM     22  H   UNL     1      31.633 -15.652 -26.259  0.00  0.00    -0.089 HD
ATOM     23  H   UNL     1      32.833 -16.754 -26.598  0.00  0.00    -0.089 HD
ATOM     24  H   UNL     1      32.891 -15.229 -27.265  0.00  0.00    -0.089 HD
ENDBRANCH  20  21
BRANCH  20  25
ATOM     25  C   UNL     1      34.756 -16.016 -25.271  0.00  0.00    +0.008 C 
BRANCH  25  27
ATOM     26 BR   UNL     1      35.368 -20.268 -20.841  0.00  0.00    -0.049 Br
ATOM     27  C   UNL     1      34.906 -17.057 -24.188  0.00  0.00    -0.024 C 
ATOM     28  C   UNL     1      34.765 -18.397 -24.509  0.00  0.00    -0.004 C 
ATOM     29  C   UNL     1      35.182 -16.651 -22.893  0.00  0.00    -0.004 C 
ATOM     30  C   UNL     1      34.903 -19.358 -23.508  0.00  0.00    +0.006 C 
ATOM     31  C   UNL     1      35.320 -17.612 -21.891  0.00  0.00    +0.006 C 
ATOM     32  C   UNL     1      35.182 -18.965 -22.199  0.00  0.00    +0.035 C 
ENDBRANCH  25  27
ENDBRANCH  20  25
ENDBRANCH  19  20
ENDBRANCH  18  19
ENDBRANCH   3  18
TORSDOF 7
ENDMDL
MODEL 5
REMARK VINA RESULT:     -12.2      3.528      6.709
REMARK  Name = 16122642
REMARK  7 active torsions:
REMARK  status: ('A' for Active; 'I' for Inactive)
REMARK    1  A    between atoms: C_2  and  C_10
REMARK    2  A    between atoms: C_3  and  O_18
REMARK    3  A    between atoms: O_18  and  C_19
REMARK    4  A    between atoms: C_19  and  C_20
REMARK    5  A    between atoms: C_20  and  N_21
REMARK    6  A    between atoms: C_20  and  C_25
REMARK    7  A    between atoms: C_25  and  C_27
REMARK                            x       y       z     vdW  Elec       q    Type
REMARK                         _______ _______ _______ _____ _____    ______ ____
ROOT
ATOM      1  N   UNL     1      33.092 -21.808 -19.623  0.00  0.00    -0.239 NA
ATOM      2  C   UNL     1      34.562 -20.277 -20.767  0.00  0.00    +0.022 C 
ATOM      3  C   UNL     1      35.461 -21.793 -19.139  0.00  0.00    +0.158 C 
ATOM      4  C   UNL     1      35.650 -20.774 -20.066  0.00  0.00    +0.040 C 
ATOM      5  C   UNL     1      33.316 -20.819 -20.516  0.00  0.00    +0.099 C 
ATOM      6  C   UNL     1      34.173 -22.272 -18.956  0.00  0.00    +0.136 C 
ENDROOT
BRANCH   2  10
ATOM      7  N   UNL     1      35.040 -15.190 -23.511  0.00  0.00    -0.280 N 
ATOM      8  N   UNL     1      35.187 -16.168 -24.426  0.00  0.00    -0.173 NA
ATOM      9  C   UNL     1      34.837 -16.991 -22.338  0.00  0.00    +0.032 A 
ATOM     10  C   UNL     1      34.728 -19.215 -21.742  0.00  0.00    +0.002 C 
ATOM     11  C   UNL     1      35.066 -17.310 -23.726  0.00  0.00    +0.102 A 
ATOM     12  C   UNL     1      34.660 -17.882 -21.288  0.00  0.00    +0.003 C 
ATOM     13  C   UNL     1      34.827 -15.628 -22.237  0.00  0.00    +0.053 A 
ATOM     14  C   UNL     1      34.952 -19.583 -23.105  0.00  0.00    +0.002 C 
ATOM     15  C   UNL     1      35.130 -18.650 -24.151  0.00  0.00    +0.021 C 
ATOM     16  C   UNL     1      34.646 -14.697 -21.111  0.00  0.00    +0.051 C 
ATOM     17  H   UNL     1      35.083 -14.235 -23.744  0.00  0.00    +0.189 HD
ENDBRANCH   2  10
BRANCH   3  18
ATOM     18  O   UNL     1      36.502 -22.302 -18.437  0.00  0.00    -0.476 OA
BRANCH  18  19
ATOM     19  C   UNL     1      36.586 -21.965 -17.051  0.00  0.00    +0.184 C 
BRANCH  19  20
ATOM     20  C   UNL     1      36.366 -23.213 -16.186  0.00  0.00    -0.017 C 
BRANCH  20  21
ATOM     21  N   UNL     1      37.676 -23.738 -15.792  0.00  0.00    +0.384 N 
ATOM     22  H   UNL     1      38.387 -23.022 -15.939  0.00  0.00    -0.089 HD
ATOM     23  H   UNL     1      37.898 -24.558 -16.358  0.00  0.00    -0.089 HD
ATOM     24  H   UNL     1      37.655 -24.001 -14.807  0.00  0.00    -0.089 HD
ENDBRANCH  20  21
BRANCH  20  25
ATOM     25  C   UNL     1      35.553 -22.928 -14.905  0.00  0.00    +0.008 C 
BRANCH  25  27
ATOM     26 BR   UNL     1      29.816 -25.201 -14.932  0.00  0.00    -0.049 Br
ATOM     27  C   UNL     1      34.150 -23.485 -14.913  0.00  0.00    -0.024 C 
ATOM     28  C   UNL     1      33.296 -23.161 -15.955  0.00  0.00    -0.004 C 
ATOM     29  C   UNL     1      33.742 -24.308 -13.876  0.00  0.00    -0.004 C 
ATOM     30  C   UNL     1      31.999 -23.674 -15.961  0.00  0.00    +0.006 C 
ATOM     31  C   UNL     1      32.445 -24.821 -13.882  0.00  0.00    +0.006 C 
ATOM     32  C   UNL     1      31.574 -24.505 -14.924  0.00  0.00    +0.035 C 
ENDBRANCH  25  27
ENDBRANCH  20  25
ENDBRANCH  19  20
ENDBRANCH  18  19
ENDBRANCH   3  18
TORSDOF 7
ENDMDL
MODEL 6
REMARK VINA RESULT:     -12.1      4.041      9.645
REMARK  Name = 16122642
REMARK  7 active torsions:
REMARK  status: ('A' for Active; 'I' for Inactive)
REMARK    1  A    between atoms: C_2  and  C_10
REMARK    2  A    between atoms: C_3  and  O_18
REMARK    3  A    between atoms: O_18  and  C_19
REMARK    4  A    between atoms: C_19  and  C_20
REMARK    5  A    between atoms: C_20  and  N_21
REMARK    6  A    between atoms: C_20  and  C_25
REMARK    7  A    between atoms: C_25  and  C_27
REMARK                            x       y       z     vdW  Elec       q    Type
REMARK                         _______ _______ _______ _____ _____    ______ ____
ROOT
ATOM      1  N   UNL     1      34.522 -16.715 -25.869  0.00  0.00    -0.239 NA
ATOM      2  C   UNL     1      35.014 -17.182 -23.555  0.00  0.00    +0.022 C 
ATOM      3  C   UNL     1      34.215 -15.008 -24.184  0.00  0.00    +0.158 C 
ATOM      4  C   UNL     1      34.647 -15.892 -23.201  0.00  0.00    +0.040 C 
ATOM      5  C   UNL     1      34.936 -17.545 -24.885  0.00  0.00    +0.099 C 
ATOM      6  C   UNL     1      34.171 -15.465 -25.492  0.00  0.00    +0.136 C 
ENDROOT
BRANCH   2  10
ATOM      7  N   UNL     1      35.432 -21.290 -19.483  0.00  0.00    -0.280 N 
ATOM      8  N   UNL     1      36.669 -20.811 -19.715  0.00  0.00    -0.173 NA
ATOM      9  C   UNL     1      35.099 -19.792 -21.001  0.00  0.00    +0.032 A 
ATOM     10  C   UNL     1      35.468 -18.127 -22.551  0.00  0.00    +0.002 C 
ATOM     11  C   UNL     1      36.499 -19.871 -20.661  0.00  0.00    +0.102 A 
ATOM     12  C   UNL     1      34.506 -18.950 -21.933  0.00  0.00    +0.003 C 
ATOM     13  C   UNL     1      34.447 -20.713 -20.230  0.00  0.00    +0.053 A 
ATOM     14  C   UNL     1      36.865 -18.166 -22.249  0.00  0.00    +0.002 C 
ATOM     15  C   UNL     1      37.437 -19.036 -21.295  0.00  0.00    +0.021 C 
ATOM     16  C   UNL     1      33.036 -21.115 -20.107  0.00  0.00    +0.051 C 
ATOM     17  H   UNL     1      35.252 -22.000 -18.826  0.00  0.00    +0.189 HD
ENDBRANCH   2  10
BRANCH   3  18
ATOM     18  O   UNL     1      33.848 -13.741 -23.873  0.00  0.00    -0.476 OA
BRANCH  18  19
ATOM     19  C   UNL     1      32.498 -13.534 -23.451  0.00  0.00    +0.184 C 
BRANCH  19  20
ATOM     20  C   UNL     1      32.334 -12.125 -22.868  0.00  0.00    -0.017 C 
BRANCH  20  21
ATOM     21  N   UNL     1      32.431 -12.216 -21.408  0.00  0.00    +0.384 N 
ATOM     22  H   UNL     1      33.053 -12.983 -21.156  0.00  0.00    -0.089 HD
ATOM     23  H   UNL     1      31.505 -12.387 -21.016  0.00  0.00    -0.089 HD
ATOM     24  H   UNL     1      32.802 -11.341 -21.036  0.00  0.00    -0.089 HD
ENDBRANCH  20  21
BRANCH  20  25
ATOM     25  C   UNL     1      33.409 -11.134 -23.363  0.00  0.00    +0.008 C 
BRANCH  25  27
ATOM     26 BR   UNL     1      31.769  -5.192 -23.071  0.00  0.00    -0.049 Br
ATOM     27  C   UNL     1      33.007  -9.681 -23.291  0.00  0.00    -0.024 C 
ATOM     28  C   UNL     1      31.664  -9.350 -23.213  0.00  0.00    -0.004 C 
ATOM     29  C   UNL     1      33.990  -8.705 -23.305  0.00  0.00    -0.004 C 
ATOM     30  C   UNL     1      31.293  -8.007 -23.147  0.00  0.00    +0.006 C 
ATOM     31  C   UNL     1      33.619  -7.361 -23.239  0.00  0.00    +0.006 C 
ATOM     32  C   UNL     1      32.271  -7.013 -23.160  0.00  0.00    +0.035 C 
ENDBRANCH  25  27
ENDBRANCH  20  25
ENDBRANCH  19  20
ENDBRANCH  18  19
ENDBRANCH   3  18
TORSDOF 7
ENDMDL
MODEL 7
REMARK VINA RESULT:     -12.0      3.427      6.692
REMARK  Name = 16122642
REMARK  7 active torsions:
REMARK  status: ('A' for Active; 'I' for Inactive)
REMARK    1  A    between atoms: C_2  and  C_10
REMARK    2  A    between atoms: C_3  and  O_18
REMARK    3  A    between atoms: O_18  and  C_19
REMARK    4  A    between atoms: C_19  and  C_20
REMARK    5  A    between atoms: C_20  and  N_21
REMARK    6  A    between atoms: C_20  and  C_25
REMARK    7  A    between atoms: C_25  and  C_27
REMARK                            x       y       z     vdW  Elec       q    Type
REMARK                         _______ _______ _______ _____ _____    ______ ____
ROOT
ATOM      1  N   UNL     1      36.533 -21.402 -19.419  0.00  0.00    -0.239 NA
ATOM      2  C   UNL     1      35.151 -20.081 -20.889  0.00  0.00    +0.022 C 
ATOM      3  C   UNL     1      34.149 -21.789 -19.533  0.00  0.00    +0.158 C 
ATOM      4  C   UNL     1      34.023 -20.776 -20.478  0.00  0.00    +0.040 C 
ATOM      5  C   UNL     1      36.371 -20.424 -20.339  0.00  0.00    +0.099 C 
ATOM      6  C   UNL     1      35.416 -22.060 -19.039  0.00  0.00    +0.136 C 
ENDROOT
BRANCH   2  10
ATOM      7  N   UNL     1      34.691 -15.002 -23.650  0.00  0.00    -0.280 N 
ATOM      8  N   UNL     1      34.763 -15.973 -24.582  0.00  0.00    -0.173 NA
ATOM      9  C   UNL     1      34.855 -16.801 -22.468  0.00  0.00    +0.032 A 
ATOM     10  C   UNL     1      35.050 -19.019 -21.872  0.00  0.00    +0.002 C 
ATOM     11  C   UNL     1      34.868 -17.114 -23.877  0.00  0.00    +0.102 A 
ATOM     12  C   UNL     1      34.943 -17.693 -21.407  0.00  0.00    +0.003 C 
ATOM     13  C   UNL     1      34.742 -15.443 -22.360  0.00  0.00    +0.053 A 
ATOM     14  C   UNL     1      35.067 -19.381 -23.256  0.00  0.00    +0.002 C 
ATOM     15  C   UNL     1      34.977 -18.448 -24.312  0.00  0.00    +0.021 C 
ATOM     16  C   UNL     1      34.676 -14.519 -21.216  0.00  0.00    +0.051 C 
ATOM     17  H   UNL     1      34.607 -14.050 -23.882  0.00  0.00    +0.189 HD
ENDBRANCH   2  10
BRANCH   3  18
ATOM     18  O   UNL     1      33.068 -22.488 -19.109  0.00  0.00    -0.476 OA
BRANCH  18  19
ATOM     19  C   UNL     1      33.258 -23.392 -18.018  0.00  0.00    +0.184 C 
BRANCH  19  20
ATOM     20  C   UNL     1      32.641 -22.816 -16.737  0.00  0.00    -0.017 C 
BRANCH  20  21
ATOM     21  N   UNL     1      31.182 -22.855 -16.871  0.00  0.00    +0.384 N 
ATOM     22  H   UNL     1      30.933 -22.960 -17.854  0.00  0.00    -0.089 HD
ATOM     23  H   UNL     1      30.784 -21.987 -16.511  0.00  0.00    -0.089 HD
ATOM     24  H   UNL     1      30.812 -23.644 -16.341  0.00  0.00    -0.089 HD
ENDBRANCH  20  21
BRANCH  20  25
ATOM     25  C   UNL     1      33.032 -23.603 -15.468  0.00  0.00    +0.008 C 
BRANCH  25  27
ATOM     26 BR   UNL     1      39.063 -24.791 -14.932  0.00  0.00    -0.049 Br
ATOM     27  C   UNL     1      34.507 -23.893 -15.336  0.00  0.00    -0.024 C 
ATOM     28  C   UNL     1      35.411 -22.843 -15.365  0.00  0.00    -0.004 C 
ATOM     29  C   UNL     1      34.930 -25.204 -15.191  0.00  0.00    -0.004 C 
ATOM     30  C   UNL     1      36.774 -23.112 -15.244  0.00  0.00    +0.006 C 
ATOM     31  C   UNL     1      36.293 -25.473 -15.070  0.00  0.00    +0.006 C 
ATOM     32  C   UNL     1      37.215 -24.427 -15.096  0.00  0.00    +0.035 C 
ENDBRANCH  25  27
ENDBRANCH  20  25
ENDBRANCH  19  20
ENDBRANCH  18  19
ENDBRANCH   3  18
TORSDOF 7
ENDMDL
MODEL 8
REMARK VINA RESULT:     -12.0      5.611     11.652
REMARK  Name = 16122642
REMARK  7 active torsions:
REMARK  status: ('A' for Active; 'I' for Inactive)
REMARK    1  A    between atoms: C_2  and  C_10
REMARK    2  A    between atoms: C_3  and  O_18
REMARK    3  A    between atoms: O_18  and  C_19
REMARK    4  A    between atoms: C_19  and  C_20
REMARK    5  A    between atoms: C_20  and  N_21
REMARK    6  A    between atoms: C_20  and  C_25
REMARK    7  A    between atoms: C_25  and  C_27
REMARK                            x       y       z     vdW  Elec       q    Type
REMARK                         _______ _______ _______ _____ _____    ______ ____
ROOT
ATOM      1  N   UNL     1      31.590 -23.535 -15.498  0.00  0.00    -0.239 NA
ATOM      2  C   UNL     1      34.001 -23.505 -15.534  0.00  0.00    +0.022 C 
ATOM      3  C   UNL     1      32.776 -22.909 -17.509  0.00  0.00    +0.158 C 
ATOM      4  C   UNL     1      33.991 -23.099 -16.860  0.00  0.00    +0.040 C 
ATOM      5  C   UNL     1      32.790 -23.708 -14.900  0.00  0.00    +0.099 C 
ATOM      6  C   UNL     1      31.614 -23.138 -16.790  0.00  0.00    +0.136 C 
ENDROOT
BRANCH   2  10
ATOM      7  N   UNL     1      38.141 -24.400 -11.572  0.00  0.00    -0.280 N 
ATOM      8  N   UNL     1      38.737 -24.295 -12.776  0.00  0.00    -0.173 NA
ATOM      9  C   UNL     1      36.480 -24.073 -12.912  0.00  0.00    +0.032 A 
ATOM     10  C   UNL     1      35.253 -23.711 -14.829  0.00  0.00    +0.002 C 
ATOM     11  C   UNL     1      37.727 -24.091 -13.639  0.00  0.00    +0.102 A 
ATOM     12  C   UNL     1      35.205 -23.890 -13.433  0.00  0.00    +0.003 C 
ATOM     13  C   UNL     1      36.782 -24.274 -11.595  0.00  0.00    +0.053 A 
ATOM     14  C   UNL     1      36.461 -23.720 -15.595  0.00  0.00    +0.002 C 
ATOM     15  C   UNL     1      37.743 -23.909 -15.035  0.00  0.00    +0.021 C 
ATOM     16  C   UNL     1      35.969 -24.362 -10.371  0.00  0.00    +0.051 C 
ATOM     17  H   UNL     1      38.645 -24.553 -10.742  0.00  0.00    +0.189 HD
ENDBRANCH   2  10
BRANCH   3  18
ATOM     18  O   UNL     1      32.731 -22.512 -18.804  0.00  0.00    -0.476 OA
BRANCH  18  19
ATOM     19  C   UNL     1      33.978 -22.290 -19.466  0.00  0.00    +0.184 C 
BRANCH  19  20
ATOM     20  C   UNL     1      33.826 -21.201 -20.535  0.00  0.00    -0.017 C 
BRANCH  20  21
ATOM     21  N   UNL     1      32.651 -20.389 -20.203  0.00  0.00    +0.384 N 
ATOM     22  H   UNL     1      32.916 -19.406 -20.173  0.00  0.00    -0.089 HD
ATOM     23  H   UNL     1      32.289 -20.673 -19.293  0.00  0.00    -0.089 HD
ATOM     24  H   UNL     1      31.932 -20.526 -20.914  0.00  0.00    -0.089 HD
ENDBRANCH  20  21
BRANCH  20  25
ATOM     25  C   UNL     1      35.050 -20.265 -20.627  0.00  0.00    +0.008 C 
BRANCH  25  27
ATOM     26 BR   UNL     1      34.824 -16.180 -25.245  0.00  0.00    -0.049 Br
ATOM     27  C   UNL     1      34.996 -19.265 -21.756  0.00  0.00    -0.024 C 
ATOM     28  C   UNL     1      35.107 -17.913 -21.473  0.00  0.00    -0.004 C 
ATOM     29  C   UNL     1      34.834 -19.719 -23.055  0.00  0.00    -0.004 C 
ATOM     30  C   UNL     1      35.056 -16.990 -22.517  0.00  0.00    +0.006 C 
ATOM     31  C   UNL     1      34.783 -18.795 -24.099  0.00  0.00    +0.006 C 
ATOM     32  C   UNL     1      34.894 -17.431 -23.830  0.00  0.00    +0.035 C 
ENDBRANCH  25  27
ENDBRANCH  20  25
ENDBRANCH  19  20
ENDBRANCH  18  19
ENDBRANCH   3  18
TORSDOF 7
ENDMDL
MODEL 9
REMARK VINA RESULT:     -11.8      5.056     11.166
REMARK  Name = 16122642
REMARK  7 active torsions:
REMARK  status: ('A' for Active; 'I' for Inactive)
REMARK    1  A    between atoms: C_2  and  C_10
REMARK    2  A    between atoms: C_3  and  O_18
REMARK    3  A    between atoms: O_18  and  C_19
REMARK    4  A    between atoms: C_19  and  C_20
REMARK    5  A    between atoms: C_20  and  N_21
REMARK    6  A    between atoms: C_20  and  C_25
REMARK    7  A    between atoms: C_25  and  C_27
REMARK                            x       y       z     vdW  Elec       q    Type
REMARK                         _______ _______ _______ _____ _____    ______ ____
ROOT
ATOM      1  N   UNL     1      32.883 -22.651 -18.721  0.00  0.00    -0.239 NA
ATOM      2  C   UNL     1      34.596 -22.986 -17.057  0.00  0.00    +0.022 C 
ATOM      3  C   UNL     1      35.073 -21.668 -19.005  0.00  0.00    +0.158 C 
ATOM      4  C   UNL     1      35.485 -22.221 -17.797  0.00  0.00    +0.040 C 
ATOM      5  C   UNL     1      33.319 -23.172 -17.552  0.00  0.00    +0.099 C 
ATOM      6  C   UNL     1      33.773 -21.911 -19.418  0.00  0.00    +0.136 C 
ENDROOT
BRANCH   2  10
ATOM      7  N   UNL     1      37.473 -25.434 -12.657  0.00  0.00    -0.280 N 
ATOM      8  N   UNL     1      36.199 -25.245 -12.263  0.00  0.00    -0.173 NA
ATOM      9  C   UNL     1      36.556 -24.529 -14.389  0.00  0.00    +0.032 A 
ATOM     10  C   UNL     1      34.996 -23.575 -15.793  0.00  0.00    +0.002 C 
ATOM     11  C   UNL     1      35.595 -24.679 -13.322  0.00  0.00    +0.102 A 
ATOM     12  C   UNL     1      36.336 -23.988 -15.649  0.00  0.00    +0.003 C 
ATOM     13  C   UNL     1      37.744 -25.021 -13.929  0.00  0.00    +0.053 A 
ATOM     14  C   UNL     1      34.007 -23.702 -14.768  0.00  0.00    +0.002 C 
ATOM     15  C   UNL     1      34.264 -24.257 -13.495  0.00  0.00    +0.021 C 
ATOM     16  C   UNL     1      39.085 -25.152 -14.523  0.00  0.00    +0.051 C 
ATOM     17  H   UNL     1      38.154 -25.840 -12.075  0.00  0.00    +0.189 HD
ENDBRANCH   2  10
BRANCH   3  18
ATOM     18  O   UNL     1      35.916 -20.915 -19.752  0.00  0.00    -0.476 OA
BRANCH  18  19
ATOM     19  C   UNL     1      35.387 -20.320 -20.939  0.00  0.00    +0.184 C 
BRANCH  19  20
ATOM     20  C   UNL     1      36.098 -18.993 -21.231  0.00  0.00    -0.017 C 
BRANCH  20  21
ATOM     21  N   UNL     1      37.379 -18.990 -20.519  0.00  0.00    +0.384 N 
ATOM     22  H   UNL     1      37.967 -19.743 -20.874  0.00  0.00    -0.089 HD
ATOM     23  H   UNL     1      37.214 -19.128 -19.522  0.00  0.00    -0.089 HD
ATOM     24  H   UNL     1      37.848 -18.095 -20.666  0.00  0.00    -0.089 HD
ENDBRANCH  20  21
BRANCH  20  25
ATOM     25  C   UNL     1      36.379 -18.772 -22.733  0.00  0.00    +0.008 C 
BRANCH  25  27
ATOM     26 BR   UNL     1      33.133 -14.203 -25.314  0.00  0.00    -0.049 Br
ATOM     27  C   UNL     1      35.584 -17.655 -23.365  0.00  0.00    -0.024 C 
ATOM     28  C   UNL     1      35.058 -17.829 -24.635  0.00  0.00    -0.004 C 
ATOM     29  C   UNL     1      35.396 -16.477 -22.662  0.00  0.00    -0.004 C 
ATOM     30  C   UNL     1      34.325 -16.796 -25.218  0.00  0.00    +0.006 C 
ATOM     31  C   UNL     1      34.662 -15.443 -23.245  0.00  0.00    +0.006 C 
ATOM     32  C   UNL     1      34.126 -15.603 -24.523  0.00  0.00    +0.035 C 
ENDBRANCH  25  27
ENDBRANCH  20  25
ENDBRANCH  19  20
ENDBRANCH  18  19
ENDBRANCH   3  18
TORSDOF 7
ENDMDL
