MODEL 1
REMARK VINA RESULT:     -13.5      0.000      0.000
REMARK  Name = 24779676
REMARK  4 active torsions:
REMARK  status: ('A' for Active; 'I' for Inactive)
REMARK    1  A    between atoms: N_2  and  C_22
REMARK    2  A    between atoms: N_3  and  C_14
REMARK    3  A    between atoms: C_10  and  C_21
REMARK    4  A    between atoms: C_22  and  C_24
REMARK                            x       y       z     vdW  Elec       q    Type
REMARK                         _______ _______ _______ _____ _____    ______ ____
ROOT
ATOM      1  N   UNL     1      32.491 -24.465 -14.286  0.00  0.00    -0.123 N 
ATOM      2  N   UNL     1      34.303 -22.939 -17.512  0.00  0.00    -0.254 N 
ATOM      3  N   UNL     1      34.526 -24.636 -13.102  0.00  0.00    -0.274 N 
ATOM      4  N   UNL     1      34.421 -23.786 -15.311  0.00  0.00    -0.295 NA
ATOM      5  N   UNL     1      32.342 -23.628 -16.479  0.00  0.00    -0.314 NA
ATOM      6  N   UNL     1      31.779 -24.968 -13.262  0.00  0.00    -0.170 NA
ATOM      7  C   UNL     1      33.864 -24.283 -14.245  0.00  0.00    +0.279 C 
ATOM      8  C   UNL     1      31.744 -24.144 -15.382  0.00  0.00    +0.219 C 
ATOM      9  C   UNL     1      33.646 -23.462 -16.423  0.00  0.00    +0.203 C 
ATOM     10  C   UNL     1      30.447 -24.462 -15.050  0.00  0.00    +0.203 C 
ATOM     11  C   UNL     1      30.529 -24.964 -13.735  0.00  0.00    +0.116 C 
ATOM     12  H   UNL     1      35.279 -22.816 -17.467  0.00  0.00    +0.161 HD
ATOM     13  H   UNL     1      33.978 -25.001 -12.370  0.00  0.00    +0.156 HD
ENDROOT
BRANCH   3  14
ATOM     14  C   UNL     1      35.898 -24.535 -12.862  0.00  0.00    +0.051 C 
ATOM     15  C   UNL     1      36.419 -23.388 -12.263  0.00  0.00    +0.015 C 
ATOM     16  C   UNL     1      36.748 -25.582 -13.222  0.00  0.00    +0.015 C 
ATOM     17  C   UNL     1      37.789 -23.289 -12.022  0.00  0.00    +0.001 C 
ATOM     18  C   UNL     1      38.118 -25.482 -12.981  0.00  0.00    +0.001 C 
ATOM     19  C   UNL     1      38.639 -24.335 -12.381  0.00  0.00    +0.000 C 
ENDBRANCH   3  14
BRANCH  10  21
ATOM     20  N   UNL     1      28.357 -24.182 -16.538  0.00  0.00    -0.195 NA
ATOM     21  C   UNL     1      29.297 -24.308 -15.869  0.00  0.00    +0.087 C 
ENDBRANCH  10  21
BRANCH   2  22
ATOM     22  C   UNL     1      33.615 -22.569 -18.709  0.00  0.00    +0.125 C 
BRANCH  22  24
ATOM     23 CL   UNL     1      36.895 -18.678 -21.914  0.00  0.00    -0.082 Cl
ATOM     24  C   UNL     1      34.435 -21.597 -19.509  0.00  0.00    -0.002 C 
ATOM     25  C   UNL     1      35.826 -21.609 -19.410  0.00  0.00    -0.002 C 
ATOM     26  C   UNL     1      33.804 -20.681 -20.353  0.00  0.00    -0.002 C 
ATOM     27  C   UNL     1      36.587 -20.706 -20.153  0.00  0.00    +0.011 C 
ATOM     28  C   UNL     1      34.565 -19.779 -21.096  0.00  0.00    +0.011 C 
ATOM     29  C   UNL     1      35.956 -19.792 -20.996  0.00  0.00    +0.058 C 
ENDBRANCH  22  24
ENDBRANCH   2  22
TORSDOF 4
ENDMDL
MODEL 2
REMARK VINA RESULT:     -12.3      1.633      5.495
REMARK  Name = 24779676
REMARK  4 active torsions:
REMARK  status: ('A' for Active; 'I' for Inactive)
REMARK    1  A    between atoms: N_2  and  C_22
REMARK    2  A    between atoms: N_3  and  C_14
REMARK    3  A    between atoms: C_10  and  C_21
REMARK    4  A    between atoms: C_22  and  C_24
REMARK                            x       y       z     vdW  Elec       q    Type
REMARK                         _______ _______ _______ _____ _____    ______ ____
ROOT
ATOM      1  N   UNL     1      34.345 -24.065 -14.924  0.00  0.00    -0.123 N 
ATOM      2  N   UNL     1      34.451 -22.435 -18.578  0.00  0.00    -0.254 N 
ATOM      3  N   UNL     1      31.985 -24.036 -14.872  0.00  0.00    -0.274 N 
ATOM      4  N   UNL     1      33.215 -23.232 -16.731  0.00  0.00    -0.295 NA
ATOM      5  N   UNL     1      35.603 -23.277 -16.748  0.00  0.00    -0.314 NA
ATOM      6  N   UNL     1      34.429 -24.615 -13.699  0.00  0.00    -0.170 NA
ATOM      7  C   UNL     1      33.144 -23.762 -15.545  0.00  0.00    +0.279 C 
ATOM      8  C   UNL     1      35.553 -23.827 -15.515  0.00  0.00    +0.219 C 
ATOM      9  C   UNL     1      34.455 -22.995 -17.322  0.00  0.00    +0.203 C 
ATOM     10  C   UNL     1      36.496 -24.252 -14.607  0.00  0.00    +0.203 C 
ATOM     11  C   UNL     1      35.748 -24.727 -13.511  0.00  0.00    +0.116 C 
ATOM     12  H   UNL     1      33.589 -22.225 -19.005  0.00  0.00    +0.161 HD
ATOM     13  H   UNL     1      32.079 -24.439 -13.978  0.00  0.00    +0.156 HD
ENDROOT
BRANCH   3  14
ATOM     14  C   UNL     1      30.682 -23.806 -15.318  0.00  0.00    +0.051 C 
ATOM     15  C   UNL     1      30.071 -22.575 -15.080  0.00  0.00    +0.015 C 
ATOM     16  C   UNL     1      29.991 -24.808 -16.000  0.00  0.00    +0.015 C 
ATOM     17  C   UNL     1      28.769 -22.346 -15.525  0.00  0.00    +0.001 C 
ATOM     18  C   UNL     1      28.690 -24.578 -16.446  0.00  0.00    +0.001 C 
ATOM     19  C   UNL     1      28.078 -23.347 -16.208  0.00  0.00    +0.000 C 
ENDBRANCH   3  14
BRANCH  10  21
ATOM     20  N   UNL     1      39.060 -24.178 -14.894  0.00  0.00    -0.195 NA
ATOM     21  C   UNL     1      37.907 -24.211 -14.765  0.00  0.00    +0.087 C 
ENDBRANCH  10  21
BRANCH   2  22
ATOM     22  C   UNL     1      35.660 -22.146 -19.283  0.00  0.00    +0.125 C 
BRANCH  22  24
ATOM     23 CL   UNL     1      35.017 -17.184 -22.621  0.00  0.00    -0.082 Cl
ATOM     24  C   UNL     1      35.499 -20.906 -20.118  0.00  0.00    -0.002 C 
ATOM     25  C   UNL     1      34.228 -20.501 -20.529  0.00  0.00    -0.002 C 
ATOM     26  C   UNL     1      36.620 -20.159 -20.481  0.00  0.00    -0.002 C 
ATOM     27  C   UNL     1      34.080 -19.350 -21.303  0.00  0.00    +0.011 C 
ATOM     28  C   UNL     1      36.471 -19.009 -21.255  0.00  0.00    +0.011 C 
ATOM     29  C   UNL     1      35.201 -18.604 -21.666  0.00  0.00    +0.058 C 
ENDBRANCH  22  24
ENDBRANCH   2  22
TORSDOF 4
ENDMDL
MODEL 3
REMARK VINA RESULT:     -11.8      1.397      5.426
REMARK  Name = 24779676
REMARK  4 active torsions:
REMARK  status: ('A' for Active; 'I' for Inactive)
REMARK    1  A    between atoms: N_2  and  C_22
REMARK    2  A    between atoms: N_3  and  C_14
REMARK    3  A    between atoms: C_10  and  C_21
REMARK    4  A    between atoms: C_22  and  C_24
REMARK                            x       y       z     vdW  Elec       q    Type
REMARK                         _______ _______ _______ _____ _____    ______ ____
ROOT
ATOM      1  N   UNL     1      34.183 -24.141 -14.038  0.00  0.00    -0.123 N 
ATOM      2  N   UNL     1      34.626 -22.559 -17.689  0.00  0.00    -0.254 N 
ATOM      3  N   UNL     1      31.829 -24.157 -14.224  0.00  0.00    -0.274 N 
ATOM      4  N   UNL     1      33.225 -23.355 -15.963  0.00  0.00    -0.295 NA
ATOM      5  N   UNL     1      35.604 -23.353 -15.740  0.00  0.00    -0.314 NA
ATOM      6  N   UNL     1      34.153 -24.672 -12.803  0.00  0.00    -0.170 NA
ATOM      7  C   UNL     1      33.045 -23.869 -14.781  0.00  0.00    +0.279 C 
ATOM      8  C   UNL     1      35.439 -23.887 -14.509  0.00  0.00    +0.219 C 
ATOM      9  C   UNL     1      34.513 -23.101 -16.430  0.00  0.00    +0.203 C 
ATOM     10  C   UNL     1      36.294 -24.281 -13.505  0.00  0.00    +0.203 C 
ATOM     11  C   UNL     1      35.448 -24.755 -12.482  0.00  0.00    +0.116 C 
ATOM     12  H   UNL     1      33.808 -22.372 -18.203  0.00  0.00    +0.161 HD
ATOM     13  H   UNL     1      31.840 -24.545 -13.319  0.00  0.00    +0.156 HD
ENDROOT
BRANCH   3  14
ATOM     14  C   UNL     1      30.574 -23.958 -14.801  0.00  0.00    +0.051 C 
ATOM     15  C   UNL     1      29.771 -25.053 -15.119  0.00  0.00    +0.015 C 
ATOM     16  C   UNL     1      30.122 -22.663 -15.060  0.00  0.00    +0.015 C 
ATOM     17  C   UNL     1      28.516 -24.854 -15.695  0.00  0.00    +0.001 C 
ATOM     18  C   UNL     1      28.867 -22.465 -15.635  0.00  0.00    +0.001 C 
ATOM     19  C   UNL     1      28.065 -23.560 -15.953  0.00  0.00    +0.000 C 
ENDBRANCH   3  14
BRANCH  10  21
ATOM     20  N   UNL     1      38.872 -24.161 -13.535  0.00  0.00    -0.195 NA
ATOM     21  C   UNL     1      37.713 -24.215 -13.522  0.00  0.00    +0.087 C 
ENDBRANCH  10  21
BRANCH   2  22
ATOM     22  C   UNL     1      35.894 -22.257 -18.274  0.00  0.00    +0.125 C 
BRANCH  22  24
ATOM     23 CL   UNL     1      35.226 -18.487 -22.913  0.00  0.00    -0.082 Cl
ATOM     24  C   UNL     1      35.727 -21.314 -19.433  0.00  0.00    -0.002 C 
ATOM     25  C   UNL     1      36.846 -20.708 -20.007  0.00  0.00    -0.002 C 
ATOM     26  C   UNL     1      34.454 -21.045 -19.937  0.00  0.00    -0.002 C 
ATOM     27  C   UNL     1      36.690 -19.834 -21.083  0.00  0.00    +0.011 C 
ATOM     28  C   UNL     1      34.299 -20.171 -21.012  0.00  0.00    +0.011 C 
ATOM     29  C   UNL     1      35.417 -19.566 -21.585  0.00  0.00    +0.058 C 
ENDBRANCH  22  24
ENDBRANCH   2  22
TORSDOF 4
ENDMDL
MODEL 4
REMARK VINA RESULT:     -10.6      3.054      7.467
REMARK  Name = 24779676
REMARK  4 active torsions:
REMARK  status: ('A' for Active; 'I' for Inactive)
REMARK    1  A    between atoms: N_2  and  C_22
REMARK    2  A    between atoms: N_3  and  C_14
REMARK    3  A    between atoms: C_10  and  C_21
REMARK    4  A    between atoms: C_22  and  C_24
REMARK                            x       y       z     vdW  Elec       q    Type
REMARK                         _______ _______ _______ _____ _____    ______ ____
ROOT
ATOM      1  N   UNL     1      36.676 -23.086 -16.284  0.00  0.00    -0.123 N 
ATOM      2  N   UNL     1      32.708 -23.440 -16.675  0.00  0.00    -0.254 N 
ATOM      3  N   UNL     1      36.844 -21.738 -18.216  0.00  0.00    -0.274 N 
ATOM      4  N   UNL     1      34.769 -22.588 -17.449  0.00  0.00    -0.295 NA
ATOM      5  N   UNL     1      34.637 -23.950 -15.491  0.00  0.00    -0.314 NA
ATOM      6  N   UNL     1      38.000 -23.035 -16.055  0.00  0.00    -0.170 NA
ATOM      7  C   UNL     1      36.060 -22.452 -17.351  0.00  0.00    +0.279 C 
ATOM      8  C   UNL     1      35.977 -23.822 -15.371  0.00  0.00    +0.219 C 
ATOM      9  C   UNL     1      34.069 -23.342 -16.509  0.00  0.00    +0.203 C 
ATOM     10  C   UNL     1      36.916 -24.287 -14.479  0.00  0.00    +0.203 C 
ATOM     11  C   UNL     1      38.141 -23.772 -14.949  0.00  0.00    +0.116 C 
ATOM     12  H   UNL     1      32.286 -22.984 -17.439  0.00  0.00    +0.161 HD
ATOM     13  H   UNL     1      37.809 -21.719 -18.021  0.00  0.00    +0.156 HD
ENDROOT
BRANCH   3  14
ATOM     14  C   UNL     1      36.423 -21.034 -19.345  0.00  0.00    +0.051 C 
ATOM     15  C   UNL     1      35.147 -21.251 -19.866  0.00  0.00    +0.015 C 
ATOM     16  C   UNL     1      37.278 -20.114 -19.952  0.00  0.00    +0.015 C 
ATOM     17  C   UNL     1      34.727 -20.546 -20.995  0.00  0.00    +0.001 C 
ATOM     18  C   UNL     1      36.857 -19.409 -21.080  0.00  0.00    +0.001 C 
ATOM     19  C   UNL     1      35.581 -19.626 -21.601  0.00  0.00    +0.000 C 
ENDBRANCH   3  14
BRANCH  10  21
ATOM     20  N   UNL     1      36.482 -25.772 -12.412  0.00  0.00    -0.195 NA
ATOM     21  C   UNL     1      36.677 -25.104 -13.342  0.00  0.00    +0.087 C 
ENDBRANCH  10  21
BRANCH   2  22
ATOM     22  C   UNL     1      31.885 -24.185 -15.775  0.00  0.00    +0.125 C 
BRANCH  22  24
ATOM     23 CL   UNL     1      26.216 -22.184 -15.952  0.00  0.00    -0.082 Cl
ATOM     24  C   UNL     1      30.468 -23.685 -15.820  0.00  0.00    -0.002 C 
ATOM     25  C   UNL     1      29.509 -24.368 -16.569  0.00  0.00    -0.002 C 
ATOM     26  C   UNL     1      30.111 -22.537 -15.111  0.00  0.00    -0.002 C 
ATOM     27  C   UNL     1      28.195 -23.903 -16.609  0.00  0.00    +0.011 C 
ATOM     28  C   UNL     1      28.796 -22.073 -15.152  0.00  0.00    +0.011 C 
ATOM     29  C   UNL     1      27.839 -22.756 -15.901  0.00  0.00    +0.058 C 
ENDBRANCH  22  24
ENDBRANCH   2  22
TORSDOF 4
ENDMDL
