MODEL 1
REMARK VINA RESULT:     -12.3      0.000      0.000
REMARK  Name = 44177328
REMARK  2 active torsions:
REMARK  status: ('A' for Active; 'I' for Inactive)
REMARK    1  A    between atoms: N_1  and  C_15
REMARK    2  A    between atoms: C_6  and  C_23
REMARK                            x       y       z     vdW  Elec       q    Type
REMARK                         _______ _______ _______ _____ _____    ______ ____
ROOT
ATOM      1  N   UNL     1      33.351 -12.491 -24.415  0.00  0.00    -0.286 N 
ATOM      2  N   UNL     1      34.097 -14.663 -23.842  0.00  0.00    -0.386 NA
ATOM      3  N   UNL     1      33.812 -15.445 -26.521  0.00  0.00    -0.246 NA
ATOM      4  N   UNL     1      33.069 -13.258 -27.065  0.00  0.00    -0.340 N 
ATOM      5  C   UNL     1      33.665 -13.810 -24.792  0.00  0.00    +0.214 C 
ATOM      6  C   UNL     1      34.384 -15.914 -24.255  0.00  0.00    +0.135 C 
ATOM      7  C   UNL     1      33.525 -14.193 -26.108  0.00  0.00    +0.166 C 
ATOM      8  C   UNL     1      34.244 -16.297 -25.571  0.00  0.00    +0.185 C 
ATOM      9  H   UNL     1      33.498 -11.830 -25.130  0.00  0.00    +0.155 HD
ATOM     10  H   UNL     1      32.967 -13.526 -28.006  0.00  0.00    +0.144 HD
ATOM     11  H   UNL     1      32.853 -12.338 -26.789  0.00  0.00    +0.144 HD
ENDROOT
BRANCH   1  15
ATOM     12  N   UNL     1      31.505 -10.066 -19.798  0.00  0.00    -0.312 N 
ATOM     13  C   UNL     1      32.400  -9.989 -21.841  0.00  0.00    +0.016 C 
ATOM     14  C   UNL     1      31.913 -10.850 -20.854  0.00  0.00    +0.048 C 
ATOM     15  C   UNL     1      32.866 -11.930 -23.213  0.00  0.00    +0.050 C 
ATOM     16  C   UNL     1      32.886 -10.542 -23.043  0.00  0.00    +0.016 C 
ATOM     17  C   UNL     1      31.886 -12.239 -21.011  0.00  0.00    +0.016 C 
ATOM     18  C   UNL     1      32.374 -12.765 -22.212  0.00  0.00    +0.016 C 
ATOM     19  C   UNL     1      32.271  -8.663 -21.339  0.00  0.00    +0.017 C 
ATOM     20  C   UNL     1      31.719  -8.743 -20.082  0.00  0.00    +0.062 C 
ATOM     21  H   UNL     1      31.119 -10.407 -18.960  0.00  0.00    +0.152 HD
ENDBRANCH   1  15
BRANCH   6  23
ATOM     22  N   UNL     1      35.729 -18.590 -21.260  0.00  0.00    -0.242 NA
ATOM     23  C   UNL     1      34.841 -16.824 -23.237  0.00  0.00    +0.031 C 
ATOM     24  C   UNL     1      35.200 -18.125 -23.573  0.00  0.00    +0.023 C 
ATOM     25  C   UNL     1      34.927 -16.405 -21.913  0.00  0.00    +0.023 C 
ATOM     26  C   UNL     1      35.633 -18.961 -22.557  0.00  0.00    +0.099 C 
ATOM     27  C   UNL     1      35.373 -17.318 -20.971  0.00  0.00    +0.099 C 
ENDBRANCH   6  23
TORSDOF 2
ENDMDL
MODEL 2
REMARK VINA RESULT:     -11.9      1.321      1.853
REMARK  Name = 44177328
REMARK  2 active torsions:
REMARK  status: ('A' for Active; 'I' for Inactive)
REMARK    1  A    between atoms: N_1  and  C_15
REMARK    2  A    between atoms: C_6  and  C_23
REMARK                            x       y       z     vdW  Elec       q    Type
REMARK                         _______ _______ _______ _____ _____    ______ ____
ROOT
ATOM      1  N   UNL     1      33.641 -14.224 -24.078  0.00  0.00    -0.286 N 
ATOM      2  N   UNL     1      34.521 -16.279 -23.298  0.00  0.00    -0.386 NA
ATOM      3  N   UNL     1      34.208 -17.363 -25.866  0.00  0.00    -0.246 NA
ATOM      4  N   UNL     1      33.331 -15.291 -26.618  0.00  0.00    -0.340 N 
ATOM      5  C   UNL     1      34.017 -15.559 -24.320  0.00  0.00    +0.214 C 
ATOM      6  C   UNL     1      34.865 -17.551 -23.582  0.00  0.00    +0.135 C 
ATOM      7  C   UNL     1      33.864 -16.091 -25.581  0.00  0.00    +0.166 C 
ATOM      8  C   UNL     1      34.711 -18.083 -24.844  0.00  0.00    +0.185 C 
ATOM      9  H   UNL     1      33.733 -13.639 -24.864  0.00  0.00    +0.155 HD
ATOM     10  H   UNL     1      33.219 -15.666 -27.522  0.00  0.00    +0.144 HD
ATOM     11  H   UNL     1      33.072 -14.359 -26.436  0.00  0.00    +0.144 HD
ENDROOT
BRANCH   1  15
ATOM     12  N   UNL     1      31.726 -11.417 -19.712  0.00  0.00    -0.312 N 
ATOM     13  C   UNL     1      32.321 -11.555 -21.858  0.00  0.00    +0.016 C 
ATOM     14  C   UNL     1      32.215 -12.280 -20.668  0.00  0.00    +0.048 C 
ATOM     15  C   UNL     1      33.159 -13.561 -22.928  0.00  0.00    +0.050 C 
ATOM     16  C   UNL     1      32.803 -12.211 -23.009  0.00  0.00    +0.016 C 
ATOM     17  C   UNL     1      32.565 -13.630 -20.573  0.00  0.00    +0.016 C 
ATOM     18  C   UNL     1      33.042 -14.259 -21.727  0.00  0.00    +0.016 C 
ATOM     19  C   UNL     1      31.880 -10.231 -21.582  0.00  0.00    +0.017 C 
ATOM     20  C   UNL     1      31.521 -10.177 -20.255  0.00  0.00    +0.062 C 
ATOM     21  H   UNL     1      31.551 -11.658 -18.774  0.00  0.00    +0.152 HD
ENDBRANCH   1  15
BRANCH   6  23
ATOM     22  N   UNL     1      36.438 -19.809 -20.362  0.00  0.00    -0.242 NA
ATOM     23  C   UNL     1      35.400 -18.319 -22.487  0.00  0.00    +0.031 C 
ATOM     24  C   UNL     1      34.603 -19.254 -21.835  0.00  0.00    +0.023 C 
ATOM     25  C   UNL     1      36.716 -18.129 -22.078  0.00  0.00    +0.023 C 
ATOM     26  C   UNL     1      35.164 -19.966 -20.788  0.00  0.00    +0.099 C 
ATOM     27  C   UNL     1      37.182 -18.892 -21.020  0.00  0.00    +0.099 C 
ENDBRANCH   6  23
TORSDOF 2
ENDMDL
MODEL 3
REMARK VINA RESULT:     -11.9      7.103     11.338
REMARK  Name = 44177328
REMARK  2 active torsions:
REMARK  status: ('A' for Active; 'I' for Inactive)
REMARK    1  A    between atoms: N_1  and  C_15
REMARK    2  A    between atoms: C_6  and  C_23
REMARK                            x       y       z     vdW  Elec       q    Type
REMARK                         _______ _______ _______ _____ _____    ______ ____
ROOT
ATOM      1  N   UNL     1      33.054 -22.506 -18.596  0.00  0.00    -0.286 N 
ATOM      2  N   UNL     1      34.267 -23.474 -16.808  0.00  0.00    -0.386 NA
ATOM      3  N   UNL     1      31.876 -23.765 -15.372  0.00  0.00    -0.246 NA
ATOM      4  N   UNL     1      30.688 -22.792 -17.180  0.00  0.00    -0.340 N 
ATOM      5  C   UNL     1      33.080 -23.079 -17.311  0.00  0.00    +0.214 C 
ATOM      6  C   UNL     1      34.237 -24.017 -15.575  0.00  0.00    +0.135 C 
ATOM      7  C   UNL     1      31.905 -23.222 -16.606  0.00  0.00    +0.166 C 
ATOM      8  C   UNL     1      33.062 -24.159 -14.870  0.00  0.00    +0.185 C 
ATOM      9  H   UNL     1      32.214 -22.666 -19.084  0.00  0.00    +0.155 HD
ATOM     10  H   UNL     1      29.845 -22.891 -16.681  0.00  0.00    +0.144 HD
ATOM     11  H   UNL     1      30.682 -22.392 -18.080  0.00  0.00    +0.144 HD
ENDROOT
BRANCH   1  15
ATOM     12  N   UNL     1      36.558 -19.411 -21.554  0.00  0.00    -0.312 N 
ATOM     13  C   UNL     1      34.499 -20.033 -20.960  0.00  0.00    +0.016 C 
ATOM     14  C   UNL     1      35.858 -20.268 -20.735  0.00  0.00    +0.048 C 
ATOM     15  C   UNL     1      33.998 -21.747 -19.323  0.00  0.00    +0.050 C 
ATOM     16  C   UNL     1      33.552 -20.788 -20.239  0.00  0.00    +0.016 C 
ATOM     17  C   UNL     1      36.317 -21.222 -19.821  0.00  0.00    +0.016 C 
ATOM     18  C   UNL     1      35.359 -21.960 -19.118  0.00  0.00    +0.016 C 
ATOM     19  C   UNL     1      34.410 -19.007 -21.941  0.00  0.00    +0.017 C 
ATOM     20  C   UNL     1      35.692 -18.645 -22.287  0.00  0.00    +0.062 C 
ATOM     21  H   UNL     1      37.539 -19.358 -21.605  0.00  0.00    +0.152 HD
ENDBRANCH   1  15
BRANCH   6  23
ATOM     22  N   UNL     1      37.972 -25.244 -13.998  0.00  0.00    -0.242 NA
ATOM     23  C   UNL     1      35.507 -24.434 -15.039  0.00  0.00    +0.031 C 
ATOM     24  C   UNL     1      35.976 -25.722 -15.275  0.00  0.00    +0.023 C 
ATOM     25  C   UNL     1      36.270 -23.550 -14.283  0.00  0.00    +0.023 C 
ATOM     26  C   UNL     1      37.203 -26.074 -14.738  0.00  0.00    +0.099 C 
ATOM     27  C   UNL     1      37.484 -24.000 -13.789  0.00  0.00    +0.099 C 
ENDBRANCH   6  23
TORSDOF 2
ENDMDL
MODEL 4
REMARK VINA RESULT:     -11.5      7.247     11.181
REMARK  Name = 44177328
REMARK  2 active torsions:
REMARK  status: ('A' for Active; 'I' for Inactive)
REMARK    1  A    between atoms: N_1  and  C_15
REMARK    2  A    between atoms: C_6  and  C_23
REMARK                            x       y       z     vdW  Elec       q    Type
REMARK                         _______ _______ _______ _____ _____    ______ ____
ROOT
ATOM      1  N   UNL     1      32.707 -22.365 -18.696  0.00  0.00    -0.286 N 
ATOM      2  N   UNL     1      34.214 -23.286 -17.119  0.00  0.00    -0.386 NA
ATOM      3  N   UNL     1      32.057 -23.839 -15.414  0.00  0.00    -0.246 NA
ATOM      4  N   UNL     1      30.572 -22.911 -17.014  0.00  0.00    -0.340 N 
ATOM      5  C   UNL     1      32.944 -22.980 -17.452  0.00  0.00    +0.214 C 
ATOM      6  C   UNL     1      34.386 -23.874 -15.919  0.00  0.00    +0.135 C 
ATOM      7  C   UNL     1      31.884 -23.252 -16.615  0.00  0.00    +0.166 C 
ATOM      8  C   UNL     1      33.326 -24.145 -15.081  0.00  0.00    +0.185 C 
ATOM      9  H   UNL     1      31.828 -22.581 -19.083  0.00  0.00    +0.155 HD
ATOM     10  H   UNL     1      29.811 -23.102 -16.420  0.00  0.00    +0.144 HD
ATOM     11  H   UNL     1      30.419 -22.481 -17.886  0.00  0.00    +0.144 HD
ENDROOT
BRANCH   1  15
ATOM     12  N   UNL     1      35.960 -19.066 -21.720  0.00  0.00    -0.312 N 
ATOM     13  C   UNL     1      35.646 -20.626 -20.156  0.00  0.00    +0.016 C 
ATOM     14  C   UNL     1      34.991 -19.801 -21.073  0.00  0.00    +0.048 C 
ATOM     15  C   UNL     1      33.485 -21.499 -19.497  0.00  0.00    +0.050 C 
ATOM     16  C   UNL     1      34.876 -21.491 -19.353  0.00  0.00    +0.016 C 
ATOM     17  C   UNL     1      33.601 -19.799 -21.229  0.00  0.00    +0.016 C 
ATOM     18  C   UNL     1      32.858 -20.666 -20.421  0.00  0.00    +0.016 C 
ATOM     19  C   UNL     1      37.039 -20.360 -20.275  0.00  0.00    +0.017 C 
ATOM     20  C   UNL     1      37.200 -19.397 -21.244  0.00  0.00    +0.062 C 
ATOM     21  H   UNL     1      35.785 -18.399 -22.422  0.00  0.00    +0.152 HD
ENDBRANCH   1  15
BRANCH   6  23
ATOM     22  N   UNL     1      38.380 -24.824 -14.875  0.00  0.00    -0.242 NA
ATOM     23  C   UNL     1      35.744 -24.196 -15.564  0.00  0.00    +0.031 C 
ATOM     24  C   UNL     1      36.758 -23.265 -15.760  0.00  0.00    +0.023 C 
ATOM     25  C   UNL     1      36.047 -25.442 -15.023  0.00  0.00    +0.023 C 
ATOM     26  C   UNL     1      38.047 -23.624 -15.402  0.00  0.00    +0.099 C 
ATOM     27  C   UNL     1      37.369 -25.704 -14.699  0.00  0.00    +0.099 C 
ENDBRANCH   6  23
TORSDOF 2
ENDMDL
MODEL 5
REMARK VINA RESULT:     -11.4      2.760      5.233
REMARK  Name = 44177328
REMARK  2 active torsions:
REMARK  status: ('A' for Active; 'I' for Inactive)
REMARK    1  A    between atoms: N_1  and  C_15
REMARK    2  A    between atoms: C_6  and  C_23
REMARK                            x       y       z     vdW  Elec       q    Type
REMARK                         _______ _______ _______ _____ _____    ______ ____
ROOT
ATOM      1  N   UNL     1      31.780  -9.914 -22.034  0.00  0.00    -0.286 N 
ATOM      2  N   UNL     1      32.487 -11.846 -23.206  0.00  0.00    -0.386 NA
ATOM      3  N   UNL     1      32.506 -13.277 -20.794  0.00  0.00    -0.246 NA
ATOM      4  N   UNL     1      31.796 -11.325 -19.647  0.00  0.00    -0.340 N 
ATOM      5  C   UNL     1      32.150 -11.272 -22.034  0.00  0.00    +0.214 C 
ATOM      6  C   UNL     1      32.833 -13.147 -23.151  0.00  0.00    +0.135 C 
ATOM      7  C   UNL     1      32.159 -11.974 -20.849  0.00  0.00    +0.166 C 
ATOM      8  C   UNL     1      32.843 -13.849 -21.966  0.00  0.00    +0.185 C 
ATOM      9  H   UNL     1      31.135  -9.680 -21.328  0.00  0.00    +0.155 HD
ATOM     10  H   UNL     1      31.801 -11.822 -18.797  0.00  0.00    +0.144 HD
ATOM     11  H   UNL     1      31.539 -10.374 -19.660  0.00  0.00    +0.144 HD
ENDROOT
BRANCH   1  15
ATOM     12  N   UNL     1      33.484  -5.704 -25.193  0.00  0.00    -0.312 N 
ATOM     13  C   UNL     1      33.874  -7.483 -23.905  0.00  0.00    +0.016 C 
ATOM     14  C   UNL     1      32.866  -6.683 -24.448  0.00  0.00    +0.048 C 
ATOM     15  C   UNL     1      32.153  -8.822 -22.849  0.00  0.00    +0.050 C 
ATOM     16  C   UNL     1      33.509  -8.574 -23.090  0.00  0.00    +0.016 C 
ATOM     17  C   UNL     1      31.507  -6.921 -24.217  0.00  0.00    +0.016 C 
ATOM     18  C   UNL     1      31.169  -8.008 -23.405  0.00  0.00    +0.016 C 
ATOM     19  C   UNL     1      35.116  -6.949 -24.349  0.00  0.00    +0.017 C 
ATOM     20  C   UNL     1      34.843  -5.856 -25.138  0.00  0.00    +0.062 C 
ATOM     21  H   UNL     1      33.015  -4.996 -25.690  0.00  0.00    +0.152 HD
ENDBRANCH   1  15
BRANCH   6  23
ATOM     22  N   UNL     1      33.900 -14.940 -26.838  0.00  0.00    -0.242 NA
ATOM     23  C   UNL     1      33.196 -13.756 -24.405  0.00  0.00    +0.031 C 
ATOM     24  C   UNL     1      33.221 -12.997 -25.570  0.00  0.00    +0.023 C 
ATOM     25  C   UNL     1      33.524 -15.107 -24.455  0.00  0.00    +0.023 C 
ATOM     26  C   UNL     1      33.576 -13.630 -26.749  0.00  0.00    +0.099 C 
ATOM     27  C   UNL     1      33.866 -15.646 -25.686  0.00  0.00    +0.099 C 
ENDBRANCH   6  23
TORSDOF 2
ENDMDL
MODEL 6
REMARK VINA RESULT:     -11.2      7.582     11.942
REMARK  Name = 44177328
REMARK  2 active torsions:
REMARK  status: ('A' for Active; 'I' for Inactive)
REMARK    1  A    between atoms: N_1  and  C_15
REMARK    2  A    between atoms: C_6  and  C_23
REMARK                            x       y       z     vdW  Elec       q    Type
REMARK                         _______ _______ _______ _____ _____    ______ ____
ROOT
ATOM      1  N   UNL     1      33.394 -22.988 -17.824  0.00  0.00    -0.286 N 
ATOM      2  N   UNL     1      34.886 -23.745 -16.149  0.00  0.00    -0.386 NA
ATOM      3  N   UNL     1      32.708 -24.177 -14.435  0.00  0.00    -0.246 NA
ATOM      4  N   UNL     1      31.238 -23.415 -16.133  0.00  0.00    -0.340 N 
ATOM      5  C   UNL     1      33.618 -23.488 -16.527  0.00  0.00    +0.214 C 
ATOM      6  C   UNL     1      35.046 -24.222 -14.899  0.00  0.00    +0.135 C 
ATOM      7  C   UNL     1      32.548 -23.700 -15.686  0.00  0.00    +0.166 C 
ATOM      8  C   UNL     1      33.976 -24.434 -14.057  0.00  0.00    +0.185 C 
ATOM      9  H   UNL     1      32.524 -23.249 -18.204  0.00  0.00    +0.155 HD
ATOM     10  H   UNL     1      30.470 -23.564 -15.536  0.00  0.00    +0.144 HD
ATOM     11  H   UNL     1      31.094 -23.065 -17.042  0.00  0.00    +0.144 HD
ENDROOT
BRANCH   1  15
ATOM     12  N   UNL     1      36.230 -19.762 -21.310  0.00  0.00    -0.312 N 
ATOM     13  C   UNL     1      34.323 -20.602 -20.515  0.00  0.00    +0.016 C 
ATOM     14  C   UNL     1      35.712 -20.617 -20.364  0.00  0.00    +0.048 C 
ATOM     15  C   UNL     1      34.173 -22.185 -18.686  0.00  0.00    +0.050 C 
ATOM     16  C   UNL     1      33.540 -21.402 -19.658  0.00  0.00    +0.016 C 
ATOM     17  C   UNL     1      36.357 -21.393 -19.396  0.00  0.00    +0.016 C 
ATOM     18  C   UNL     1      35.560 -22.179 -18.558  0.00  0.00    +0.016 C 
ATOM     19  C   UNL     1      34.028 -19.710 -21.583  0.00  0.00    +0.017 C 
ATOM     20  C   UNL     1      35.221 -19.209 -22.052  0.00  0.00    +0.062 C 
ATOM     21  H   UNL     1      37.189 -19.576 -21.436  0.00  0.00    +0.152 HD
ENDBRANCH   1  15
BRANCH   6  23
ATOM     22  N   UNL     1      39.034 -25.019 -13.714  0.00  0.00    -0.242 NA
ATOM     23  C   UNL     1      36.402 -24.493 -14.497  0.00  0.00    +0.031 C 
ATOM     24  C   UNL     1      37.460 -24.155 -15.334  0.00  0.00    +0.023 C 
ATOM     25  C   UNL     1      36.659 -25.092 -13.268  0.00  0.00    +0.023 C 
ATOM     26  C   UNL     1      38.745 -24.436 -14.900  0.00  0.00    +0.099 C 
ATOM     27  C   UNL     1      37.981 -25.332 -12.927  0.00  0.00    +0.099 C 
ENDBRANCH   6  23
TORSDOF 2
ENDMDL
MODEL 7
REMARK VINA RESULT:     -11.0      3.566      7.012
REMARK  Name = 44177328
REMARK  2 active torsions:
REMARK  status: ('A' for Active; 'I' for Inactive)
REMARK    1  A    between atoms: N_1  and  C_15
REMARK    2  A    between atoms: C_6  and  C_23
REMARK                            x       y       z     vdW  Elec       q    Type
REMARK                         _______ _______ _______ _____ _____    ______ ____
ROOT
ATOM      1  N   UNL     1      32.347  -7.019 -21.858  0.00  0.00    -0.286 N 
ATOM      2  N   UNL     1      32.374  -9.382 -21.711  0.00  0.00    -0.386 NA
ATOM      3  N   UNL     1      31.728  -9.198 -18.988  0.00  0.00    -0.246 NA
ATOM      4  N   UNL     1      31.707  -6.833 -19.167  0.00  0.00    -0.340 N 
ATOM      5  C   UNL     1      32.199  -8.194 -21.098  0.00  0.00    +0.214 C 
ATOM      6  C   UNL     1      32.221 -10.476 -20.939  0.00  0.00    +0.135 C 
ATOM      7  C   UNL     1      31.881  -8.104 -19.761  0.00  0.00    +0.166 C 
ATOM      8  C   UNL     1      31.904 -10.385 -19.602  0.00  0.00    +0.185 C 
ATOM      9  H   UNL     1      31.790  -6.271 -21.543  0.00  0.00    +0.155 HD
ATOM     10  H   UNL     1      31.480  -6.762 -18.211  0.00  0.00    +0.144 HD
ATOM     11  H   UNL     1      31.813  -6.018 -19.709  0.00  0.00    +0.144 HD
ENDROOT
BRANCH   1  15
ATOM     12  N   UNL     1      35.262  -5.630 -26.350  0.00  0.00    -0.312 N 
ATOM     13  C   UNL     1      33.439  -5.508 -25.070  0.00  0.00    +0.016 C 
ATOM     14  C   UNL     1      34.701  -6.095 -25.182  0.00  0.00    +0.048 C 
ATOM     15  C   UNL     1      33.139  -6.703 -22.985  0.00  0.00    +0.050 C 
ATOM     16  C   UNL     1      32.643  -5.819 -23.949  0.00  0.00    +0.016 C 
ATOM     17  C   UNL     1      35.210  -6.979 -24.224  0.00  0.00    +0.016 C 
ATOM     18  C   UNL     1      34.402  -7.273 -23.121  0.00  0.00    +0.016 C 
ATOM     19  C   UNL     1      33.262  -4.676 -26.211  0.00  0.00    +0.017 C 
ATOM     20  C   UNL     1      34.400  -4.773 -26.979  0.00  0.00    +0.062 C 
ATOM     21  H   UNL     1      36.153  -5.879 -26.685  0.00  0.00    +0.152 HD
ENDBRANCH   1  15
BRANCH   6  23
ATOM     22  N   UNL     1      32.787 -14.202 -22.873  0.00  0.00    -0.242 NA
ATOM     23  C   UNL     1      32.413 -11.743 -21.597  0.00  0.00    +0.031 C 
ATOM     24  C   UNL     1      32.265 -12.928 -20.885  0.00  0.00    +0.023 C 
ATOM     25  C   UNL     1      32.747 -11.785 -22.946  0.00  0.00    +0.023 C 
ATOM     26  C   UNL     1      32.461 -14.120 -21.563  0.00  0.00    +0.099 C 
ATOM     27  C   UNL     1      32.921 -13.029 -23.532  0.00  0.00    +0.099 C 
ENDBRANCH   6  23
TORSDOF 2
ENDMDL
MODEL 8
REMARK VINA RESULT:     -10.8      8.560     13.822
REMARK  Name = 44177328
REMARK  2 active torsions:
REMARK  status: ('A' for Active; 'I' for Inactive)
REMARK    1  A    between atoms: N_1  and  C_15
REMARK    2  A    between atoms: C_6  and  C_23
REMARK                            x       y       z     vdW  Elec       q    Type
REMARK                         _______ _______ _______ _____ _____    ______ ____
ROOT
ATOM      1  N   UNL     1      34.464 -24.468 -14.634  0.00  0.00    -0.286 N 
ATOM      2  N   UNL     1      34.268 -23.247 -16.653  0.00  0.00    -0.386 NA
ATOM      3  N   UNL     1      31.474 -23.378 -16.435  0.00  0.00    -0.246 NA
ATOM      4  N   UNL     1      31.703 -24.599 -14.414  0.00  0.00    -0.340 N 
ATOM      5  C   UNL     1      33.661 -23.870 -15.623  0.00  0.00    +0.214 C 
ATOM      6  C   UNL     1      33.454 -22.690 -17.571  0.00  0.00    +0.135 C 
ATOM      7  C   UNL     1      32.289 -23.934 -15.515  0.00  0.00    +0.166 C 
ATOM      8  C   UNL     1      32.082 -22.755 -17.464  0.00  0.00    +0.185 C 
ATOM      9  H   UNL     1      34.049 -24.481 -13.742  0.00  0.00    +0.155 HD
ATOM     10  H   UNL     1      30.723 -24.648 -14.332  0.00  0.00    +0.144 HD
ATOM     11  H   UNL     1      32.276 -25.014 -13.729  0.00  0.00    +0.144 HD
ENDROOT
BRANCH   1  15
ATOM     12  N   UNL     1      39.581 -26.570 -14.639  0.00  0.00    -0.312 N 
ATOM     13  C   UNL     1      38.089 -25.021 -14.046  0.00  0.00    +0.016 C 
ATOM     14  C   UNL     1      38.257 -26.213 -14.756  0.00  0.00    +0.048 C 
ATOM     15  C   UNL     1      35.749 -25.054 -14.673  0.00  0.00    +0.050 C 
ATOM     16  C   UNL     1      36.810 -24.432 -14.004  0.00  0.00    +0.016 C 
ATOM     17  C   UNL     1      37.206 -26.846 -15.428  0.00  0.00    +0.016 C 
ATOM     18  C   UNL     1      35.946 -26.241 -15.373  0.00  0.00    +0.016 C 
ATOM     19  C   UNL     1      39.357 -24.678 -13.500  0.00  0.00    +0.017 C 
ATOM     20  C   UNL     1      40.254 -25.649 -13.882  0.00  0.00    +0.062 C 
ATOM     21  H   UNL     1      39.986 -27.372 -15.043  0.00  0.00    +0.152 HD
ENDBRANCH   1  15
BRANCH   6  23
ATOM     22  N   UNL     1      35.369 -20.743 -20.809  0.00  0.00    -0.242 NA
ATOM     23  C   UNL     1      34.106 -22.029 -18.672  0.00  0.00    +0.031 C 
ATOM     24  C   UNL     1      35.486 -22.111 -18.819  0.00  0.00    +0.023 C 
ATOM     25  C   UNL     1      33.356 -21.305 -19.594  0.00  0.00    +0.023 C 
ATOM     26  C   UNL     1      36.064 -21.456 -19.894  0.00  0.00    +0.099 C 
ATOM     27  C   UNL     1      34.029 -20.686 -20.635  0.00  0.00    +0.099 C 
ENDBRANCH   6  23
TORSDOF 2
ENDMDL
MODEL 9
REMARK VINA RESULT:     -10.7      8.816     12.699
REMARK  Name = 44177328
REMARK  2 active torsions:
REMARK  status: ('A' for Active; 'I' for Inactive)
REMARK    1  A    between atoms: N_1  and  C_15
REMARK    2  A    between atoms: C_6  and  C_23
REMARK                            x       y       z     vdW  Elec       q    Type
REMARK                         _______ _______ _______ _____ _____    ______ ____
ROOT
ATOM      1  N   UNL     1      34.164 -24.473 -14.670  0.00  0.00    -0.286 N 
ATOM      2  N   UNL     1      35.009 -23.186 -16.468  0.00  0.00    -0.386 NA
ATOM      3  N   UNL     1      37.404 -22.822 -15.054  0.00  0.00    -0.246 NA
ATOM      4  N   UNL     1      36.530 -24.117 -13.269  0.00  0.00    -0.340 N 
ATOM      5  C   UNL     1      35.202 -23.716 -15.244  0.00  0.00    +0.214 C 
ATOM      6  C   UNL     1      36.033 -22.471 -16.973  0.00  0.00    +0.135 C 
ATOM      7  C   UNL     1      36.379 -23.538 -14.549  0.00  0.00    +0.166 C 
ATOM      8  C   UNL     1      37.209 -22.292 -16.278  0.00  0.00    +0.185 C 
ATOM      9  H   UNL     1      34.479 -25.181 -14.063  0.00  0.00    +0.155 HD
ATOM     10  H   UNL     1      37.368 -23.993 -12.768  0.00  0.00    +0.144 HD
ATOM     11  H   UNL     1      35.796 -24.645 -12.878  0.00  0.00    +0.144 HD
ENDROOT
BRANCH   1  15
ATOM     12  N   UNL     1      28.687 -24.079 -15.346  0.00  0.00    -0.312 N 
ATOM     13  C   UNL     1      30.782 -23.529 -15.881  0.00  0.00    +0.016 C 
ATOM     14  C   UNL     1      30.005 -24.313 -15.025  0.00  0.00    +0.048 C 
ATOM     15  C   UNL     1      32.758 -24.415 -14.794  0.00  0.00    +0.050 C 
ATOM     16  C   UNL     1      32.186 -23.582 -15.762  0.00  0.00    +0.016 C 
ATOM     17  C   UNL     1      30.564 -25.151 -14.054  0.00  0.00    +0.016 C 
ATOM     18  C   UNL     1      31.958 -25.186 -13.954  0.00  0.00    +0.016 C 
ATOM     19  C   UNL     1      29.885 -22.816 -16.725  0.00  0.00    +0.017 C 
ATOM     20  C   UNL     1      28.604 -23.176 -16.371  0.00  0.00    +0.062 C 
ATOM     21  H   UNL     1      27.916 -24.499 -14.901  0.00  0.00    +0.152 HD
ENDBRANCH   1  15
BRANCH   6  23
ATOM     22  N   UNL     1      35.410 -20.798 -20.814  0.00  0.00    -0.242 NA
ATOM     23  C   UNL     1      35.822 -21.902 -18.279  0.00  0.00    +0.031 C 
ATOM     24  C   UNL     1      36.873 -21.288 -18.952  0.00  0.00    +0.023 C 
ATOM     25  C   UNL     1      34.566 -21.965 -18.873  0.00  0.00    +0.023 C 
ATOM     26  C   UNL     1      36.617 -20.757 -20.206  0.00  0.00    +0.099 C 
ATOM     27  C   UNL     1      34.413 -21.403 -20.130  0.00  0.00    +0.099 C 
ENDBRANCH   6  23
TORSDOF 2
ENDMDL
