MODEL 1
REMARK VINA RESULT:     -13.0      0.000      0.000
REMARK  Name = 9823454
REMARK  7 active torsions:
REMARK  status: ('A' for Active; 'I' for Inactive)
REMARK    1  A    between atoms: C_1  and  C_4
REMARK    2  A    between atoms: C_1  and  N_8
REMARK    3  A    between atoms: C_1  and  C_23
REMARK    4  A    between atoms: N_3  and  O_6
REMARK    5  A    between atoms: N_8  and  S_10
REMARK    6  A    between atoms: S_10  and  C_13
REMARK    7  A    between atoms: C_23  and  C_24
REMARK                            x       y       z     vdW  Elec       q    Type
REMARK                         _______ _______ _______ _____ _____    ______ ____
ROOT
ATOM      1  C   UNL     1      34.747 -24.139 -13.539  0.00  0.00    +0.158 C 
ENDROOT
BRANCH   1   4
ATOM      2  O   UNL     1      35.289 -24.314 -11.190  0.00  0.00    -0.272 OA
ATOM      3  N   UNL     1      36.375 -25.694 -12.689  0.00  0.00    -0.196 N 
ATOM      4  C   UNL     1      35.483 -24.711 -12.338  0.00  0.00    +0.260 C 
ATOM      5  H   UNL     1      36.497 -25.980 -13.623  0.00  0.00    +0.182 HD
BRANCH   3   6
ATOM      6  O   UNL     1      37.102 -26.265 -11.635  0.00  0.00    -0.295 OA
ATOM      7  H   UNL     1      36.532 -26.879 -11.146  0.00  0.00    +0.241 HD
ENDBRANCH   3   6
ENDBRANCH   1   4
BRANCH   1   8
ATOM      8  N   UNL     1      35.693 -23.187 -14.169  0.00  0.00    -0.172 NA
ATOM      9  H   UNL     1      35.146 -22.377 -14.460  0.00  0.00    +0.149 HD
BRANCH   8  10
ATOM     10  S   UNL     1      36.609 -23.671 -15.515  0.00  0.00    +0.061 S 
ATOM     11  O   UNL     1      36.553 -25.116 -15.642  0.00  0.00    -0.153 OA
ATOM     12  O   UNL     1      37.889 -22.991 -15.477  0.00  0.00    -0.153 OA
BRANCH  10  13
ATOM     13  C   UNL     1      35.691 -22.971 -16.852  0.00  0.00    +0.122 C 
ATOM     14  C   UNL     1      36.348 -22.188 -17.786  0.00  0.00    +0.020 C 
ATOM     15  C   UNL     1      35.633 -21.623 -18.855  0.00  0.00    +0.001 C 
ATOM     16  C   UNL     1      34.335 -23.216 -16.941  0.00  0.00    +0.020 C 
ATOM     17  C   UNL     1      34.243 -21.865 -18.961  0.00  0.00    +0.000 C 
ATOM     18  C   UNL     1      33.609 -22.663 -17.997  0.00  0.00    +0.001 C 
ATOM     19  C   UNL     1      36.268 -20.824 -19.820  0.00  0.00    +0.000 C 
ATOM     20  C   UNL     1      33.528 -21.299 -20.030  0.00  0.00    +0.000 C 
ATOM     21  C   UNL     1      35.542 -20.270 -20.875  0.00  0.00    +0.000 C 
ATOM     22  C   UNL     1      34.175 -20.508 -20.980  0.00  0.00    +0.000 C 
ENDBRANCH  10  13
ENDBRANCH   8  10
ENDBRANCH   1   8
BRANCH   1  23
ATOM     23  C   UNL     1      33.471 -23.397 -13.108  0.00  0.00    +0.053 C 
BRANCH  23  24
ATOM     24  C   UNL     1      32.262 -23.801 -13.883  0.00  0.00    -0.020 C 
ATOM     25  C   UNL     1      31.576 -22.859 -14.650  0.00  0.00    -0.004 C 
ATOM     26  C   UNL     1      30.437 -23.224 -15.385  0.00  0.00    -0.000 C 
ATOM     27  C   UNL     1      31.818 -25.119 -13.840  0.00  0.00    -0.004 C 
ATOM     28  C   UNL     1      29.986 -24.565 -15.341  0.00  0.00    -0.000 C 
ATOM     29  C   UNL     1      30.687 -25.500 -14.564  0.00  0.00    -0.000 C 
ATOM     30  C   UNL     1      29.736 -22.288 -16.162  0.00  0.00    -0.000 C 
ATOM     31  C   UNL     1      28.846 -24.930 -16.076  0.00  0.00    -0.000 C 
ATOM     32  C   UNL     1      28.605 -22.668 -16.886  0.00  0.00    -0.000 C 
ATOM     33  C   UNL     1      28.161 -23.986 -16.842  0.00  0.00    -0.000 C 
ENDBRANCH  23  24
ENDBRANCH   1  23
TORSDOF 7
ENDMDL
MODEL 2
REMARK VINA RESULT:     -12.5      8.568     11.832
REMARK  Name = 9823454
REMARK  7 active torsions:
REMARK  status: ('A' for Active; 'I' for Inactive)
REMARK    1  A    between atoms: C_1  and  C_4
REMARK    2  A    between atoms: C_1  and  N_8
REMARK    3  A    between atoms: C_1  and  C_23
REMARK    4  A    between atoms: N_3  and  O_6
REMARK    5  A    between atoms: N_8  and  S_10
REMARK    6  A    between atoms: S_10  and  C_13
REMARK    7  A    between atoms: C_23  and  C_24
REMARK                            x       y       z     vdW  Elec       q    Type
REMARK                         _______ _______ _______ _____ _____    ______ ____
ROOT
ATOM      1  C   UNL     1      34.309 -16.383 -23.660  0.00  0.00    +0.158 C 
ENDROOT
BRANCH   1   4
ATOM      2  O   UNL     1      34.824 -17.196 -25.877  0.00  0.00    -0.272 OA
ATOM      3  N   UNL     1      33.782 -15.147 -25.656  0.00  0.00    -0.196 N 
ATOM      4  C   UNL     1      34.340 -16.308 -25.178  0.00  0.00    +0.260 C 
ATOM      5  H   UNL     1      33.405 -14.462 -25.057  0.00  0.00    +0.182 HD
BRANCH   3   6
ATOM      6  O   UNL     1      33.781 -14.998 -27.050  0.00  0.00    -0.295 OA
ATOM      7  H   UNL     1      32.877 -15.101 -27.385  0.00  0.00    +0.241 HD
ENDBRANCH   3   6
ENDBRANCH   1   4
BRANCH   1   8
ATOM      8  N   UNL     1      33.844 -15.052 -23.204  0.00  0.00    -0.172 NA
ATOM      9  H   UNL     1      34.525 -14.371 -23.539  0.00  0.00    +0.149 HD
BRANCH   8  10
ATOM     10  S   UNL     1      33.626 -14.755 -21.546  0.00  0.00    +0.061 S 
ATOM     11  O   UNL     1      34.919 -14.718 -20.888  0.00  0.00    -0.153 OA
ATOM     12  O   UNL     1      32.579 -15.627 -21.049  0.00  0.00    -0.153 OA
BRANCH  10  13
ATOM     13  C   UNL     1      32.971 -13.114 -21.552  0.00  0.00    +0.122 C 
ATOM     14  C   UNL     1      33.174 -12.309 -22.660  0.00  0.00    +0.020 C 
ATOM     15  C   UNL     1      32.660 -11.003 -22.681  0.00  0.00    +0.001 C 
ATOM     16  C   UNL     1      32.269 -12.664 -20.451  0.00  0.00    +0.020 C 
ATOM     17  C   UNL     1      31.938 -10.525 -21.561  0.00  0.00    +0.000 C 
ATOM     18  C   UNL     1      31.751 -11.369 -20.455  0.00  0.00    +0.001 C 
ATOM     19  C   UNL     1      32.847 -10.159 -23.788  0.00  0.00    +0.000 C 
ATOM     20  C   UNL     1      31.425  -9.218 -21.581  0.00  0.00    +0.000 C 
ATOM     21  C   UNL     1      32.330  -8.863 -23.791  0.00  0.00    +0.000 C 
ATOM     22  C   UNL     1      31.620  -8.394 -22.690  0.00  0.00    +0.000 C 
ENDBRANCH  10  13
ENDBRANCH   8  10
ENDBRANCH   1   8
BRANCH   1  23
ATOM     23  C   UNL     1      35.708 -16.670 -23.089  0.00  0.00    +0.053 C 
BRANCH  23  24
ATOM     24  C   UNL     1      35.761 -17.895 -22.239  0.00  0.00    -0.020 C 
ATOM     25  C   UNL     1      34.578 -18.524 -21.847  0.00  0.00    -0.004 C 
ATOM     26  C   UNL     1      34.611 -19.678 -21.047  0.00  0.00    -0.000 C 
ATOM     27  C   UNL     1      36.989 -18.410 -21.837  0.00  0.00    -0.004 C 
ATOM     28  C   UNL     1      35.862 -20.201 -20.638  0.00  0.00    -0.000 C 
ATOM     29  C   UNL     1      37.041 -19.555 -21.042  0.00  0.00    -0.000 C 
ATOM     30  C   UNL     1      33.431 -20.323 -20.643  0.00  0.00    -0.000 C 
ATOM     31  C   UNL     1      35.895 -21.354 -19.838  0.00  0.00    -0.000 C 
ATOM     32  C   UNL     1      33.483 -21.469 -19.848  0.00  0.00    -0.000 C 
ATOM     33  C   UNL     1      34.712 -21.982 -19.446  0.00  0.00    -0.000 C 
ENDBRANCH  23  24
ENDBRANCH   1  23
TORSDOF 7
ENDMDL
MODEL 3
REMARK VINA RESULT:     -12.2      1.456      6.119
REMARK  Name = 9823454
REMARK  7 active torsions:
REMARK  status: ('A' for Active; 'I' for Inactive)
REMARK    1  A    between atoms: C_1  and  C_4
REMARK    2  A    between atoms: C_1  and  N_8
REMARK    3  A    between atoms: C_1  and  C_23
REMARK    4  A    between atoms: N_3  and  O_6
REMARK    5  A    between atoms: N_8  and  S_10
REMARK    6  A    between atoms: S_10  and  C_13
REMARK    7  A    between atoms: C_23  and  C_24
REMARK                            x       y       z     vdW  Elec       q    Type
REMARK                         _______ _______ _______ _____ _____    ______ ____
ROOT
ATOM      1  C   UNL     1      35.969 -22.522 -15.670  0.00  0.00    +0.158 C 
ENDROOT
BRANCH   1   4
ATOM      2  O   UNL     1      38.229 -23.376 -15.742  0.00  0.00    -0.272 OA
ATOM      3  N   UNL     1      37.196 -23.131 -13.691  0.00  0.00    -0.196 N 
ATOM      4  C   UNL     1      37.257 -23.052 -15.061  0.00  0.00    +0.260 C 
ATOM      5  H   UNL     1      36.395 -22.860 -13.187  0.00  0.00    +0.182 HD
BRANCH   3   6
ATOM      6  O   UNL     1      38.345 -23.621 -13.055  0.00  0.00    -0.295 OA
ATOM      7  H   UNL     1      38.509 -23.112 -12.247  0.00  0.00    +0.241 HD
ENDBRANCH   3   6
ENDBRANCH   1   4
BRANCH   1   8
ATOM      8  N   UNL     1      34.934 -22.694 -14.623  0.00  0.00    -0.172 NA
ATOM      9  H   UNL     1      35.254 -22.179 -13.803  0.00  0.00    +0.149 HD
BRANCH   8  10
ATOM     10  S   UNL     1      34.519 -24.253 -14.092  0.00  0.00    +0.061 S 
ATOM     11  O   UNL     1      34.654 -24.324 -12.649  0.00  0.00    -0.153 OA
ATOM     12  O   UNL     1      35.186 -25.227 -14.936  0.00  0.00    -0.153 OA
BRANCH  10  13
ATOM     13  C   UNL     1      32.798 -24.326 -14.482  0.00  0.00    +0.122 C 
ATOM     14  C   UNL     1      32.284 -23.466 -15.438  0.00  0.00    +0.020 C 
ATOM     15  C   UNL     1      30.918 -23.510 -15.759  0.00  0.00    +0.001 C 
ATOM     16  C   UNL     1      31.996 -25.240 -13.828  0.00  0.00    +0.020 C 
ATOM     17  C   UNL     1      30.082 -24.441 -15.097  0.00  0.00    +0.000 C 
ATOM     18  C   UNL     1      30.636 -25.299 -14.135  0.00  0.00    +0.001 C 
ATOM     19  C   UNL     1      30.363 -22.652 -16.722  0.00  0.00    +0.000 C 
ATOM     20  C   UNL     1      28.715 -24.485 -15.418  0.00  0.00    +0.000 C 
ATOM     21  C   UNL     1      29.003 -22.710 -17.029  0.00  0.00    +0.000 C 
ATOM     22  C   UNL     1      28.181 -23.625 -16.379  0.00  0.00    +0.000 C 
ENDBRANCH  10  13
ENDBRANCH   8  10
ENDBRANCH   1   8
BRANCH   1  23
ATOM     23  C   UNL     1      35.578 -23.319 -16.925  0.00  0.00    +0.053 C 
BRANCH  23  24
ATOM     24  C   UNL     1      35.189 -22.455 -18.077  0.00  0.00    -0.020 C 
ATOM     25  C   UNL     1      36.152 -21.685 -18.730  0.00  0.00    -0.004 C 
ATOM     26  C   UNL     1      35.801 -20.867 -19.816  0.00  0.00    -0.000 C 
ATOM     27  C   UNL     1      33.864 -22.416 -18.500  0.00  0.00    -0.004 C 
ATOM     28  C   UNL     1      34.453 -20.828 -20.246  0.00  0.00    -0.000 C 
ATOM     29  C   UNL     1      33.497 -21.609 -19.578  0.00  0.00    -0.000 C 
ATOM     30  C   UNL     1      36.759 -20.086 -20.483  0.00  0.00    -0.000 C 
ATOM     31  C   UNL     1      34.103 -20.010 -21.332  0.00  0.00    -0.000 C 
ATOM     32  C   UNL     1      36.392 -19.278 -21.561  0.00  0.00    -0.000 C 
ATOM     33  C   UNL     1      35.067 -19.240 -21.983  0.00  0.00    -0.000 C 
ENDBRANCH  23  24
ENDBRANCH   1  23
TORSDOF 7
ENDMDL
MODEL 4
REMARK VINA RESULT:     -12.2      8.576     11.804
REMARK  Name = 9823454
REMARK  7 active torsions:
REMARK  status: ('A' for Active; 'I' for Inactive)
REMARK    1  A    between atoms: C_1  and  C_4
REMARK    2  A    between atoms: C_1  and  N_8
REMARK    3  A    between atoms: C_1  and  C_23
REMARK    4  A    between atoms: N_3  and  O_6
REMARK    5  A    between atoms: N_8  and  S_10
REMARK    6  A    between atoms: S_10  and  C_13
REMARK    7  A    between atoms: C_23  and  C_24
REMARK                            x       y       z     vdW  Elec       q    Type
REMARK                         _______ _______ _______ _____ _____    ______ ____
ROOT
ATOM      1  C   UNL     1      34.630 -16.636 -23.415  0.00  0.00    +0.158 C 
ENDROOT
BRANCH   1   4
ATOM      2  O   UNL     1      34.627 -17.809 -25.528  0.00  0.00    -0.272 OA
ATOM      3  N   UNL     1      33.721 -15.688 -25.432  0.00  0.00    -0.196 N 
ATOM      4  C   UNL     1      34.334 -16.795 -24.898  0.00  0.00    +0.260 C 
ATOM      5  H   UNL     1      33.504 -14.896 -24.887  0.00  0.00    +0.182 HD
BRANCH   3   6
ATOM      6  O   UNL     1      33.424 -15.754 -26.800  0.00  0.00    -0.295 OA
ATOM      7  H   UNL     1      32.569 -15.327 -26.965  0.00  0.00    +0.241 HD
ENDBRANCH   3   6
ENDBRANCH   1   4
BRANCH   1   8
ATOM      8  N   UNL     1      34.637 -15.175 -23.165  0.00  0.00    -0.172 NA
ATOM      9  H   UNL     1      35.613 -14.897 -23.066  0.00  0.00    +0.149 HD
BRANCH   8  10
ATOM     10  S   UNL     1      33.808 -14.543 -21.825  0.00  0.00    +0.061 S 
ATOM     11  O   UNL     1      34.716 -14.444 -20.698  0.00  0.00    -0.153 OA
ATOM     12  O   UNL     1      32.545 -15.243 -21.685  0.00  0.00    -0.153 OA
BRANCH  10  13
ATOM     13  C   UNL     1      33.432 -12.904 -22.368  0.00  0.00    +0.122 C 
ATOM     14  C   UNL     1      32.721 -12.061 -21.531  0.00  0.00    +0.020 C 
ATOM     15  C   UNL     1      32.414 -10.755 -21.948  0.00  0.00    +0.001 C 
ATOM     16  C   UNL     1      33.855 -12.494 -23.617  0.00  0.00    +0.020 C 
ATOM     17  C   UNL     1      32.839 -10.319 -23.225  0.00  0.00    +0.000 C 
ATOM     18  C   UNL     1      33.559 -11.200 -24.047  0.00  0.00    +0.001 C 
ATOM     19  C   UNL     1      31.694  -9.874 -21.125  0.00  0.00    +0.000 C 
ATOM     20  C   UNL     1      32.531  -9.014 -23.642  0.00  0.00    +0.000 C 
ATOM     21  C   UNL     1      31.397  -8.580 -21.556  0.00  0.00    +0.000 C 
ATOM     22  C   UNL     1      31.815  -8.151 -22.811  0.00  0.00    +0.000 C 
ENDBRANCH  10  13
ENDBRANCH   8  10
ENDBRANCH   1   8
BRANCH   1  23
ATOM     23  C   UNL     1      36.001 -17.233 -23.055  0.00  0.00    +0.053 C 
BRANCH  23  24
ATOM     24  C   UNL     1      35.916 -18.377 -22.101  0.00  0.00    -0.020 C 
ATOM     25  C   UNL     1      34.675 -18.929 -21.782  0.00  0.00    -0.004 C 
ATOM     26  C   UNL     1      34.579 -20.006 -20.886  0.00  0.00    -0.000 C 
ATOM     27  C   UNL     1      37.075 -18.892 -21.530  0.00  0.00    -0.004 C 
ATOM     28  C   UNL     1      35.758 -20.530 -20.305  0.00  0.00    -0.000 C 
ATOM     29  C   UNL     1      36.998 -19.962 -20.638  0.00  0.00    -0.000 C 
ATOM     30  C   UNL     1      33.338 -20.573 -20.554  0.00  0.00    -0.000 C 
ATOM     31  C   UNL     1      35.662 -21.607 -19.409  0.00  0.00    -0.000 C 
ATOM     32  C   UNL     1      33.261 -21.644 -19.661  0.00  0.00    -0.000 C 
ATOM     33  C   UNL     1      34.420 -22.158 -19.090  0.00  0.00    -0.000 C 
ENDBRANCH  23  24
ENDBRANCH   1  23
TORSDOF 7
ENDMDL
MODEL 5
REMARK VINA RESULT:     -12.1     12.817     15.816
REMARK  Name = 9823454
REMARK  7 active torsions:
REMARK  status: ('A' for Active; 'I' for Inactive)
REMARK    1  A    between atoms: C_1  and  C_4
REMARK    2  A    between atoms: C_1  and  N_8
REMARK    3  A    between atoms: C_1  and  C_23
REMARK    4  A    between atoms: N_3  and  O_6
REMARK    5  A    between atoms: N_8  and  S_10
REMARK    6  A    between atoms: S_10  and  C_13
REMARK    7  A    between atoms: C_23  and  C_24
REMARK                            x       y       z     vdW  Elec       q    Type
REMARK                         _______ _______ _______ _____ _____    ______ ____
ROOT
ATOM      1  C   UNL     1      32.118 -10.223 -21.397  0.00  0.00    +0.158 C 
ENDROOT
BRANCH   1   4
ATOM      2  O   UNL     1      30.376 -10.091 -19.726  0.00  0.00    -0.272 OA
ATOM      3  N   UNL     1      32.580 -10.115 -19.038  0.00  0.00    -0.196 N 
ATOM      4  C   UNL     1      31.579 -10.139 -19.978  0.00  0.00    +0.260 C 
ATOM      5  H   UNL     1      33.532 -10.156 -19.286  0.00  0.00    +0.182 HD
BRANCH   3   6
ATOM      6  O   UNL     1      32.163 -10.028 -17.703  0.00  0.00    -0.295 OA
ATOM      7  H   UNL     1      31.272  -9.647 -17.667  0.00  0.00    +0.241 HD
ENDBRANCH   3   6
ENDBRANCH   1   4
BRANCH   1   8
ATOM      8  N   UNL     1      31.707  -8.959 -22.054  0.00  0.00    -0.172 NA
ATOM      9  H   UNL     1      31.961  -9.041 -23.038  0.00  0.00    +0.149 HD
BRANCH   8  10
ATOM     10  S   UNL     1      32.333  -7.479 -21.506  0.00  0.00    +0.061 S 
ATOM     11  O   UNL     1      33.307  -7.724 -20.459  0.00  0.00    -0.153 OA
ATOM     12  O   UNL     1      31.232  -6.562 -21.278  0.00  0.00    -0.153 OA
BRANCH  10  13
ATOM     13  C   UNL     1      33.200  -6.899 -22.932  0.00  0.00    +0.122 C 
ATOM     14  C   UNL     1      32.592  -5.976 -23.765  0.00  0.00    +0.020 C 
ATOM     15  C   UNL     1      33.267  -5.506 -24.903  0.00  0.00    +0.001 C 
ATOM     16  C   UNL     1      34.470  -7.378 -23.189  0.00  0.00    +0.020 C 
ATOM     17  C   UNL     1      34.569  -5.986 -25.182  0.00  0.00    +0.000 C 
ATOM     18  C   UNL     1      35.156  -6.921 -24.315  0.00  0.00    +0.001 C 
ATOM     19  C   UNL     1      32.680  -4.570 -25.769  0.00  0.00    +0.000 C 
ATOM     20  C   UNL     1      35.245  -5.516 -26.320  0.00  0.00    +0.000 C 
ATOM     21  C   UNL     1      33.366  -4.114 -26.896  0.00  0.00    +0.000 C 
ATOM     22  C   UNL     1      34.645  -4.586 -27.170  0.00  0.00    +0.000 C 
ENDBRANCH  10  13
ENDBRANCH   8  10
ENDBRANCH   1   8
BRANCH   1  23
ATOM     23  C   UNL     1      31.517 -11.421 -22.151  0.00  0.00    +0.053 C 
BRANCH  23  24
ATOM     24  C   UNL     1      32.295 -12.682 -21.973  0.00  0.00    -0.020 C 
ATOM     25  C   UNL     1      33.064 -13.182 -23.024  0.00  0.00    -0.004 C 
ATOM     26  C   UNL     1      33.802 -14.367 -22.872  0.00  0.00    -0.000 C 
ATOM     27  C   UNL     1      32.252 -13.359 -20.758  0.00  0.00    -0.004 C 
ATOM     28  C   UNL     1      33.758 -15.055 -21.636  0.00  0.00    -0.000 C 
ATOM     29  C   UNL     1      32.979 -14.537 -20.590  0.00  0.00    -0.000 C 
ATOM     30  C   UNL     1      34.581 -14.884 -23.920  0.00  0.00    -0.000 C 
ATOM     31  C   UNL     1      34.496 -16.241 -21.484  0.00  0.00    -0.000 C 
ATOM     32  C   UNL     1      35.308 -16.064 -23.751  0.00  0.00    -0.000 C 
ATOM     33  C   UNL     1      35.264 -16.740 -22.536  0.00  0.00    -0.000 C 
ENDBRANCH  23  24
ENDBRANCH   1  23
TORSDOF 7
ENDMDL
MODEL 6
REMARK VINA RESULT:     -12.0     13.390     17.003
REMARK  Name = 9823454
REMARK  7 active torsions:
REMARK  status: ('A' for Active; 'I' for Inactive)
REMARK    1  A    between atoms: C_1  and  C_4
REMARK    2  A    between atoms: C_1  and  N_8
REMARK    3  A    between atoms: C_1  and  C_23
REMARK    4  A    between atoms: N_3  and  O_6
REMARK    5  A    between atoms: N_8  and  S_10
REMARK    6  A    between atoms: S_10  and  C_13
REMARK    7  A    between atoms: C_23  and  C_24
REMARK                            x       y       z     vdW  Elec       q    Type
REMARK                         _______ _______ _______ _____ _____    ______ ____
ROOT
ATOM      1  C   UNL     1      32.566  -8.065 -21.491  0.00  0.00    +0.158 C 
ENDROOT
BRANCH   1   4
ATOM      2  O   UNL     1      31.826  -7.988 -19.191  0.00  0.00    -0.272 OA
ATOM      3  N   UNL     1      32.829  -6.118 -20.101  0.00  0.00    -0.196 N 
ATOM      4  C   UNL     1      32.361  -7.409 -20.135  0.00  0.00    +0.260 C 
ATOM      5  H   UNL     1      33.252  -5.694 -20.883  0.00  0.00    +0.182 HD
BRANCH   3   6
ATOM      6  O   UNL     1      32.667  -5.441 -18.884  0.00  0.00    -0.295 OA
ATOM      7  H   UNL     1      31.874  -4.884 -18.928  0.00  0.00    +0.241 HD
ENDBRANCH   3   6
ENDBRANCH   1   4
BRANCH   1   8
ATOM      8  N   UNL     1      32.360  -9.516 -21.266  0.00  0.00    -0.172 NA
ATOM      9  H   UNL     1      33.261  -9.903 -20.989  0.00  0.00    +0.149 HD
BRANCH   8  10
ATOM     10  S   UNL     1      31.773 -10.491 -22.527  0.00  0.00    +0.061 S 
ATOM     11  O   UNL     1      32.357 -10.059 -23.783  0.00  0.00    -0.153 OA
ATOM     12  O   UNL     1      30.333 -10.609 -22.394  0.00  0.00    -0.153 OA
BRANCH  10  13
ATOM     13  C   UNL     1      32.460 -12.067 -22.119  0.00  0.00    +0.122 C 
ATOM     14  C   UNL     1      33.276 -12.706 -23.037  0.00  0.00    +0.020 C 
ATOM     15  C   UNL     1      33.829 -13.960 -22.729  0.00  0.00    +0.001 C 
ATOM     16  C   UNL     1      32.171 -12.631 -20.893  0.00  0.00    +0.020 C 
ATOM     17  C   UNL     1      33.543 -14.553 -21.476  0.00  0.00    +0.000 C 
ATOM     18  C   UNL     1      32.713 -13.876 -20.569  0.00  0.00    +0.001 C 
ATOM     19  C   UNL     1      34.660 -14.637 -23.636  0.00  0.00    +0.000 C 
ATOM     20  C   UNL     1      34.096 -15.807 -21.168  0.00  0.00    +0.000 C 
ATOM     21  C   UNL     1      35.201 -15.882 -23.313  0.00  0.00    +0.000 C 
ATOM     22  C   UNL     1      34.920 -16.465 -22.082  0.00  0.00    +0.000 C 
ENDBRANCH  10  13
ENDBRANCH   8  10
ENDBRANCH   1   8
BRANCH   1  23
ATOM     23  C   UNL     1      33.988  -7.816 -22.020  0.00  0.00    +0.053 C 
BRANCH  23  24
ATOM     24  C   UNL     1      34.020  -6.997 -23.266  0.00  0.00    -0.020 C 
ATOM     25  C   UNL     1      32.953  -6.153 -23.576  0.00  0.00    -0.004 C 
ATOM     26  C   UNL     1      32.969  -5.376 -24.745  0.00  0.00    -0.000 C 
ATOM     27  C   UNL     1      35.117  -7.074 -24.120  0.00  0.00    -0.004 C 
ATOM     28  C   UNL     1      34.084  -5.455 -25.613  0.00  0.00    -0.000 C 
ATOM     29  C   UNL     1      35.150  -6.308 -25.286  0.00  0.00    -0.000 C 
ATOM     30  C   UNL     1      31.903  -4.523 -25.071  0.00  0.00    -0.000 C 
ATOM     31  C   UNL     1      34.100  -4.677 -26.782  0.00  0.00    -0.000 C 
ATOM     32  C   UNL     1      31.936  -3.756 -26.238  0.00  0.00    -0.000 C 
ATOM     33  C   UNL     1      33.032  -3.835 -27.091  0.00  0.00    -0.000 C 
ENDBRANCH  23  24
ENDBRANCH   1  23
TORSDOF 7
ENDMDL
MODEL 7
REMARK VINA RESULT:     -11.9     13.326     17.041
REMARK  Name = 9823454
REMARK  7 active torsions:
REMARK  status: ('A' for Active; 'I' for Inactive)
REMARK    1  A    between atoms: C_1  and  C_4
REMARK    2  A    between atoms: C_1  and  N_8
REMARK    3  A    between atoms: C_1  and  C_23
REMARK    4  A    between atoms: N_3  and  O_6
REMARK    5  A    between atoms: N_8  and  S_10
REMARK    6  A    between atoms: S_10  and  C_13
REMARK    7  A    between atoms: C_23  and  C_24
REMARK                            x       y       z     vdW  Elec       q    Type
REMARK                         _______ _______ _______ _____ _____    ______ ____
ROOT
ATOM      1  C   UNL     1      32.480  -8.162 -21.571  0.00  0.00    +0.158 C 
ENDROOT
BRANCH   1   4
ATOM      2  O   UNL     1      31.965  -8.192 -19.210  0.00  0.00    -0.272 OA
ATOM      3  N   UNL     1      32.746  -6.236 -20.154  0.00  0.00    -0.196 N 
ATOM      4  C   UNL     1      32.366  -7.555 -20.182  0.00  0.00    +0.260 C 
ATOM      5  H   UNL     1      33.062  -5.764 -20.959  0.00  0.00    +0.182 HD
BRANCH   3   6
ATOM      6  O   UNL     1      32.659  -5.600 -18.907  0.00  0.00    -0.295 OA
ATOM      7  H   UNL     1      32.654  -4.639 -19.034  0.00  0.00    +0.241 HD
ENDBRANCH   3   6
ENDBRANCH   1   4
BRANCH   1   8
ATOM      8  N   UNL     1      32.471  -9.630 -21.366  0.00  0.00    -0.172 NA
ATOM      9  H   UNL     1      33.439  -9.915 -21.224  0.00  0.00    +0.149 HD
BRANCH   8  10
ATOM     10  S   UNL     1      31.830 -10.647 -22.565  0.00  0.00    +0.061 S 
ATOM     11  O   UNL     1      32.375 -10.273 -23.857  0.00  0.00    -0.153 OA
ATOM     12  O   UNL     1      30.395 -10.743 -22.379  0.00  0.00    -0.153 OA
BRANCH  10  13
ATOM     13  C   UNL     1      32.513 -12.214 -22.118  0.00  0.00    +0.122 C 
ATOM     14  C   UNL     1      33.340 -12.871 -23.013  0.00  0.00    +0.020 C 
ATOM     15  C   UNL     1      33.891 -14.118 -22.673  0.00  0.00    +0.001 C 
ATOM     16  C   UNL     1      32.210 -12.754 -20.884  0.00  0.00    +0.020 C 
ATOM     17  C   UNL     1      33.591 -14.686 -21.412  0.00  0.00    +0.000 C 
ATOM     18  C   UNL     1      32.749 -13.992 -20.529  0.00  0.00    +0.001 C 
ATOM     19  C   UNL     1      34.733 -14.812 -23.557  0.00  0.00    +0.000 C 
ATOM     20  C   UNL     1      34.141 -15.933 -21.072  0.00  0.00    +0.000 C 
ATOM     21  C   UNL     1      35.271 -16.050 -23.202  0.00  0.00    +0.000 C 
ATOM     22  C   UNL     1      34.976 -16.609 -21.963  0.00  0.00    +0.000 C 
ENDBRANCH  10  13
ENDBRANCH   8  10
ENDBRANCH   1   8
BRANCH   1  23
ATOM     23  C   UNL     1      33.790  -7.740 -22.257  0.00  0.00    +0.053 C 
BRANCH  23  24
ATOM     24  C   UNL     1      33.580  -6.858 -23.441  0.00  0.00    -0.020 C 
ATOM     25  C   UNL     1      34.635  -6.605 -24.319  0.00  0.00    -0.004 C 
ATOM     26  C   UNL     1      34.453  -5.777 -25.439  0.00  0.00    -0.000 C 
ATOM     27  C   UNL     1      32.332  -6.287 -23.670  0.00  0.00    -0.004 C 
ATOM     28  C   UNL     1      33.183  -5.197 -25.671  0.00  0.00    -0.000 C 
ATOM     29  C   UNL     1      32.134  -5.462 -24.777  0.00  0.00    -0.000 C 
ATOM     30  C   UNL     1      35.504  -5.512 -26.331  0.00  0.00    -0.000 C 
ATOM     31  C   UNL     1      33.002  -4.369 -26.791  0.00  0.00    -0.000 C 
ATOM     32  C   UNL     1      35.305  -4.687 -27.440  0.00  0.00    -0.000 C 
ATOM     33  C   UNL     1      34.057  -4.116 -27.667  0.00  0.00    -0.000 C 
ENDBRANCH  23  24
ENDBRANCH   1  23
TORSDOF 7
ENDMDL
MODEL 8
REMARK VINA RESULT:     -11.7      1.996      3.251
REMARK  Name = 9823454
REMARK  7 active torsions:
REMARK  status: ('A' for Active; 'I' for Inactive)
REMARK    1  A    between atoms: C_1  and  C_4
REMARK    2  A    between atoms: C_1  and  N_8
REMARK    3  A    between atoms: C_1  and  C_23
REMARK    4  A    between atoms: N_3  and  O_6
REMARK    5  A    between atoms: N_8  and  S_10
REMARK    6  A    between atoms: S_10  and  C_13
REMARK    7  A    between atoms: C_23  and  C_24
REMARK                            x       y       z     vdW  Elec       q    Type
REMARK                         _______ _______ _______ _____ _____    ______ ____
ROOT
ATOM      1  C   UNL     1      34.448 -24.298 -15.983  0.00  0.00    +0.158 C 
ENDROOT
BRANCH   1   4
ATOM      2  O   UNL     1      36.569 -25.377 -15.566  0.00  0.00    -0.272 OA
ATOM      3  N   UNL     1      36.435 -23.080 -15.385  0.00  0.00    -0.196 N 
ATOM      4  C   UNL     1      35.925 -24.331 -15.629  0.00  0.00    +0.260 C 
ATOM      5  H   UNL     1      35.881 -22.268 -15.448  0.00  0.00    +0.182 HD
BRANCH   3   6
ATOM      6  O   UNL     1      37.793 -23.028 -15.041  0.00  0.00    -0.295 OA
ATOM      7  H   UNL     1      38.319 -23.447 -15.740  0.00  0.00    +0.241 HD
ENDBRANCH   3   6
ENDBRANCH   1   4
BRANCH   1   8
ATOM      8  N   UNL     1      34.236 -23.010 -16.687  0.00  0.00    -0.172 NA
ATOM      9  H   UNL     1      33.616 -22.452 -16.102  0.00  0.00    +0.149 HD
BRANCH   8  10
ATOM     10  S   UNL     1      33.575 -23.001 -18.252  0.00  0.00    +0.061 S 
ATOM     11  O   UNL     1      32.264 -22.380 -18.218  0.00  0.00    -0.153 OA
ATOM     12  O   UNL     1      33.744 -24.317 -18.838  0.00  0.00    -0.153 OA
BRANCH  10  13
ATOM     13  C   UNL     1      34.672 -21.910 -19.105  0.00  0.00    +0.122 C 
ATOM     14  C   UNL     1      34.174 -21.105 -20.115  0.00  0.00    +0.020 C 
ATOM     15  C   UNL     1      35.033 -20.233 -20.803  0.00  0.00    +0.001 C 
ATOM     16  C   UNL     1      36.006 -21.881 -18.749  0.00  0.00    +0.020 C 
ATOM     17  C   UNL     1      36.404 -20.191 -20.451  0.00  0.00    +0.000 C 
ATOM     18  C   UNL     1      36.874 -21.021 -19.422  0.00  0.00    +0.001 C 
ATOM     19  C   UNL     1      34.563 -19.402 -21.833  0.00  0.00    +0.000 C 
ATOM     20  C   UNL     1      37.263 -19.319 -21.140  0.00  0.00    +0.000 C 
ATOM     21  C   UNL     1      35.431 -18.542 -22.507  0.00  0.00    +0.000 C 
ATOM     22  C   UNL     1      36.778 -18.501 -22.161  0.00  0.00    +0.000 C 
ENDBRANCH  10  13
ENDBRANCH   8  10
ENDBRANCH   1   8
BRANCH   1  23
ATOM     23  C   UNL     1      33.572 -24.351 -14.721  0.00  0.00    +0.053 C 
BRANCH  23  24
ATOM     24  C   UNL     1      32.206 -23.787 -14.924  0.00  0.00    -0.020 C 
ATOM     25  C   UNL     1      31.307 -24.425 -15.780  0.00  0.00    -0.004 C 
ATOM     26  C   UNL     1      30.018 -23.906 -15.982  0.00  0.00    -0.000 C 
ATOM     27  C   UNL     1      31.828 -22.625 -14.258  0.00  0.00    -0.004 C 
ATOM     28  C   UNL     1      29.634 -22.724 -15.304  0.00  0.00    -0.000 C 
ATOM     29  C   UNL     1      30.551 -22.096 -14.446  0.00  0.00    -0.000 C 
ATOM     30  C   UNL     1      29.102 -24.534 -16.840  0.00  0.00    -0.000 C 
ATOM     31  C   UNL     1      28.345 -22.205 -15.505  0.00  0.00    -0.000 C 
ATOM     32  C   UNL     1      27.824 -24.005 -17.028  0.00  0.00    -0.000 C 
ATOM     33  C   UNL     1      27.447 -22.842 -16.363  0.00  0.00    -0.000 C 
ENDBRANCH  23  24
ENDBRANCH   1  23
TORSDOF 7
ENDMDL
MODEL 9
REMARK VINA RESULT:     -11.5      1.317      1.520
REMARK  Name = 9823454
REMARK  7 active torsions:
REMARK  status: ('A' for Active; 'I' for Inactive)
REMARK    1  A    between atoms: C_1  and  C_4
REMARK    2  A    between atoms: C_1  and  N_8
REMARK    3  A    between atoms: C_1  and  C_23
REMARK    4  A    between atoms: N_3  and  O_6
REMARK    5  A    between atoms: N_8  and  S_10
REMARK    6  A    between atoms: S_10  and  C_13
REMARK    7  A    between atoms: C_23  and  C_24
REMARK                            x       y       z     vdW  Elec       q    Type
REMARK                         _______ _______ _______ _____ _____    ______ ____
ROOT
ATOM      1  C   UNL     1      35.306 -25.194 -14.773  0.00  0.00    +0.158 C 
ENDROOT
BRANCH   1   4
ATOM      2  O   UNL     1      36.904 -24.960 -12.975  0.00  0.00    -0.272 OA
ATOM      3  N   UNL     1      37.479 -26.225 -14.818  0.00  0.00    -0.196 N 
ATOM      4  C   UNL     1      36.635 -25.436 -14.077  0.00  0.00    +0.260 C 
ATOM      5  H   UNL     1      37.221 -26.586 -15.698  0.00  0.00    +0.182 HD
BRANCH   3   6
ATOM      6  O   UNL     1      38.732 -26.487 -14.246  0.00  0.00    -0.295 OA
ATOM      7  H   UNL     1      38.847 -27.444 -14.146  0.00  0.00    +0.241 HD
ENDBRANCH   3   6
ENDBRANCH   1   4
BRANCH   1   8
ATOM      8  N   UNL     1      35.645 -24.558 -16.069  0.00  0.00    -0.172 NA
ATOM      9  H   UNL     1      36.245 -25.212 -16.570  0.00  0.00    +0.149 HD
BRANCH   8  10
ATOM     10  S   UNL     1      36.431 -23.053 -16.092  0.00  0.00    +0.061 S 
ATOM     11  O   UNL     1      37.856 -23.255 -16.274  0.00  0.00    -0.153 OA
ATOM     12  O   UNL     1      35.944 -22.255 -14.982  0.00  0.00    -0.153 OA
BRANCH  10  13
ATOM     13  C   UNL     1      35.790 -22.328 -17.569  0.00  0.00    +0.122 C 
ATOM     14  C   UNL     1      36.608 -21.513 -18.333  0.00  0.00    +0.020 C 
ATOM     15  C   UNL     1      36.112 -20.929 -19.511  0.00  0.00    +0.001 C 
ATOM     16  C   UNL     1      34.484 -22.588 -17.936  0.00  0.00    +0.020 C 
ATOM     17  C   UNL     1      34.776 -21.185 -19.901  0.00  0.00    +0.000 C 
ATOM     18  C   UNL     1      33.975 -22.016 -19.103  0.00  0.00    +0.001 C 
ATOM     19  C   UNL     1      36.914 -20.097 -20.309  0.00  0.00    +0.000 C 
ATOM     20  C   UNL     1      34.281 -20.600 -21.078  0.00  0.00    +0.000 C 
ATOM     21  C   UNL     1      36.405 -19.524 -21.475  0.00  0.00    +0.000 C 
ATOM     22  C   UNL     1      35.092 -19.776 -21.859  0.00  0.00    +0.000 C 
ENDBRANCH  10  13
ENDBRANCH   8  10
ENDBRANCH   1   8
BRANCH   1  23
ATOM     23  C   UNL     1      34.409 -24.253 -13.950  0.00  0.00    +0.053 C 
BRANCH  23  24
ATOM     24  C   UNL     1      32.967 -24.335 -14.322  0.00  0.00    -0.020 C 
ATOM     25  C   UNL     1      32.447 -23.478 -15.293  0.00  0.00    -0.004 C 
ATOM     26  C   UNL     1      31.091 -23.542 -15.654  0.00  0.00    -0.000 C 
ATOM     27  C   UNL     1      32.141 -25.267 -13.702  0.00  0.00    -0.004 C 
ATOM     28  C   UNL     1      30.251 -24.490 -15.022  0.00  0.00    -0.000 C 
ATOM     29  C   UNL     1      30.792 -25.345 -14.048  0.00  0.00    -0.000 C 
ATOM     30  C   UNL     1      30.551 -22.687 -16.627  0.00  0.00    -0.000 C 
ATOM     31  C   UNL     1      28.896 -24.555 -15.383  0.00  0.00    -0.000 C 
ATOM     32  C   UNL     1      29.201 -22.765 -16.974  0.00  0.00    -0.000 C 
ATOM     33  C   UNL     1      28.376 -23.696 -16.352  0.00  0.00    -0.000 C 
ENDBRANCH  23  24
ENDBRANCH   1  23
TORSDOF 7
ENDMDL
