MODEL 1
REMARK VINA RESULT:     -12.8      0.000      0.000
REMARK  Name = 23586145
REMARK  7 active torsions:
REMARK  status: ('A' for Active; 'I' for Inactive)
REMARK    1  A    between atoms: C_5  and  O_24
REMARK    2  A    between atoms: C_7  and  N_10
REMARK    3  A    between atoms: N_10  and  C_12
REMARK    4  A    between atoms: C_15  and  S_18
REMARK    5  A    between atoms: S_18  and  N_21
REMARK    6  A    between atoms: O_24  and  C_25
REMARK    7  A    between atoms: C_25  and  C_26
REMARK                            x       y       z     vdW  Elec       q    Type
REMARK                         _______ _______ _______ _____ _____    ______ ____
ROOT
ATOM      1  N   UNL     1      33.796 -14.988 -23.523  0.00  0.00    -0.299 NA
ATOM      2  N   UNL     1      34.932 -17.106 -23.625  0.00  0.00    -0.106 N 
ATOM      3  N   UNL     1      35.193 -18.068 -24.548  0.00  0.00    -0.139 NA
ATOM      4  N   UNL     1      33.990 -16.385 -25.500  0.00  0.00    -0.145 NA
ATOM      5  C   UNL     1      34.148 -14.971 -22.278  0.00  0.00    +0.291 C 
ATOM      6  C   UNL     1      34.924 -15.994 -21.543  0.00  0.00    +0.105 C 
ATOM      7  C   UNL     1      35.299 -17.060 -22.272  0.00  0.00    +0.142 C 
ATOM      8  C   UNL     1      34.192 -16.084 -24.233  0.00  0.00    +0.178 C 
ATOM      9  C   UNL     1      34.610 -17.584 -25.640  0.00  0.00    +0.230 C 
ENDROOT
BRANCH   7  10
ATOM     10  N   UNL     1      36.020 -18.109 -21.777  0.00  0.00    -0.299 N 
ATOM     11  H   UNL     1      36.993 -18.068 -21.925  0.00  0.00    +0.153 HD
BRANCH  10  12
ATOM     12  C   UNL     1      35.556 -19.235 -21.089  0.00  0.00    +0.049 C 
ATOM     13  C   UNL     1      36.453 -20.078 -20.421  0.00  0.00    +0.016 C 
ATOM     14  C   UNL     1      34.187 -19.533 -21.061  0.00  0.00    +0.016 C 
ATOM     15  C   UNL     1      34.624 -21.490 -19.712  0.00  0.00    +0.122 C 
ATOM     16  C   UNL     1      35.989 -21.201 -19.735  0.00  0.00    +0.021 C 
ATOM     17  C   UNL     1      33.723 -20.656 -20.375  0.00  0.00    +0.021 C 
BRANCH  15  18
ATOM     18  S   UNL     1      34.044 -22.896 -18.854  0.00  0.00    +0.057 S 
ATOM     19  O   UNL     1      33.965 -24.006 -19.792  0.00  0.00    -0.153 OA
ATOM     20  O   UNL     1      34.814 -23.039 -17.627  0.00  0.00    -0.153 OA
BRANCH  18  21
ATOM     21  N   UNL     1      32.459 -22.399 -18.452  0.00  0.00    -0.203 NA
ATOM     22  H   UNL     1      31.930 -23.200 -18.107  0.00  0.00    +0.144 HD
ATOM     23  H   UNL     1      32.002 -22.019 -19.280  0.00  0.00    +0.144 HD
ENDBRANCH  18  21
ENDBRANCH  15  18
ENDBRANCH  10  12
ENDBRANCH   7  10
BRANCH   5  24
ATOM     24  O   UNL     1      33.807 -13.945 -21.505  0.00  0.00    -0.451 OA
BRANCH  24  25
ATOM     25  C   UNL     1      32.453 -13.921 -21.095  0.00  0.00    +0.208 C 
BRANCH  25  26
ATOM     26  C   UNL     1      31.901 -12.515 -21.329  0.00  0.00    +0.044 C 
ATOM     27  C   UNL     1      32.052 -11.658 -20.064  0.00  0.00    +0.004 C 
ATOM     28  C   UNL     1      32.596 -11.852 -22.525  0.00  0.00    +0.004 C 
ATOM     29  C   UNL     1      31.555 -10.231 -20.288  0.00  0.00    +0.000 C 
ATOM     30  C   UNL     1      32.098 -10.424 -22.745  0.00  0.00    +0.000 C 
ATOM     31  C   UNL     1      32.241  -9.578 -21.484  0.00  0.00    +0.000 C 
ENDBRANCH  25  26
ENDBRANCH  24  25
ENDBRANCH   5  24
TORSDOF 7
ENDMDL
MODEL 2
REMARK VINA RESULT:     -12.6      4.148      9.380
REMARK  Name = 23586145
REMARK  7 active torsions:
REMARK  status: ('A' for Active; 'I' for Inactive)
REMARK    1  A    between atoms: C_5  and  O_24
REMARK    2  A    between atoms: C_7  and  N_10
REMARK    3  A    between atoms: N_10  and  C_12
REMARK    4  A    between atoms: C_15  and  S_18
REMARK    5  A    between atoms: S_18  and  N_21
REMARK    6  A    between atoms: O_24  and  C_25
REMARK    7  A    between atoms: C_25  and  C_26
REMARK                            x       y       z     vdW  Elec       q    Type
REMARK                         _______ _______ _______ _____ _____    ______ ____
ROOT
ATOM      1  N   UNL     1      35.007 -16.253 -23.954  0.00  0.00    -0.299 NA
ATOM      2  N   UNL     1      33.305 -14.624 -24.438  0.00  0.00    -0.106 N 
ATOM      3  N   UNL     1      32.714 -14.076 -25.532  0.00  0.00    -0.139 NA
ATOM      4  N   UNL     1      34.282 -15.597 -26.176  0.00  0.00    -0.145 NA
ATOM      5  C   UNL     1      34.762 -15.994 -22.710  0.00  0.00    +0.291 C 
ATOM      6  C   UNL     1      33.776 -15.036 -22.163  0.00  0.00    +0.105 C 
ATOM      7  C   UNL     1      33.061 -14.364 -23.081  0.00  0.00    +0.142 C 
ATOM      8  C   UNL     1      34.263 -15.554 -24.859  0.00  0.00    +0.178 C 
ATOM      9  C   UNL     1      33.335 -14.692 -26.532  0.00  0.00    +0.230 C 
ENDROOT
BRANCH   7  10
ATOM     10  N   UNL     1      32.104 -13.438 -22.778  0.00  0.00    -0.299 N 
ATOM     11  H   UNL     1      31.179 -13.775 -22.739  0.00  0.00    +0.153 HD
BRANCH  10  12
ATOM     12  C   UNL     1      32.267 -12.073 -22.518  0.00  0.00    +0.049 C 
ATOM     13  C   UNL     1      31.707 -11.498 -21.370  0.00  0.00    +0.016 C 
ATOM     14  C   UNL     1      32.993 -11.265 -23.402  0.00  0.00    +0.016 C 
ATOM     15  C   UNL     1      32.595  -9.340 -21.998  0.00  0.00    +0.122 C 
ATOM     16  C   UNL     1      31.870 -10.137 -21.111  0.00  0.00    +0.021 C 
ATOM     17  C   UNL     1      33.157  -9.904 -23.144  0.00  0.00    +0.021 C 
BRANCH  15  18
ATOM     18  S   UNL     1      32.799  -7.637 -21.673  0.00  0.00    +0.057 S 
ATOM     19  O   UNL     1      33.889  -7.139 -22.500  0.00  0.00    -0.153 OA
ATOM     20  O   UNL     1      31.494  -6.994 -21.735  0.00  0.00    -0.153 OA
BRANCH  18  21
ATOM     21  N   UNL     1      33.314  -7.676 -20.044  0.00  0.00    -0.203 NA
ATOM     22  H   UNL     1      32.709  -8.302 -19.513  0.00  0.00    +0.144 HD
ATOM     23  H   UNL     1      33.263  -6.738 -19.649  0.00  0.00    +0.144 HD
ENDBRANCH  18  21
ENDBRANCH  15  18
ENDBRANCH  10  12
ENDBRANCH   7  10
BRANCH   5  24
ATOM     24  O   UNL     1      35.436 -16.626 -21.754  0.00  0.00    -0.451 OA
BRANCH  24  25
ATOM     25  C   UNL     1      35.975 -17.880 -22.124  0.00  0.00    +0.208 C 
BRANCH  25  26
ATOM     26  C   UNL     1      35.653 -18.890 -21.023  0.00  0.00    +0.044 C 
ATOM     27  C   UNL     1      34.383 -19.680 -21.369  0.00  0.00    +0.004 C 
ATOM     28  C   UNL     1      36.838 -19.835 -20.790  0.00  0.00    +0.004 C 
ATOM     29  C   UNL     1      34.068 -20.732 -20.307  0.00  0.00    +0.000 C 
ATOM     30  C   UNL     1      36.519 -20.888 -19.730  0.00  0.00    +0.000 C 
ATOM     31  C   UNL     1      35.252 -21.665 -20.072  0.00  0.00    +0.000 C 
ENDBRANCH  25  26
ENDBRANCH  24  25
ENDBRANCH   5  24
TORSDOF 7
ENDMDL
MODEL 3
REMARK VINA RESULT:     -12.5      5.620     10.957
REMARK  Name = 23586145
REMARK  7 active torsions:
REMARK  status: ('A' for Active; 'I' for Inactive)
REMARK    1  A    between atoms: C_5  and  O_24
REMARK    2  A    between atoms: C_7  and  N_10
REMARK    3  A    between atoms: N_10  and  C_12
REMARK    4  A    between atoms: C_15  and  S_18
REMARK    5  A    between atoms: S_18  and  N_21
REMARK    6  A    between atoms: O_24  and  C_25
REMARK    7  A    between atoms: C_25  and  C_26
REMARK                            x       y       z     vdW  Elec       q    Type
REMARK                         _______ _______ _______ _____ _____    ______ ____
ROOT
ATOM      1  N   UNL     1      32.703 -23.446 -14.469  0.00  0.00    -0.299 NA
ATOM      2  N   UNL     1      31.958 -23.063 -16.724  0.00  0.00    -0.106 N 
ATOM      3  N   UNL     1      30.795 -22.785 -17.369  0.00  0.00    -0.139 NA
ATOM      4  N   UNL     1      30.416 -22.967 -15.131  0.00  0.00    -0.145 NA
ATOM      5  C   UNL     1      33.878 -23.597 -14.988  0.00  0.00    +0.291 C 
ATOM      6  C   UNL     1      34.256 -23.505 -16.415  0.00  0.00    +0.105 C 
ATOM      7  C   UNL     1      33.244 -23.232 -17.258  0.00  0.00    +0.142 C 
ATOM      8  C   UNL     1      31.700 -23.170 -15.351  0.00  0.00    +0.178 C 
ATOM      9  C   UNL     1      29.917 -22.740 -16.372  0.00  0.00    +0.230 C 
ENDROOT
BRANCH   7  10
ATOM     10  N   UNL     1      33.387 -23.106 -18.610  0.00  0.00    -0.299 N 
ATOM     11  H   UNL     1      33.015 -23.840 -19.151  0.00  0.00    +0.153 HD
BRANCH  10  12
ATOM     12  C   UNL     1      33.997 -22.070 -19.326  0.00  0.00    +0.049 C 
ATOM     13  C   UNL     1      33.219 -21.113 -19.989  0.00  0.00    +0.016 C 
ATOM     14  C   UNL     1      35.393 -21.977 -19.388  0.00  0.00    +0.016 C 
ATOM     15  C   UNL     1      35.218 -19.996 -20.759  0.00  0.00    +0.122 C 
ATOM     16  C   UNL     1      33.827 -20.080 -20.703  0.00  0.00    +0.021 C 
ATOM     17  C   UNL     1      36.002 -20.945 -20.101  0.00  0.00    +0.021 C 
BRANCH  15  18
ATOM     18  S   UNL     1      35.980 -18.703 -21.652  0.00  0.00    +0.057 S 
ATOM     19  O   UNL     1      35.781 -18.947 -23.073  0.00  0.00    -0.153 OA
ATOM     20  O   UNL     1      35.566 -17.433 -21.071  0.00  0.00    -0.153 OA
BRANCH  18  21
ATOM     21  N   UNL     1      37.624 -18.970 -21.271  0.00  0.00    -0.203 NA
ATOM     22  H   UNL     1      37.985 -19.734 -21.842  0.00  0.00    +0.144 HD
ATOM     23  H   UNL     1      37.709 -19.213 -20.285  0.00  0.00    +0.144 HD
ENDBRANCH  18  21
ENDBRANCH  15  18
ENDBRANCH  10  12
ENDBRANCH   7  10
BRANCH   5  24
ATOM     24  O   UNL     1      34.920 -23.869 -14.208  0.00  0.00    -0.451 OA
BRANCH  24  25
ATOM     25  C   UNL     1      36.154 -23.325 -14.637  0.00  0.00    +0.208 C 
BRANCH  25  26
ATOM     26  C   UNL     1      37.215 -24.423 -14.574  0.00  0.00    +0.044 C 
ATOM     27  C   UNL     1      38.450 -24.029 -15.396  0.00  0.00    +0.004 C 
ATOM     28  C   UNL     1      37.599 -24.722 -13.120  0.00  0.00    +0.004 C 
ATOM     29  C   UNL     1      39.547 -25.088 -15.306  0.00  0.00    +0.000 C 
ATOM     30  C   UNL     1      38.699 -25.780 -13.033  0.00  0.00    +0.000 C 
ATOM     31  C   UNL     1      39.920 -25.389 -13.858  0.00  0.00    +0.000 C 
ENDBRANCH  25  26
ENDBRANCH  24  25
ENDBRANCH   5  24
TORSDOF 7
ENDMDL
MODEL 4
REMARK VINA RESULT:     -12.1      6.914     10.238
REMARK  Name = 23586145
REMARK  7 active torsions:
REMARK  status: ('A' for Active; 'I' for Inactive)
REMARK    1  A    between atoms: C_5  and  O_24
REMARK    2  A    between atoms: C_7  and  N_10
REMARK    3  A    between atoms: N_10  and  C_12
REMARK    4  A    between atoms: C_15  and  S_18
REMARK    5  A    between atoms: S_18  and  N_21
REMARK    6  A    between atoms: O_24  and  C_25
REMARK    7  A    between atoms: C_25  and  C_26
REMARK                            x       y       z     vdW  Elec       q    Type
REMARK                         _______ _______ _______ _____ _____    ______ ____
ROOT
ATOM      1  N   UNL     1      31.405 -23.496 -16.555  0.00  0.00    -0.299 NA
ATOM      2  N   UNL     1      32.183 -24.512 -14.518  0.00  0.00    -0.106 N 
ATOM      3  N   UNL     1      31.653 -25.151 -13.442  0.00  0.00    -0.139 NA
ATOM      4  N   UNL     1      29.995 -24.553 -14.884  0.00  0.00    -0.145 NA
ATOM      5  C   UNL     1      32.651 -23.236 -16.784  0.00  0.00    +0.291 C 
ATOM      6  C   UNL     1      33.816 -23.567 -15.935  0.00  0.00    +0.105 C 
ATOM      7  C   UNL     1      33.526 -24.215 -14.793  0.00  0.00    +0.142 C 
ATOM      8  C   UNL     1      31.146 -24.155 -15.388  0.00  0.00    +0.178 C 
ATOM      9  C   UNL     1      30.353 -25.145 -13.716  0.00  0.00    +0.230 C 
ENDROOT
BRANCH   7  10
ATOM     10  N   UNL     1      34.460 -24.608 -13.878  0.00  0.00    -0.299 N 
ATOM     11  H   UNL     1      34.132 -24.740 -12.960  0.00  0.00    +0.153 HD
BRANCH  10  12
ATOM     12  C   UNL     1      35.825 -24.847 -14.078  0.00  0.00    +0.049 C 
ATOM     13  C   UNL     1      36.248 -25.853 -14.955  0.00  0.00    +0.016 C 
ATOM     14  C   UNL     1      36.784 -24.080 -13.402  0.00  0.00    +0.016 C 
ATOM     15  C   UNL     1      38.557 -25.322 -14.475  0.00  0.00    +0.122 C 
ATOM     16  C   UNL     1      37.609 -26.090 -15.152  0.00  0.00    +0.021 C 
ATOM     17  C   UNL     1      38.144 -24.317 -13.600  0.00  0.00    +0.021 C 
BRANCH  15  18
ATOM     18  S   UNL     1      40.259 -25.619 -14.724  0.00  0.00    +0.057 S 
ATOM     19  O   UNL     1      40.993 -24.416 -14.359  0.00  0.00    -0.153 OA
ATOM     20  O   UNL     1      40.602 -26.891 -14.103  0.00  0.00    -0.153 OA
BRANCH  18  21
ATOM     21  N   UNL     1      40.312 -25.805 -16.421  0.00  0.00    -0.203 NA
ATOM     22  H   UNL     1      40.236 -26.795 -16.657  0.00  0.00    +0.144 HD
ATOM     23  H   UNL     1      41.194 -25.438 -16.776  0.00  0.00    +0.144 HD
ENDBRANCH  18  21
ENDBRANCH  15  18
ENDBRANCH  10  12
ENDBRANCH   7  10
BRANCH   5  24
ATOM     24  O   UNL     1      33.003 -22.596 -17.896  0.00  0.00    -0.451 OA
BRANCH  24  25
ATOM     25  C   UNL     1      34.320 -22.851 -18.347  0.00  0.00    +0.208 C 
BRANCH  25  26
ATOM     26  C   UNL     1      34.563 -22.034 -19.615  0.00  0.00    +0.044 C 
ATOM     27  C   UNL     1      33.403 -21.060 -19.862  0.00  0.00    +0.004 C 
ATOM     28  C   UNL     1      35.898 -21.284 -19.529  0.00  0.00    +0.004 C 
ATOM     29  C   UNL     1      33.647 -20.195 -21.097  0.00  0.00    +0.000 C 
ATOM     30  C   UNL     1      36.139 -20.417 -20.764  0.00  0.00    +0.000 C 
ATOM     31  C   UNL     1      34.980 -19.457 -21.012  0.00  0.00    +0.000 C 
ENDBRANCH  25  26
ENDBRANCH  24  25
ENDBRANCH   5  24
TORSDOF 7
ENDMDL
MODEL 5
REMARK VINA RESULT:     -12.0      8.116     11.054
REMARK  Name = 23586145
REMARK  7 active torsions:
REMARK  status: ('A' for Active; 'I' for Inactive)
REMARK    1  A    between atoms: C_5  and  O_24
REMARK    2  A    between atoms: C_7  and  N_10
REMARK    3  A    between atoms: N_10  and  C_12
REMARK    4  A    between atoms: C_15  and  S_18
REMARK    5  A    between atoms: S_18  and  N_21
REMARK    6  A    between atoms: O_24  and  C_25
REMARK    7  A    between atoms: C_25  and  C_26
REMARK                            x       y       z     vdW  Elec       q    Type
REMARK                         _______ _______ _______ _____ _____    ______ ____
ROOT
ATOM      1  N   UNL     1      37.182 -23.730 -13.888  0.00  0.00    -0.299 NA
ATOM      2  N   UNL     1      35.261 -24.419 -12.614  0.00  0.00    -0.106 N 
ATOM      3  N   UNL     1      34.936 -24.630 -11.312  0.00  0.00    -0.139 NA
ATOM      4  N   UNL     1      37.108 -23.962 -11.472  0.00  0.00    -0.145 NA
ATOM      5  C   UNL     1      36.420 -23.870 -14.925  0.00  0.00    +0.291 C 
ATOM      6  C   UNL     1      35.004 -24.294 -14.957  0.00  0.00    +0.105 C 
ATOM      7  C   UNL     1      34.459 -24.562 -13.757  0.00  0.00    +0.142 C 
ATOM      8  C   UNL     1      36.598 -24.010 -12.687  0.00  0.00    +0.178 C 
ATOM      9  C   UNL     1      36.071 -24.342 -10.683  0.00  0.00    +0.230 C 
ENDROOT
BRANCH   7  10
ATOM     10  N   UNL     1      33.168 -24.966 -13.576  0.00  0.00    -0.299 N 
ATOM     11  H   UNL     1      33.026 -25.652 -12.884  0.00  0.00    +0.153 HD
BRANCH  10  12
ATOM     12  C   UNL     1      32.019 -24.532 -14.248  0.00  0.00    +0.049 C 
ATOM     13  C   UNL     1      30.923 -25.389 -14.405  0.00  0.00    +0.016 C 
ATOM     14  C   UNL     1      31.953 -23.234 -14.771  0.00  0.00    +0.016 C 
ATOM     15  C   UNL     1      29.722 -23.661 -15.593  0.00  0.00    +0.122 C 
ATOM     16  C   UNL     1      29.779 -24.955 -15.076  0.00  0.00    +0.021 C 
ATOM     17  C   UNL     1      30.810 -22.800 -15.441  0.00  0.00    +0.021 C 
BRANCH  15  18
ATOM     18  S   UNL     1      28.290 -23.119 -16.432  0.00  0.00    +0.057 S 
ATOM     19  O   UNL     1      27.230 -22.926 -15.453  0.00  0.00    -0.153 OA
ATOM     20  O   UNL     1      28.661 -22.027 -17.321  0.00  0.00    -0.153 OA
BRANCH  18  21
ATOM     21  N   UNL     1      27.926 -24.496 -17.377  0.00  0.00    -0.203 NA
ATOM     22  H   UNL     1      28.662 -24.635 -18.070  0.00  0.00    +0.144 HD
ATOM     23  H   UNL     1      27.035 -24.356 -17.851  0.00  0.00    +0.144 HD
ENDBRANCH  18  21
ENDBRANCH  15  18
ENDBRANCH  10  12
ENDBRANCH   7  10
BRANCH   5  24
ATOM     24  O   UNL     1      36.899 -23.621 -16.140  0.00  0.00    -0.451 OA
BRANCH  24  25
ATOM     25  C   UNL     1      36.707 -22.298 -16.604  0.00  0.00    +0.208 C 
BRANCH  25  26
ATOM     26  C   UNL     1      36.070 -22.359 -17.992  0.00  0.00    +0.044 C 
ATOM     27  C   UNL     1      34.539 -22.361 -17.884  0.00  0.00    +0.004 C 
ATOM     28  C   UNL     1      36.555 -21.194 -18.863  0.00  0.00    +0.004 C 
ATOM     29  C   UNL     1      33.878 -22.370 -19.261  0.00  0.00    +0.000 C 
ATOM     30  C   UNL     1      35.890 -21.204 -20.239  0.00  0.00    +0.000 C 
ATOM     31  C   UNL     1      34.369 -21.215 -20.128  0.00  0.00    +0.000 C 
ENDBRANCH  25  26
ENDBRANCH  24  25
ENDBRANCH   5  24
TORSDOF 7
ENDMDL
MODEL 6
REMARK VINA RESULT:     -11.7      5.705      9.721
REMARK  Name = 23586145
REMARK  7 active torsions:
REMARK  status: ('A' for Active; 'I' for Inactive)
REMARK    1  A    between atoms: C_5  and  O_24
REMARK    2  A    between atoms: C_7  and  N_10
REMARK    3  A    between atoms: N_10  and  C_12
REMARK    4  A    between atoms: C_15  and  S_18
REMARK    5  A    between atoms: S_18  and  N_21
REMARK    6  A    between atoms: O_24  and  C_25
REMARK    7  A    between atoms: C_25  and  C_26
REMARK                            x       y       z     vdW  Elec       q    Type
REMARK                         _______ _______ _______ _____ _____    ______ ____
ROOT
ATOM      1  N   UNL     1      32.299 -23.331 -14.687  0.00  0.00    -0.299 NA
ATOM      2  N   UNL     1      34.009 -23.558 -16.363  0.00  0.00    -0.106 N 
ATOM      3  N   UNL     1      35.331 -23.867 -16.421  0.00  0.00    -0.139 NA
ATOM      4  N   UNL     1      34.613 -23.929 -14.260  0.00  0.00    -0.145 NA
ATOM      5  C   UNL     1      31.512 -23.037 -15.671  0.00  0.00    +0.291 C 
ATOM      6  C   UNL     1      31.851 -22.962 -17.109  0.00  0.00    +0.105 C 
ATOM      7  C   UNL     1      33.133 -23.235 -17.410  0.00  0.00    +0.142 C 
ATOM      8  C   UNL     1      33.592 -23.603 -15.027  0.00  0.00    +0.178 C 
ATOM      9  C   UNL     1      35.633 -24.077 -15.144  0.00  0.00    +0.230 C 
ENDROOT
BRANCH   7  10
ATOM     10  N   UNL     1      33.641 -23.220 -18.677  0.00  0.00    -0.299 N 
ATOM     11  H   UNL     1      33.610 -24.076 -19.162  0.00  0.00    +0.153 HD
BRANCH  10  12
ATOM     12  C   UNL     1      34.204 -22.145 -19.375  0.00  0.00    +0.049 C 
ATOM     13  C   UNL     1      35.594 -21.983 -19.428  0.00  0.00    +0.016 C 
ATOM     14  C   UNL     1      33.382 -21.218 -20.029  0.00  0.00    +0.016 C 
ATOM     15  C   UNL     1      35.328 -19.993 -20.772  0.00  0.00    +0.122 C 
ATOM     16  C   UNL     1      36.153 -20.911 -20.123  0.00  0.00    +0.021 C 
ATOM     17  C   UNL     1      33.941 -20.146 -20.724  0.00  0.00    +0.021 C 
BRANCH  15  18
ATOM     18  S   UNL     1      36.028 -18.651 -21.642  0.00  0.00    +0.057 S 
ATOM     19  O   UNL     1      35.837 -18.879 -23.067  0.00  0.00    -0.153 OA
ATOM     20  O   UNL     1      35.559 -17.412 -21.038  0.00  0.00    -0.153 OA
BRANCH  18  21
ATOM     21  N   UNL     1      37.684 -18.851 -21.268  0.00  0.00    -0.203 NA
ATOM     22  H   UNL     1      38.102 -17.939 -21.085  0.00  0.00    +0.144 HD
ATOM     23  H   UNL     1      38.159 -19.291 -22.055  0.00  0.00    +0.144 HD
ENDBRANCH  18  21
ENDBRANCH  15  18
ENDBRANCH  10  12
ENDBRANCH   7  10
BRANCH   5  24
ATOM     24  O   UNL     1      30.233 -22.756 -15.440  0.00  0.00    -0.451 OA
BRANCH  24  25
ATOM     25  C   UNL     1      29.365 -23.873 -15.421  0.00  0.00    +0.208 C 
BRANCH  25  26
ATOM     26  C   UNL     1      28.049 -23.475 -16.088  0.00  0.00    +0.044 C 
ATOM     27  C   UNL     1      27.360 -22.353 -15.298  0.00  0.00    +0.004 C 
ATOM     28  C   UNL     1      28.285 -23.053 -17.543  0.00  0.00    +0.004 C 
ATOM     29  C   UNL     1      26.067 -21.901 -15.973  0.00  0.00    +0.000 C 
ATOM     30  C   UNL     1      26.990 -22.599 -18.216  0.00  0.00    +0.000 C 
ATOM     31  C   UNL     1      26.304 -21.490 -17.423  0.00  0.00    +0.000 C 
ENDBRANCH  25  26
ENDBRANCH  24  25
ENDBRANCH   5  24
TORSDOF 7
ENDMDL
MODEL 7
REMARK VINA RESULT:     -11.4      6.459      9.340
REMARK  Name = 23586145
REMARK  7 active torsions:
REMARK  status: ('A' for Active; 'I' for Inactive)
REMARK    1  A    between atoms: C_5  and  O_24
REMARK    2  A    between atoms: C_7  and  N_10
REMARK    3  A    between atoms: N_10  and  C_12
REMARK    4  A    between atoms: C_15  and  S_18
REMARK    5  A    between atoms: S_18  and  N_21
REMARK    6  A    between atoms: O_24  and  C_25
REMARK    7  A    between atoms: C_25  and  C_26
REMARK                            x       y       z     vdW  Elec       q    Type
REMARK                         _______ _______ _______ _____ _____    ______ ____
ROOT
ATOM      1  N   UNL     1      37.831 -22.804 -16.559  0.00  0.00    -0.299 NA
ATOM      2  N   UNL     1      36.503 -23.638 -14.735  0.00  0.00    -0.106 N 
ATOM      3  N   UNL     1      36.687 -24.366 -13.602  0.00  0.00    -0.139 NA
ATOM      4  N   UNL     1      38.670 -24.113 -14.694  0.00  0.00    -0.145 NA
ATOM      5  C   UNL     1      36.725 -22.303 -17.005  0.00  0.00    +0.291 C 
ATOM      6  C   UNL     1      35.380 -22.393 -16.396  0.00  0.00    +0.105 C 
ATOM      7  C   UNL     1      35.319 -23.083 -15.243  0.00  0.00    +0.142 C 
ATOM      8  C   UNL     1      37.734 -23.497 -15.387  0.00  0.00    +0.178 C 
ATOM      9  C   UNL     1      37.992 -24.618 -13.632  0.00  0.00    +0.230 C 
ENDROOT
BRANCH   7  10
ATOM     10  N   UNL     1      34.172 -23.279 -14.528  0.00  0.00    -0.299 N 
ATOM     11  H   UNL     1      34.290 -23.436 -13.564  0.00  0.00    +0.153 HD
BRANCH  10  12
ATOM     12  C   UNL     1      32.851 -23.286 -14.991  0.00  0.00    +0.049 C 
ATOM     13  C   UNL     1      32.580 -23.379 -16.361  0.00  0.00    +0.016 C 
ATOM     14  C   UNL     1      31.784 -23.201 -14.087  0.00  0.00    +0.016 C 
ATOM     15  C   UNL     1      30.207 -23.301 -15.914  0.00  0.00    +0.122 C 
ATOM     16  C   UNL     1      31.263 -23.387 -16.821  0.00  0.00    +0.021 C 
ATOM     17  C   UNL     1      30.468 -23.209 -14.546  0.00  0.00    +0.021 C 
BRANCH  15  18
ATOM     18  S   UNL     1      28.559 -23.311 -16.490  0.00  0.00    +0.057 S 
ATOM     19  O   UNL     1      28.565 -22.968 -17.905  0.00  0.00    -0.153 OA
ATOM     20  O   UNL     1      27.921 -24.543 -16.047  0.00  0.00    -0.153 OA
BRANCH  18  21
ATOM     21  N   UNL     1      27.899 -22.004 -15.608  0.00  0.00    -0.203 NA
ATOM     22  H   UNL     1      27.246 -22.362 -14.910  0.00  0.00    +0.144 HD
ATOM     23  H   UNL     1      27.408 -21.378 -16.244  0.00  0.00    +0.144 HD
ENDBRANCH  18  21
ENDBRANCH  15  18
ENDBRANCH  10  12
ENDBRANCH   7  10
BRANCH   5  24
ATOM     24  O   UNL     1      36.719 -21.611 -18.140  0.00  0.00    -0.451 OA
BRANCH  24  25
ATOM     25  C   UNL     1      35.694 -21.958 -19.053  0.00  0.00    +0.208 C 
BRANCH  25  26
ATOM     26  C   UNL     1      35.829 -21.073 -20.291  0.00  0.00    +0.044 C 
ATOM     27  C   UNL     1      34.495 -20.383 -20.610  0.00  0.00    +0.004 C 
ATOM     28  C   UNL     1      36.946 -20.039 -20.100  0.00  0.00    +0.004 C 
ATOM     29  C   UNL     1      34.616 -19.451 -21.814  0.00  0.00    +0.000 C 
ATOM     30  C   UNL     1      37.064 -19.107 -21.305  0.00  0.00    +0.000 C 
ATOM     31  C   UNL     1      35.735 -18.431 -21.624  0.00  0.00    +0.000 C 
ENDBRANCH  25  26
ENDBRANCH  24  25
ENDBRANCH   5  24
TORSDOF 7
ENDMDL
MODEL 8
REMARK VINA RESULT:     -11.3      4.714      7.783
REMARK  Name = 23586145
REMARK  7 active torsions:
REMARK  status: ('A' for Active; 'I' for Inactive)
REMARK    1  A    between atoms: C_5  and  O_24
REMARK    2  A    between atoms: C_7  and  N_10
REMARK    3  A    between atoms: N_10  and  C_12
REMARK    4  A    between atoms: C_15  and  S_18
REMARK    5  A    between atoms: S_18  and  N_21
REMARK    6  A    between atoms: O_24  and  C_25
REMARK    7  A    between atoms: C_25  and  C_26
REMARK                            x       y       z     vdW  Elec       q    Type
REMARK                         _______ _______ _______ _____ _____    ______ ____
ROOT
ATOM      1  N   UNL     1      32.983  -8.307 -21.771  0.00  0.00    -0.299 NA
ATOM      2  N   UNL     1      32.060 -10.394 -21.011  0.00  0.00    -0.106 N 
ATOM      3  N   UNL     1      31.557 -10.917 -19.862  0.00  0.00    -0.139 NA
ATOM      4  N   UNL     1      32.191  -8.756 -19.520  0.00  0.00    -0.145 NA
ATOM      5  C   UNL     1      33.111  -8.894 -22.917  0.00  0.00    +0.291 C 
ATOM      6  C   UNL     1      32.740 -10.282 -23.269  0.00  0.00    +0.105 C 
ATOM      7  C   UNL     1      32.211 -11.005 -22.265  0.00  0.00    +0.142 C 
ATOM      8  C   UNL     1      32.443  -9.068 -20.776  0.00  0.00    +0.178 C 
ATOM      9  C   UNL     1      31.660  -9.899 -19.015  0.00  0.00    +0.230 C 
ENDROOT
BRANCH   7  10
ATOM     10  N   UNL     1      31.805 -12.303 -22.389  0.00  0.00    -0.299 N 
ATOM     11  H   UNL     1      30.901 -12.503 -22.055  0.00  0.00    +0.153 HD
BRANCH  10  12
ATOM     12  C   UNL     1      32.510 -13.386 -22.926  0.00  0.00    +0.049 C 
ATOM     13  C   UNL     1      33.143 -14.309 -22.084  0.00  0.00    +0.016 C 
ATOM     14  C   UNL     1      32.592 -13.559 -24.314  0.00  0.00    +0.016 C 
ATOM     15  C   UNL     1      33.921 -15.553 -24.004  0.00  0.00    +0.122 C 
ATOM     16  C   UNL     1      33.845 -15.388 -22.621  0.00  0.00    +0.021 C 
ATOM     17  C   UNL     1      33.294 -14.638 -24.851  0.00  0.00    +0.021 C 
BRANCH  15  18
ATOM     18  S   UNL     1      34.801 -16.903 -24.675  0.00  0.00    +0.057 S 
ATOM     19  O   UNL     1      33.921 -18.063 -24.689  0.00  0.00    -0.153 OA
ATOM     20  O   UNL     1      35.445 -16.469 -25.907  0.00  0.00    -0.153 OA
BRANCH  18  21
ATOM     21  N   UNL     1      36.001 -17.135 -23.481  0.00  0.00    -0.203 NA
ATOM     22  H   UNL     1      36.338 -16.228 -23.158  0.00  0.00    +0.144 HD
ATOM     23  H   UNL     1      36.776 -17.665 -23.877  0.00  0.00    +0.144 HD
ENDBRANCH  18  21
ENDBRANCH  15  18
ENDBRANCH  10  12
ENDBRANCH   7  10
BRANCH   5  24
ATOM     24  O   UNL     1      33.628  -8.234 -23.949  0.00  0.00    -0.451 OA
BRANCH  24  25
ATOM     25  C   UNL     1      34.611  -7.272 -23.618  0.00  0.00    +0.208 C 
BRANCH  25  26
ATOM     26  C   UNL     1      34.380  -6.028 -24.474  0.00  0.00    +0.044 C 
ATOM     27  C   UNL     1      35.157  -6.128 -25.794  0.00  0.00    +0.004 C 
ATOM     28  C   UNL     1      32.883  -5.821 -24.736  0.00  0.00    +0.004 C 
ATOM     29  C   UNL     1      34.901  -4.919 -26.692  0.00  0.00    +0.000 C 
ATOM     30  C   UNL     1      32.630  -4.612 -25.636  0.00  0.00    +0.000 C 
ATOM     31  C   UNL     1      33.411  -4.711 -26.942  0.00  0.00    +0.000 C 
ENDBRANCH  25  26
ENDBRANCH  24  25
ENDBRANCH   5  24
TORSDOF 7
ENDMDL
MODEL 9
REMARK VINA RESULT:     -11.0      3.650      8.470
REMARK  Name = 23586145
REMARK  7 active torsions:
REMARK  status: ('A' for Active; 'I' for Inactive)
REMARK    1  A    between atoms: C_5  and  O_24
REMARK    2  A    between atoms: C_7  and  N_10
REMARK    3  A    between atoms: N_10  and  C_12
REMARK    4  A    between atoms: C_15  and  S_18
REMARK    5  A    between atoms: S_18  and  N_21
REMARK    6  A    between atoms: O_24  and  C_25
REMARK    7  A    between atoms: C_25  and  C_26
REMARK                            x       y       z     vdW  Elec       q    Type
REMARK                         _______ _______ _______ _____ _____    ______ ____
ROOT
ATOM      1  N   UNL     1      34.144 -18.463 -24.695  0.00  0.00    -0.299 NA
ATOM      2  N   UNL     1      34.079 -16.060 -24.610  0.00  0.00    -0.106 N 
ATOM      3  N   UNL     1      33.588 -15.036 -25.355  0.00  0.00    -0.139 NA
ATOM      4  N   UNL     1      33.095 -17.026 -26.348  0.00  0.00    -0.145 NA
ATOM      5  C   UNL     1      34.800 -18.386 -23.583  0.00  0.00    +0.291 C 
ATOM      6  C   UNL     1      35.182 -17.165 -22.839  0.00  0.00    +0.105 C 
ATOM      7  C   UNL     1      34.793 -16.007 -23.403  0.00  0.00    +0.142 C 
ATOM      8  C   UNL     1      33.764 -17.270 -25.239  0.00  0.00    +0.178 C 
ATOM      9  C   UNL     1      33.015 -15.671 -26.372  0.00  0.00    +0.230 C 
ENDROOT
BRANCH   7  10
ATOM     10  N   UNL     1      35.047 -14.776 -22.872  0.00  0.00    -0.299 N 
ATOM     11  H   UNL     1      35.991 -14.582 -22.670  0.00  0.00    +0.153 HD
BRANCH  10  12
ATOM     12  C   UNL     1      34.139 -13.752 -22.577  0.00  0.00    +0.049 C 
ATOM     13  C   UNL     1      33.285 -13.859 -21.472  0.00  0.00    +0.016 C 
ATOM     14  C   UNL     1      34.072 -12.610 -23.384  0.00  0.00    +0.016 C 
ATOM     15  C   UNL     1      32.321 -11.704 -21.988  0.00  0.00    +0.122 C 
ATOM     16  C   UNL     1      32.380 -12.839 -21.178  0.00  0.00    +0.021 C 
ATOM     17  C   UNL     1      33.167 -11.590 -23.091  0.00  0.00    +0.021 C 
BRANCH  15  18
ATOM     18  S   UNL     1      31.188 -10.428 -21.620  0.00  0.00    +0.057 S 
ATOM     19  O   UNL     1      31.027  -9.601 -22.808  0.00  0.00    -0.153 OA
ATOM     20  O   UNL     1      30.017 -11.017 -20.985  0.00  0.00    -0.153 OA
BRANCH  18  21
ATOM     21  N   UNL     1      32.062  -9.545 -20.447  0.00  0.00    -0.203 NA
ATOM     22  H   UNL     1      31.473  -9.393 -19.628  0.00  0.00    +0.144 HD
ATOM     23  H   UNL     1      32.342  -8.646 -20.837  0.00  0.00    +0.144 HD
ENDBRANCH  18  21
ENDBRANCH  15  18
ENDBRANCH  10  12
ENDBRANCH   7  10
BRANCH   5  24
ATOM     24  O   UNL     1      35.213 -19.495 -22.976  0.00  0.00    -0.451 OA
BRANCH  24  25
ATOM     25  C   UNL     1      35.999 -19.292 -21.817  0.00  0.00    +0.208 C 
BRANCH  25  26
ATOM     26  C   UNL     1      35.305 -19.971 -20.637  0.00  0.00    +0.044 C 
ATOM     27  C   UNL     1      33.840 -20.282 -20.976  0.00  0.00    +0.004 C 
ATOM     28  C   UNL     1      36.054 -21.246 -20.229  0.00  0.00    +0.004 C 
ATOM     29  C   UNL     1      33.139 -21.008 -19.830  0.00  0.00    +0.000 C 
ATOM     30  C   UNL     1      35.348 -21.972 -19.084  0.00  0.00    +0.000 C 
ATOM     31  C   UNL     1      33.891 -22.270 -19.421  0.00  0.00    +0.000 C 
ENDBRANCH  25  26
ENDBRANCH  24  25
ENDBRANCH   5  24
TORSDOF 7
ENDMDL
