MODEL 1
REMARK VINA RESULT:     -13.9      0.000      0.000
REMARK  Name = 24882195
REMARK  2 active torsions:
REMARK  status: ('A' for Active; 'I' for Inactive)
REMARK    1  A    between atoms: C_5  and  N_15
REMARK    2  A    between atoms: N_15  and  C_21
REMARK                            x       y       z     vdW  Elec       q    Type
REMARK                         _______ _______ _______ _____ _____    ______ ____
ROOT
ATOM      1  C   UNL     1      34.777 -19.638 -21.129  0.00  0.00    +0.001 C 
ATOM      2  C   UNL     1      36.109 -19.921 -20.756  0.00  0.00    +0.000 C 
ATOM      3  C   UNL     1      33.974 -21.319 -19.539  0.00  0.00    +0.000 C 
ATOM      4  C   UNL     1      35.306 -21.603 -19.165  0.00  0.00    +0.000 C 
ATOM      5  C   UNL     1      35.584 -17.969 -22.706  0.00  0.00    +0.049 C 
ATOM      6  C   UNL     1      33.727 -20.341 -20.516  0.00  0.00    +0.000 C 
ATOM      7  C   UNL     1      34.531 -18.659 -22.106  0.00  0.00    +0.015 C 
ATOM      8  C   UNL     1      36.357 -20.900 -19.779  0.00  0.00    +0.000 C 
ATOM      9  C   UNL     1      37.159 -19.217 -21.370  0.00  0.00    +0.001 C 
ATOM     10  C   UNL     1      36.897 -18.248 -22.339  0.00  0.00    +0.015 C 
ATOM     11  C   UNL     1      32.925 -22.024 -18.925  0.00  0.00    +0.000 C 
ATOM     12  C   UNL     1      35.553 -22.582 -18.188  0.00  0.00    +0.000 C 
ATOM     13  C   UNL     1      33.186 -22.993 -17.957  0.00  0.00    +0.000 C 
ATOM     14  C   UNL     1      34.498 -23.271 -17.589  0.00  0.00    +0.000 C 
ENDROOT
BRANCH   5  15
ATOM     15  N   UNL     1      35.319 -16.989 -23.686  0.00  0.00    -0.299 N 
ATOM     16  H   UNL     1      35.777 -17.112 -24.548  0.00  0.00    +0.153 HD
BRANCH  15  21
ATOM     17  N   UNL     1      34.039 -15.353 -24.792  0.00  0.00    -0.106 N 
ATOM     18  N   UNL     1      32.825 -13.618 -23.652  0.00  0.00    -0.340 NA
ATOM     19  N   UNL     1      34.260 -15.759 -26.069  0.00  0.00    -0.139 NA
ATOM     20  N   UNL     1      32.906 -13.929 -26.057  0.00  0.00    -0.145 NA
ATOM     21  C   UNL     1      34.520 -15.903 -23.597  0.00  0.00    +0.138 C 
ATOM     22  C   UNL     1      34.163 -15.324 -22.440  0.00  0.00    +0.061 C 
ATOM     23  C   UNL     1      33.206 -14.230 -24.809  0.00  0.00    +0.174 C 
ATOM     24  C   UNL     1      33.271 -14.129 -22.544  0.00  0.00    +0.125 C 
ATOM     25  C   UNL     1      32.863 -13.468 -21.252  0.00  0.00    +0.068 C 
ATOM     26  C   UNL     1      33.562 -14.875 -26.774  0.00  0.00    +0.230 C 
ENDBRANCH  15  21
ENDBRANCH   5  15
TORSDOF 2
ENDMDL
MODEL 2
REMARK VINA RESULT:     -13.5      1.050      2.307
REMARK  Name = 24882195
REMARK  2 active torsions:
REMARK  status: ('A' for Active; 'I' for Inactive)
REMARK    1  A    between atoms: C_5  and  N_15
REMARK    2  A    between atoms: N_15  and  C_21
REMARK                            x       y       z     vdW  Elec       q    Type
REMARK                         _______ _______ _______ _____ _____    ______ ____
ROOT
ATOM      1  C   UNL     1      35.031 -20.071 -21.153  0.00  0.00    +0.001 C 
ATOM      2  C   UNL     1      36.321 -20.114 -20.579  0.00  0.00    +0.000 C 
ATOM      3  C   UNL     1      34.209 -21.595 -19.420  0.00  0.00    +0.000 C 
ATOM      4  C   UNL     1      35.499 -21.638 -18.846  0.00  0.00    +0.000 C 
ATOM      5  C   UNL     1      35.857 -18.557 -22.870  0.00  0.00    +0.049 C 
ATOM      6  C   UNL     1      33.993 -20.812 -20.566  0.00  0.00    +0.000 C 
ATOM      7  C   UNL     1      34.816 -19.288 -22.299  0.00  0.00    +0.015 C 
ATOM      8  C   UNL     1      36.538 -20.897 -19.433  0.00  0.00    +0.000 C 
ATOM      9  C   UNL     1      37.359 -19.372 -21.166  0.00  0.00    +0.001 C 
ATOM     10  C   UNL     1      37.129 -18.599 -22.305  0.00  0.00    +0.015 C 
ATOM     11  C   UNL     1      33.171 -22.337 -18.832  0.00  0.00    +0.000 C 
ATOM     12  C   UNL     1      35.715 -22.421 -17.700  0.00  0.00    +0.000 C 
ATOM     13  C   UNL     1      33.402 -23.110 -17.694  0.00  0.00    +0.000 C 
ATOM     14  C   UNL     1      34.672 -23.151 -17.129  0.00  0.00    +0.000 C 
ENDROOT
BRANCH   5  15
ATOM     15  N   UNL     1      35.623 -17.775 -24.021  0.00  0.00    -0.299 N 
ATOM     16  H   UNL     1      36.044 -18.099 -24.850  0.00  0.00    +0.153 HD
BRANCH  15  21
ATOM     17  N   UNL     1      34.649 -15.910 -22.968  0.00  0.00    -0.106 N 
ATOM     18  N   UNL     1      33.400 -14.222 -24.138  0.00  0.00    -0.340 NA
ATOM     19  N   UNL     1      35.038 -16.178 -21.693  0.00  0.00    -0.139 NA
ATOM     20  N   UNL     1      33.831 -14.248 -21.751  0.00  0.00    -0.145 NA
ATOM     21  C   UNL     1      34.900 -16.641 -24.136  0.00  0.00    +0.138 C 
ATOM     22  C   UNL     1      34.409 -16.175 -25.295  0.00  0.00    +0.061 C 
ATOM     23  C   UNL     1      33.912 -14.722 -22.978  0.00  0.00    +0.174 C 
ATOM     24  C   UNL     1      33.632 -14.900 -25.223  0.00  0.00    +0.125 C 
ATOM     25  C   UNL     1      33.074 -14.366 -26.517  0.00  0.00    +0.068 C 
ATOM     26  C   UNL     1      34.523 -15.156 -21.018  0.00  0.00    +0.230 C 
ENDBRANCH  15  21
ENDBRANCH   5  15
TORSDOF 2
ENDMDL
MODEL 3
REMARK VINA RESULT:     -13.4      6.473     10.550
REMARK  Name = 24882195
REMARK  2 active torsions:
REMARK  status: ('A' for Active; 'I' for Inactive)
REMARK    1  A    between atoms: C_5  and  N_15
REMARK    2  A    between atoms: N_15  and  C_21
REMARK                            x       y       z     vdW  Elec       q    Type
REMARK                         _______ _______ _______ _____ _____    ______ ____
ROOT
ATOM      1  C   UNL     1      35.208 -21.990 -18.409  0.00  0.00    +0.001 C 
ATOM      2  C   UNL     1      33.921 -21.859 -18.975  0.00  0.00    +0.000 C 
ATOM      3  C   UNL     1      36.118 -20.509 -20.135  0.00  0.00    +0.000 C 
ATOM      4  C   UNL     1      34.832 -20.377 -20.702  0.00  0.00    +0.000 C 
ATOM      5  C   UNL     1      34.294 -23.461 -16.699  0.00  0.00    +0.049 C 
ATOM      6  C   UNL     1      36.290 -21.314 -18.997  0.00  0.00    +0.000 C 
ATOM      7  C   UNL     1      35.378 -22.795 -17.271  0.00  0.00    +0.015 C 
ATOM      8  C   UNL     1      33.749 -21.054 -20.114  0.00  0.00    +0.000 C 
ATOM      9  C   UNL     1      32.839 -22.535 -18.387  0.00  0.00    +0.001 C 
ATOM     10  C   UNL     1      33.025 -23.331 -17.256  0.00  0.00    +0.015 C 
ATOM     11  C   UNL     1      37.199 -19.832 -20.723  0.00  0.00    +0.000 C 
ATOM     12  C   UNL     1      34.660 -19.572 -21.840  0.00  0.00    +0.000 C 
ATOM     13  C   UNL     1      37.014 -19.037 -21.854  0.00  0.00    +0.000 C 
ATOM     14  C   UNL     1      35.746 -18.907 -22.411  0.00  0.00    +0.000 C 
ENDROOT
BRANCH   5  15
ATOM     15  N   UNL     1      34.483 -24.265 -15.555  0.00  0.00    -0.299 N 
ATOM     16  H   UNL     1      33.706 -24.803 -15.278  0.00  0.00    +0.153 HD
BRANCH  15  21
ATOM     17  N   UNL     1      36.393 -25.521 -14.998  0.00  0.00    -0.106 N 
ATOM     18  N   UNL     1      37.961 -24.873 -13.293  0.00  0.00    -0.340 NA
ATOM     19  N   UNL     1      36.228 -26.537 -15.884  0.00  0.00    -0.139 NA
ATOM     20  N   UNL     1      38.117 -26.872 -14.659  0.00  0.00    -0.145 NA
ATOM     21  C   UNL     1      35.587 -24.394 -14.789  0.00  0.00    +0.138 C 
ATOM     22  C   UNL     1      35.957 -23.514 -13.846  0.00  0.00    +0.061 C 
ATOM     23  C   UNL     1      37.559 -25.747 -14.259  0.00  0.00    +0.174 C 
ATOM     24  C   UNL     1      37.213 -23.828 -13.100  0.00  0.00    +0.125 C 
ATOM     25  C   UNL     1      37.639 -22.848 -12.036  0.00  0.00    +0.068 C 
ATOM     26  C   UNL     1      37.282 -27.307 -15.636  0.00  0.00    +0.230 C 
ENDBRANCH  15  21
ENDBRANCH   5  15
TORSDOF 2
ENDMDL
MODEL 4
REMARK VINA RESULT:     -13.4      6.870     10.990
REMARK  Name = 24882195
REMARK  2 active torsions:
REMARK  status: ('A' for Active; 'I' for Inactive)
REMARK    1  A    between atoms: C_5  and  N_15
REMARK    2  A    between atoms: N_15  and  C_21
REMARK                            x       y       z     vdW  Elec       q    Type
REMARK                         _______ _______ _______ _____ _____    ______ ____
ROOT
ATOM      1  C   UNL     1      35.482 -22.393 -17.869  0.00  0.00    +0.001 C 
ATOM      2  C   UNL     1      34.109 -22.457 -18.194  0.00  0.00    +0.000 C 
ATOM      3  C   UNL     1      35.857 -20.875 -19.756  0.00  0.00    +0.000 C 
ATOM      4  C   UNL     1      34.484 -20.939 -20.081  0.00  0.00    +0.000 C 
ATOM      5  C   UNL     1      35.099 -23.901 -15.998  0.00  0.00    +0.049 C 
ATOM      6  C   UNL     1      36.338 -21.603 -18.655  0.00  0.00    +0.000 C 
ATOM      7  C   UNL     1      35.962 -23.121 -16.768  0.00  0.00    +0.015 C 
ATOM      8  C   UNL     1      33.627 -21.729 -19.295  0.00  0.00    +0.000 C 
ATOM      9  C   UNL     1      33.253 -23.246 -17.408  0.00  0.00    +0.001 C 
ATOM     10  C   UNL     1      33.746 -23.964 -16.317  0.00  0.00    +0.015 C 
ATOM     11  C   UNL     1      36.712 -20.086 -20.542  0.00  0.00    +0.000 C 
ATOM     12  C   UNL     1      34.003 -20.211 -21.182  0.00  0.00    +0.000 C 
ATOM     13  C   UNL     1      36.219 -19.369 -21.633  0.00  0.00    +0.000 C 
ATOM     14  C   UNL     1      34.867 -19.432 -21.952  0.00  0.00    +0.000 C 
ENDROOT
BRANCH   5  15
ATOM     15  N   UNL     1      35.598 -24.625 -14.895  0.00  0.00    -0.299 N 
ATOM     16  H   UNL     1      34.934 -25.154 -14.395  0.00  0.00    +0.153 HD
BRANCH  15  21
ATOM     17  N   UNL     1      37.164 -23.983 -13.260  0.00  0.00    -0.106 N 
ATOM     18  N   UNL     1      39.465 -24.679 -13.274  0.00  0.00    -0.340 NA
ATOM     19  N   UNL     1      36.345 -23.217 -12.491  0.00  0.00    -0.139 NA
ATOM     20  N   UNL     1      38.443 -23.243 -11.608  0.00  0.00    -0.145 NA
ATOM     21  C   UNL     1      36.865 -24.689 -14.432  0.00  0.00    +0.138 C 
ATOM     22  C   UNL     1      37.849 -25.384 -15.024  0.00  0.00    +0.061 C 
ATOM     23  C   UNL     1      38.444 -23.984 -12.698  0.00  0.00    +0.174 C 
ATOM     24  C   UNL     1      39.188 -25.335 -14.362  0.00  0.00    +0.125 C 
ATOM     25  C   UNL     1      40.303 -26.110 -15.017  0.00  0.00    +0.068 C 
ATOM     26  C   UNL     1      37.161 -22.807 -11.527  0.00  0.00    +0.230 C 
ENDBRANCH  15  21
ENDBRANCH   5  15
TORSDOF 2
ENDMDL
MODEL 5
REMARK VINA RESULT:     -13.1      1.814      3.422
REMARK  Name = 24882195
REMARK  2 active torsions:
REMARK  status: ('A' for Active; 'I' for Inactive)
REMARK    1  A    between atoms: C_5  and  N_15
REMARK    2  A    between atoms: N_15  and  C_21
REMARK                            x       y       z     vdW  Elec       q    Type
REMARK                         _______ _______ _______ _____ _____    ______ ____
ROOT
ATOM      1  C   UNL     1      35.893 -21.443 -18.908  0.00  0.00    +0.001 C 
ATOM      2  C   UNL     1      34.572 -21.920 -18.766  0.00  0.00    +0.000 C 
ATOM      3  C   UNL     1      36.547 -22.649 -16.878  0.00  0.00    +0.000 C 
ATOM      4  C   UNL     1      35.226 -23.127 -16.735  0.00  0.00    +0.000 C 
ATOM      5  C   UNL     1      35.234 -20.248 -20.923  0.00  0.00    +0.049 C 
ATOM      6  C   UNL     1      36.863 -21.813 -17.961  0.00  0.00    +0.000 C 
ATOM      7  C   UNL     1      36.208 -20.606 -19.991  0.00  0.00    +0.015 C 
ATOM      8  C   UNL     1      34.255 -22.757 -17.682  0.00  0.00    +0.000 C 
ATOM      9  C   UNL     1      33.602 -21.550 -19.712  0.00  0.00    +0.001 C 
ATOM     10  C   UNL     1      33.931 -20.719 -20.783  0.00  0.00    +0.015 C 
ATOM     11  C   UNL     1      37.516 -23.020 -15.931  0.00  0.00    +0.000 C 
ATOM     12  C   UNL     1      34.910 -23.963 -15.652  0.00  0.00    +0.000 C 
ATOM     13  C   UNL     1      37.187 -23.850 -14.860  0.00  0.00    +0.000 C 
ATOM     14  C   UNL     1      35.886 -24.322 -14.721  0.00  0.00    +0.000 C 
ENDROOT
BRANCH   5  15
ATOM     15  N   UNL     1      35.567 -19.407 -22.005  0.00  0.00    -0.299 N 
ATOM     16  H   UNL     1      36.134 -19.812 -22.701  0.00  0.00    +0.153 HD
BRANCH  15  21
ATOM     17  N   UNL     1      34.926 -17.731 -23.528  0.00  0.00    -0.106 N 
ATOM     18  N   UNL     1      34.449 -15.463 -22.888  0.00  0.00    -0.340 NA
ATOM     19  N   UNL     1      34.947 -18.477 -24.664  0.00  0.00    -0.139 NA
ATOM     20  N   UNL     1      34.340 -16.337 -25.148  0.00  0.00    -0.145 NA
ATOM     21  C   UNL     1      35.214 -18.120 -22.213  0.00  0.00    +0.138 C 
ATOM     22  C   UNL     1      35.124 -17.198 -21.243  0.00  0.00    +0.061 C 
ATOM     23  C   UNL     1      34.550 -16.424 -23.849  0.00  0.00    +0.174 C 
ATOM     24  C   UNL     1      34.717 -15.824 -21.668  0.00  0.00    +0.125 C 
ATOM     25  C   UNL     1      34.613 -14.778 -20.588  0.00  0.00    +0.068 C 
ATOM     26  C   UNL     1      34.590 -17.595 -25.591  0.00  0.00    +0.230 C 
ENDBRANCH  15  21
ENDBRANCH   5  15
TORSDOF 2
ENDMDL
MODEL 6
REMARK VINA RESULT:     -13.1      3.570      6.411
REMARK  Name = 24882195
REMARK  2 active torsions:
REMARK  status: ('A' for Active; 'I' for Inactive)
REMARK    1  A    between atoms: C_5  and  N_15
REMARK    2  A    between atoms: N_15  and  C_21
REMARK                            x       y       z     vdW  Elec       q    Type
REMARK                         _______ _______ _______ _____ _____    ______ ____
ROOT
ATOM      1  C   UNL     1      34.469 -14.778 -23.897  0.00  0.00    +0.001 C 
ATOM      2  C   UNL     1      34.014 -15.249 -25.148  0.00  0.00    +0.000 C 
ATOM      3  C   UNL     1      35.007 -17.072 -23.227  0.00  0.00    +0.000 C 
ATOM      4  C   UNL     1      34.552 -17.545 -24.478  0.00  0.00    +0.000 C 
ATOM      5  C   UNL     1      33.931 -12.502 -24.571  0.00  0.00    +0.049 C 
ATOM      6  C   UNL     1      34.959 -15.695 -22.953  0.00  0.00    +0.000 C 
ATOM      7  C   UNL     1      34.420 -13.401 -23.623  0.00  0.00    +0.015 C 
ATOM      8  C   UNL     1      34.061 -16.627 -25.423  0.00  0.00    +0.000 C 
ATOM      9  C   UNL     1      33.524 -14.332 -26.091  0.00  0.00    +0.001 C 
ATOM     10  C   UNL     1      33.483 -12.966 -25.804  0.00  0.00    +0.015 C 
ATOM     11  C   UNL     1      35.496 -17.991 -22.284  0.00  0.00    +0.000 C 
ATOM     12  C   UNL     1      34.600 -18.921 -24.752  0.00  0.00    +0.000 C 
ATOM     13  C   UNL     1      35.537 -19.355 -22.571  0.00  0.00    +0.000 C 
ATOM     14  C   UNL     1      35.090 -19.819 -23.803  0.00  0.00    +0.000 C 
ENDROOT
BRANCH   5  15
ATOM     15  N   UNL     1      33.890 -11.122 -24.280  0.00  0.00    -0.299 N 
ATOM     16  H   UNL     1      34.432 -10.546 -24.866  0.00  0.00    +0.153 HD
BRANCH  15  21
ATOM     17  N   UNL     1      33.500  -9.136 -23.080  0.00  0.00    -0.106 N 
ATOM     18  N   UNL     1      31.893  -8.948 -21.302  0.00  0.00    -0.340 NA
ATOM     19  N   UNL     1      34.399  -8.340 -23.717  0.00  0.00    -0.139 NA
ATOM     20  N   UNL     1      33.317  -7.155 -22.101  0.00  0.00    -0.145 NA
ATOM     21  C   UNL     1      33.206 -10.487 -23.304  0.00  0.00    +0.138 C 
ATOM     22  C   UNL     1      32.268 -11.069 -22.540  0.00  0.00    +0.061 C 
ATOM     23  C   UNL     1      32.849  -8.388 -22.094  0.00  0.00    +0.174 C 
ATOM     24  C   UNL     1      31.620 -10.202 -21.510  0.00  0.00    +0.125 C 
ATOM     25  C   UNL     1      30.565 -10.843 -20.644  0.00  0.00    +0.068 C 
ATOM     26  C   UNL     1      34.243  -7.178 -23.093  0.00  0.00    +0.230 C 
ENDBRANCH  15  21
ENDBRANCH   5  15
TORSDOF 2
ENDMDL
MODEL 7
REMARK VINA RESULT:     -12.9      1.446      3.318
REMARK  Name = 24882195
REMARK  2 active torsions:
REMARK  status: ('A' for Active; 'I' for Inactive)
REMARK    1  A    between atoms: C_5  and  N_15
REMARK    2  A    between atoms: N_15  and  C_21
REMARK                            x       y       z     vdW  Elec       q    Type
REMARK                         _______ _______ _______ _____ _____    ______ ____
ROOT
ATOM      1  C   UNL     1      35.718 -20.674 -19.965  0.00  0.00    +0.001 C 
ATOM      2  C   UNL     1      34.379 -21.108 -19.858  0.00  0.00    +0.000 C 
ATOM      3  C   UNL     1      36.296 -21.965 -17.964  0.00  0.00    +0.000 C 
ATOM      4  C   UNL     1      34.956 -22.399 -17.857  0.00  0.00    +0.000 C 
ATOM      5  C   UNL     1      35.135 -19.395 -21.951  0.00  0.00    +0.049 C 
ATOM      6  C   UNL     1      36.659 -21.108 -19.016  0.00  0.00    +0.000 C 
ATOM      7  C   UNL     1      36.080 -19.817 -21.017  0.00  0.00    +0.015 C 
ATOM      8  C   UNL     1      34.015 -21.965 -18.806  0.00  0.00    +0.000 C 
ATOM      9  C   UNL     1      33.438 -20.674 -20.807  0.00  0.00    +0.001 C 
ATOM     10  C   UNL     1      33.814 -19.823 -21.847  0.00  0.00    +0.015 C 
ATOM     11  C   UNL     1      37.236 -22.399 -17.015  0.00  0.00    +0.000 C 
ATOM     12  C   UNL     1      34.593 -23.256 -16.805  0.00  0.00    +0.000 C 
ATOM     13  C   UNL     1      36.860 -23.250 -15.976  0.00  0.00    +0.000 C 
ATOM     14  C   UNL     1      35.540 -23.678 -15.871  0.00  0.00    +0.000 C 
ENDROOT
BRANCH   5  15
ATOM     15  N   UNL     1      35.516 -18.534 -23.002  0.00  0.00    -0.299 N 
ATOM     16  H   UNL     1      36.307 -18.813 -23.517  0.00  0.00    +0.153 HD
BRANCH  15  21
ATOM     17  N   UNL     1      34.745 -16.388 -22.424  0.00  0.00    -0.106 N 
ATOM     18  N   UNL     1      33.746 -14.864 -23.993  0.00  0.00    -0.340 NA
ATOM     19  N   UNL     1      35.058 -16.414 -21.102  0.00  0.00    -0.139 NA
ATOM     20  N   UNL     1      34.098 -14.420 -21.634  0.00  0.00    -0.145 NA
ATOM     21  C   UNL     1      34.939 -17.378 -23.395  0.00  0.00    +0.138 C 
ATOM     22  C   UNL     1      34.545 -17.122 -24.652  0.00  0.00    +0.061 C 
ATOM     23  C   UNL     1      34.158 -15.155 -22.727  0.00  0.00    +0.174 C 
ATOM     24  C   UNL     1      33.927 -15.783 -24.895  0.00  0.00    +0.125 C 
ATOM     25  C   UNL     1      33.477 -15.483 -26.302  0.00  0.00    +0.068 C 
ATOM     26  C   UNL     1      34.651 -15.219 -20.688  0.00  0.00    +0.230 C 
ENDBRANCH  15  21
ENDBRANCH   5  15
TORSDOF 2
ENDMDL
MODEL 8
REMARK VINA RESULT:     -12.9      1.715      3.090
REMARK  Name = 24882195
REMARK  2 active torsions:
REMARK  status: ('A' for Active; 'I' for Inactive)
REMARK    1  A    between atoms: C_5  and  N_15
REMARK    2  A    between atoms: N_15  and  C_21
REMARK                            x       y       z     vdW  Elec       q    Type
REMARK                         _______ _______ _______ _____ _____    ______ ____
ROOT
ATOM      1  C   UNL     1      33.990 -21.660 -19.101  0.00  0.00    +0.001 C 
ATOM      2  C   UNL     1      35.193 -22.014 -18.453  0.00  0.00    +0.000 C 
ATOM      3  C   UNL     1      32.712 -22.813 -17.358  0.00  0.00    +0.000 C 
ATOM      4  C   UNL     1      33.915 -23.168 -16.709  0.00  0.00    +0.000 C 
ATOM      5  C   UNL     1      35.269 -20.517 -20.828  0.00  0.00    +0.049 C 
ATOM      6  C   UNL     1      32.765 -22.065 -18.545  0.00  0.00    +0.000 C 
ATOM      7  C   UNL     1      34.045 -20.912 -20.288  0.00  0.00    +0.015 C 
ATOM      8  C   UNL     1      35.141 -22.764 -17.265  0.00  0.00    +0.000 C 
ATOM      9  C   UNL     1      36.418 -21.610 -19.009  0.00  0.00    +0.001 C 
ATOM     10  C   UNL     1      36.455 -20.866 -20.189  0.00  0.00    +0.015 C 
ATOM     11  C   UNL     1      31.488 -23.219 -16.802  0.00  0.00    +0.000 C 
ATOM     12  C   UNL     1      33.861 -23.917 -15.522  0.00  0.00    +0.000 C 
ATOM     13  C   UNL     1      31.451 -23.962 -15.622  0.00  0.00    +0.000 C 
ATOM     14  C   UNL     1      32.636 -24.310 -14.983  0.00  0.00    +0.000 C 
ENDROOT
BRANCH   5  15
ATOM     15  N   UNL     1      35.305 -19.765 -22.021  0.00  0.00    -0.299 N 
ATOM     16  H   UNL     1      35.528 -20.269 -22.837  0.00  0.00    +0.153 HD
BRANCH  15  21
ATOM     17  N   UNL     1      34.866 -17.988 -23.499  0.00  0.00    -0.106 N 
ATOM     18  N   UNL     1      34.575 -15.708 -22.791  0.00  0.00    -0.340 NA
ATOM     19  N   UNL     1      34.857 -18.694 -24.660  0.00  0.00    -0.139 NA
ATOM     20  N   UNL     1      34.460 -16.492 -25.084  0.00  0.00    -0.145 NA
ATOM     21  C   UNL     1      35.076 -18.445 -22.192  0.00  0.00    +0.138 C 
ATOM     22  C   UNL     1      35.038 -17.551 -21.192  0.00  0.00    +0.061 C 
ATOM     23  C   UNL     1      34.620 -16.641 -23.784  0.00  0.00    +0.174 C 
ATOM     24  C   UNL     1      34.770 -16.133 -21.578  0.00  0.00    +0.125 C 
ATOM     25  C   UNL     1      34.726 -15.118 -20.464  0.00  0.00    +0.068 C 
ATOM     26  C   UNL     1      34.610 -17.752 -25.565  0.00  0.00    +0.230 C 
ENDBRANCH  15  21
ENDBRANCH   5  15
TORSDOF 2
ENDMDL
MODEL 9
REMARK VINA RESULT:     -12.9      3.872      6.938
REMARK  Name = 24882195
REMARK  2 active torsions:
REMARK  status: ('A' for Active; 'I' for Inactive)
REMARK    1  A    between atoms: C_5  and  N_15
REMARK    2  A    between atoms: N_15  and  C_21
REMARK                            x       y       z     vdW  Elec       q    Type
REMARK                         _______ _______ _______ _____ _____    ______ ____
ROOT
ATOM      1  C   UNL     1      33.675 -14.307 -22.628  0.00  0.00    +0.001 C 
ATOM      2  C   UNL     1      33.411 -14.715 -21.303  0.00  0.00    +0.000 C 
ATOM      3  C   UNL     1      34.852 -16.415 -23.043  0.00  0.00    +0.000 C 
ATOM      4  C   UNL     1      34.589 -16.824 -21.717  0.00  0.00    +0.000 C 
ATOM      5  C   UNL     1      32.503 -12.216 -22.207  0.00  0.00    +0.049 C 
ATOM      6  C   UNL     1      34.392 -15.163 -23.481  0.00  0.00    +0.000 C 
ATOM      7  C   UNL     1      33.215 -13.054 -23.065  0.00  0.00    +0.015 C 
ATOM      8  C   UNL     1      33.871 -15.968 -20.864  0.00  0.00    +0.000 C 
ATOM      9  C   UNL     1      32.694 -13.860 -20.450  0.00  0.00    +0.001 C 
ATOM     10  C   UNL     1      32.243 -12.618 -20.900  0.00  0.00    +0.015 C 
ATOM     11  C   UNL     1      35.570 -17.271 -23.894  0.00  0.00    +0.000 C 
ATOM     12  C   UNL     1      35.049 -18.077 -21.279  0.00  0.00    +0.000 C 
ATOM     13  C   UNL     1      36.020 -18.512 -23.445  0.00  0.00    +0.000 C 
ATOM     14  C   UNL     1      35.760 -18.914 -22.139  0.00  0.00    +0.000 C 
ENDROOT
BRANCH   5  15
ATOM     15  N   UNL     1      32.048 -10.961 -22.662  0.00  0.00    -0.299 N 
ATOM     16  H   UNL     1      31.182 -10.965 -23.131  0.00  0.00    +0.153 HD
BRANCH  15  21
ATOM     17  N   UNL     1      32.402  -9.026 -21.371  0.00  0.00    -0.106 N 
ATOM     18  N   UNL     1      33.790  -7.192 -22.073  0.00  0.00    -0.340 NA
ATOM     19  N   UNL     1      31.635  -9.359 -20.300  0.00  0.00    -0.139 NA
ATOM     20  N   UNL     1      32.579  -7.313 -19.975  0.00  0.00    -0.145 NA
ATOM     21  C   UNL     1      32.644  -9.754 -22.543  0.00  0.00    +0.138 C 
ATOM     22  C   UNL     1      33.447  -9.215 -23.473  0.00  0.00    +0.061 C 
ATOM     23  C   UNL     1      32.971  -7.768 -21.148  0.00  0.00    +0.174 C 
ATOM     24  C   UNL     1      34.014  -7.869 -23.161  0.00  0.00    +0.125 C 
ATOM     25  C   UNL     1      34.917  -7.251 -24.197  0.00  0.00    +0.068 C 
ATOM     26  C   UNL     1      31.780  -8.304 -19.506  0.00  0.00    +0.230 C 
ENDBRANCH  15  21
ENDBRANCH   5  15
TORSDOF 2
ENDMDL
