MODEL 1
REMARK VINA RESULT:     -14.7      0.000      0.000
REMARK  Name = 10138993
REMARK  4 active torsions:
REMARK  status: ('A' for Active; 'I' for Inactive)
REMARK    1  A    between atoms: C_5  and  N_18
REMARK    2  A    between atoms: C_12  and  C_22
REMARK    3  A    between atoms: C_22  and  C_26
REMARK    4  A    between atoms: C_23  and  N_29
REMARK                            x       y       z     vdW  Elec       q    Type
REMARK                         _______ _______ _______ _____ _____    ______ ____
ROOT
ATOM      1  O   UNL     1      33.375 -21.131 -20.665  0.00  0.00    -0.274 OA
ATOM      2  N   UNL     1      32.335 -23.277 -17.204  0.00  0.00    -0.275 N 
ATOM      3  N   UNL     1      34.855 -21.703 -18.934  0.00  0.00    -0.268 N 
ATOM      4  N   UNL     1      32.739 -22.588 -18.283  0.00  0.00    -0.157 NA
ATOM      5  C   UNL     1      35.691 -23.693 -14.889  0.00  0.00    +0.069 C 
ATOM      6  C   UNL     1      35.680 -23.025 -16.120  0.00  0.00    +0.020 C 
ATOM      7  C   UNL     1      34.527 -24.265 -14.372  0.00  0.00    +0.018 C 
ATOM      8  C   UNL     1      34.470 -22.944 -16.829  0.00  0.00    +0.052 A 
ATOM      9  C   UNL     1      33.326 -23.524 -16.292  0.00  0.00    +0.077 A 
ATOM     10  C   UNL     1      33.315 -24.194 -15.067  0.00  0.00    +0.020 C 
ATOM     11  C   UNL     1      34.028 -22.396 -18.041  0.00  0.00    +0.155 A 
ATOM     12  C   UNL     1      34.487 -21.133 -20.150  0.00  0.00    +0.232 C 
ATOM     13  H   UNL     1      31.407 -23.580 -17.080  0.00  0.00    +0.189 HD
ATOM     14  H   UNL     1      35.799 -21.608 -18.673  0.00  0.00    +0.156 HD
ENDROOT
BRANCH   5  18
ATOM     15  S   UNL     1      38.190 -24.820 -14.755  0.00  0.00    +0.057 S 
ATOM     16  O   UNL     1      37.629 -26.052 -15.274  0.00  0.00    -0.154 OA
ATOM     17  O   UNL     1      39.134 -24.025 -15.511  0.00  0.00    -0.154 OA
ATOM     18  N   UNL     1      36.931 -23.788 -14.139  0.00  0.00    -0.194 N 
ATOM     19  C   UNL     1      38.877 -25.165 -13.142  0.00  0.00    +0.174 C 
ATOM     20  C   UNL     1      38.370 -24.048 -12.246  0.00  0.00    +0.051 C 
ATOM     21  C   UNL     1      36.917 -23.810 -12.649  0.00  0.00    +0.117 C 
ENDBRANCH   5  18
BRANCH  12  22
ATOM     22  C   UNL     1      35.686 -20.466 -20.821  0.00  0.00    +0.112 C 
BRANCH  22  26
ATOM     23  C   UNL     1      34.656 -17.066 -23.257  0.00  0.00    +0.048 C 
ATOM     24  C   UNL     1      34.651 -18.368 -23.793  0.00  0.00    +0.014 C 
ATOM     25  C   UNL     1      35.006 -16.906 -21.903  0.00  0.00    +0.014 C 
ATOM     26  C   UNL     1      35.329 -19.288 -21.664  0.00  0.00    -0.013 C 
ATOM     27  C   UNL     1      34.985 -19.469 -23.004  0.00  0.00    -0.003 C 
ATOM     28  C   UNL     1      35.340 -18.007 -21.114  0.00  0.00    -0.003 C 
BRANCH  23  29
ATOM     29  N   UNL     1      34.320 -15.960 -24.050  0.00  0.00    -0.307 N 
ATOM     30  C   UNL     1      33.752 -13.706 -25.760  0.00  0.00    +0.004 C 
ATOM     31  C   UNL     1      33.746 -13.573 -24.242  0.00  0.00    +0.021 C 
ATOM     32  C   UNL     1      33.373 -15.125 -26.165  0.00  0.00    +0.021 C 
ATOM     33  C   UNL     1      34.653 -14.610 -23.581  0.00  0.00    +0.091 C 
ATOM     34  C   UNL     1      34.285 -16.157 -25.506  0.00  0.00    +0.091 C 
ENDBRANCH  23  29
ENDBRANCH  22  26
ENDBRANCH  12  22
TORSDOF 4
ENDMDL
MODEL 2
REMARK VINA RESULT:     -14.0      1.281      1.468
REMARK  Name = 10138993
REMARK  4 active torsions:
REMARK  status: ('A' for Active; 'I' for Inactive)
REMARK    1  A    between atoms: C_5  and  N_18
REMARK    2  A    between atoms: C_12  and  C_22
REMARK    3  A    between atoms: C_22  and  C_26
REMARK    4  A    between atoms: C_23  and  N_29
REMARK                            x       y       z     vdW  Elec       q    Type
REMARK                         _______ _______ _______ _____ _____    ______ ____
ROOT
ATOM      1  O   UNL     1      32.978 -21.020 -20.291  0.00  0.00    -0.274 OA
ATOM      2  N   UNL     1      31.865 -23.196 -16.871  0.00  0.00    -0.275 N 
ATOM      3  N   UNL     1      34.472 -21.972 -18.748  0.00  0.00    -0.268 N 
ATOM      4  N   UNL     1      32.294 -22.512 -17.944  0.00  0.00    -0.157 NA
ATOM      5  C   UNL     1      35.274 -24.369 -14.924  0.00  0.00    +0.069 C 
ATOM      6  C   UNL     1      35.280 -23.622 -16.108  0.00  0.00    +0.020 C 
ATOM      7  C   UNL     1      34.074 -24.762 -14.328  0.00  0.00    +0.018 C 
ATOM      8  C   UNL     1      34.048 -23.275 -16.689  0.00  0.00    +0.052 A 
ATOM      9  C   UNL     1      32.868 -23.681 -16.076  0.00  0.00    +0.077 A 
ATOM     10  C   UNL     1      32.840 -24.426 -14.895  0.00  0.00    +0.020 C 
ATOM     11  C   UNL     1      33.612 -22.570 -17.819  0.00  0.00    +0.155 A 
ATOM     12  C   UNL     1      34.112 -21.258 -19.888  0.00  0.00    +0.232 C 
ATOM     13  H   UNL     1      30.911 -23.337 -16.673  0.00  0.00    +0.189 HD
ATOM     14  H   UNL     1      35.437 -22.066 -18.577  0.00  0.00    +0.156 HD
ENDROOT
BRANCH   5  18
ATOM     15  S   UNL     1      36.702 -24.534 -12.586  0.00  0.00    +0.057 S 
ATOM     16  O   UNL     1      36.090 -23.291 -12.160  0.00  0.00    -0.154 OA
ATOM     17  O   UNL     1      36.429 -25.793 -11.926  0.00  0.00    -0.154 OA
ATOM     18  N   UNL     1      36.536 -24.738 -14.306  0.00  0.00    -0.194 N 
ATOM     19  C   UNL     1      38.470 -24.282 -12.654  0.00  0.00    +0.174 C 
ATOM     20  C   UNL     1      38.904 -24.864 -13.989  0.00  0.00    +0.051 C 
ATOM     21  C   UNL     1      37.828 -24.461 -14.995  0.00  0.00    +0.117 C 
ENDBRANCH   5  18
BRANCH  12  22
ATOM     22  C   UNL     1      35.350 -20.767 -20.635  0.00  0.00    +0.112 C 
BRANCH  22  26
ATOM     23  C   UNL     1      34.628 -17.355 -23.163  0.00  0.00    +0.048 C 
ATOM     24  C   UNL     1      34.592 -18.662 -23.684  0.00  0.00    +0.014 C 
ATOM     25  C   UNL     1      34.905 -17.194 -21.792  0.00  0.00    +0.014 C 
ATOM     26  C   UNL     1      35.099 -19.585 -21.510  0.00  0.00    -0.013 C 
ATOM     27  C   UNL     1      34.826 -19.768 -22.866  0.00  0.00    -0.003 C 
ATOM     28  C   UNL     1      35.140 -18.299 -20.973  0.00  0.00    -0.003 C 
BRANCH  23  29
ATOM     29  N   UNL     1      34.392 -16.245 -23.985  0.00  0.00    -0.307 N 
ATOM     30  C   UNL     1      34.026 -13.997 -25.758  0.00  0.00    +0.004 C 
ATOM     31  C   UNL     1      34.066 -13.818 -24.245  0.00  0.00    +0.021 C 
ATOM     32  C   UNL     1      33.491 -15.381 -26.109  0.00  0.00    +0.021 C 
ATOM     33  C   UNL     1      34.875 -14.924 -23.567  0.00  0.00    +0.091 C 
ATOM     34  C   UNL     1      34.305 -16.482 -25.433  0.00  0.00    +0.091 C 
ENDBRANCH  23  29
ENDBRANCH  22  26
ENDBRANCH  12  22
TORSDOF 4
ENDMDL
MODEL 3
REMARK VINA RESULT:     -12.1      3.067      5.009
REMARK  Name = 10138993
REMARK  4 active torsions:
REMARK  status: ('A' for Active; 'I' for Inactive)
REMARK    1  A    between atoms: C_5  and  N_18
REMARK    2  A    between atoms: C_12  and  C_22
REMARK    3  A    between atoms: C_22  and  C_26
REMARK    4  A    between atoms: C_23  and  N_29
REMARK                            x       y       z     vdW  Elec       q    Type
REMARK                         _______ _______ _______ _____ _____    ______ ____
ROOT
ATOM      1  O   UNL     1      37.546 -21.731 -18.255  0.00  0.00    -0.274 OA
ATOM      2  N   UNL     1      35.727 -22.809 -14.623  0.00  0.00    -0.275 N 
ATOM      3  N   UNL     1      35.323 -22.452 -18.018  0.00  0.00    -0.268 N 
ATOM      4  N   UNL     1      36.242 -22.480 -15.819  0.00  0.00    -0.157 NA
ATOM      5  C   UNL     1      31.853 -23.901 -15.397  0.00  0.00    +0.069 C 
ATOM      6  C   UNL     1      32.751 -23.483 -16.387  0.00  0.00    +0.020 C 
ATOM      7  C   UNL     1      32.244 -23.971 -14.057  0.00  0.00    +0.018 C 
ATOM      8  C   UNL     1      34.056 -23.132 -16.006  0.00  0.00    +0.052 A 
ATOM      9  C   UNL     1      34.418 -23.209 -14.666  0.00  0.00    +0.077 A 
ATOM     10  C   UNL     1      33.540 -23.624 -13.662  0.00  0.00    +0.020 C 
ATOM     11  C   UNL     1      35.221 -22.680 -16.640  0.00  0.00    +0.155 A 
ATOM     12  C   UNL     1      36.443 -22.006 -18.715  0.00  0.00    +0.232 C 
ATOM     13  H   UNL     1      36.245 -22.765 -13.787  0.00  0.00    +0.189 HD
ATOM     14  H   UNL     1      34.516 -22.626 -18.553  0.00  0.00    +0.156 HD
ENDROOT
BRANCH   5  18
ATOM     15  S   UNL     1      29.351 -22.997 -16.069  0.00  0.00    +0.057 S 
ATOM     16  O   UNL     1      29.509 -21.931 -15.100  0.00  0.00    -0.154 OA
ATOM     17  O   UNL     1      29.282 -22.740 -17.492  0.00  0.00    -0.154 OA
ATOM     18  N   UNL     1      30.499 -24.270 -15.769  0.00  0.00    -0.194 N 
ATOM     19  C   UNL     1      27.938 -23.977 -15.584  0.00  0.00    +0.174 C 
ATOM     20  C   UNL     1      28.403 -25.420 -15.679  0.00  0.00    +0.051 C 
ATOM     21  C   UNL     1      29.829 -25.441 -15.134  0.00  0.00    +0.117 C 
ENDBRANCH   5  18
BRANCH  12  22
ATOM     22  C   UNL     1      36.143 -21.889 -20.208  0.00  0.00    +0.112 C 
BRANCH  22  26
ATOM     23  C   UNL     1      35.149 -17.896 -21.481  0.00  0.00    +0.048 C 
ATOM     24  C   UNL     1      36.489 -18.279 -21.282  0.00  0.00    +0.014 C 
ATOM     25  C   UNL     1      34.143 -18.854 -21.253  0.00  0.00    +0.014 C 
ATOM     26  C   UNL     1      35.798 -20.506 -20.649  0.00  0.00    -0.013 C 
ATOM     27  C   UNL     1      36.811 -19.572 -20.869  0.00  0.00    -0.003 C 
ATOM     28  C   UNL     1      34.465 -20.147 -20.840  0.00  0.00    -0.003 C 
BRANCH  23  29
ATOM     29  N   UNL     1      34.826 -16.597 -21.896  0.00  0.00    -0.307 N 
ATOM     30  C   UNL     1      34.304 -13.896 -22.770  0.00  0.00    +0.004 C 
ATOM     31  C   UNL     1      33.723 -14.437 -21.469  0.00  0.00    +0.021 C 
ATOM     32  C   UNL     1      34.500 -15.030 -23.769  0.00  0.00    +0.021 C 
ATOM     33  C   UNL     1      34.585 -15.558 -20.889  0.00  0.00    +0.091 C 
ATOM     34  C   UNL     1      35.365 -16.145 -23.186  0.00  0.00    +0.091 C 
ENDBRANCH  23  29
ENDBRANCH  22  26
ENDBRANCH  12  22
TORSDOF 4
ENDMDL
MODEL 4
REMARK VINA RESULT:     -11.9      8.184     14.778
REMARK  Name = 10138993
REMARK  4 active torsions:
REMARK  status: ('A' for Active; 'I' for Inactive)
REMARK    1  A    between atoms: C_5  and  N_18
REMARK    2  A    between atoms: C_12  and  C_22
REMARK    3  A    between atoms: C_22  and  C_26
REMARK    4  A    between atoms: C_23  and  N_29
REMARK                            x       y       z     vdW  Elec       q    Type
REMARK                         _______ _______ _______ _____ _____    ______ ____
ROOT
ATOM      1  O   UNL     1      31.955 -12.671 -20.695  0.00  0.00    -0.274 OA
ATOM      2  N   UNL     1      31.602  -8.648 -19.531  0.00  0.00    -0.275 N 
ATOM      3  N   UNL     1      32.461 -10.822 -22.052  0.00  0.00    -0.268 N 
ATOM      4  N   UNL     1      31.740  -9.909 -19.971  0.00  0.00    -0.157 NA
ATOM      5  C   UNL     1      32.745  -6.290 -22.682  0.00  0.00    +0.069 C 
ATOM      6  C   UNL     1      32.740  -7.690 -22.726  0.00  0.00    +0.020 C 
ATOM      7  C   UNL     1      32.347  -5.607 -21.530  0.00  0.00    +0.018 C 
ATOM      8  C   UNL     1      32.328  -8.397 -21.585  0.00  0.00    +0.052 A 
ATOM      9  C   UNL     1      31.940  -7.692 -20.451  0.00  0.00    +0.077 A 
ATOM     10  C   UNL     1      31.936  -6.297 -20.385  0.00  0.00    +0.020 C 
ATOM     11  C   UNL     1      32.178  -9.739 -21.210  0.00  0.00    +0.155 A 
ATOM     12  C   UNL     1      32.335 -12.175 -21.750  0.00  0.00    +0.232 C 
ATOM     13  H   UNL     1      31.288  -8.429 -18.624  0.00  0.00    +0.189 HD
ATOM     14  H   UNL     1      32.783 -10.603 -22.956  0.00  0.00    +0.156 HD
ENDROOT
BRANCH   5  18
ATOM     15  S   UNL     1      32.037  -4.426 -24.567  0.00  0.00    +0.057 S 
ATOM     16  O   UNL     1      30.704  -4.995 -24.586  0.00  0.00    -0.154 OA
ATOM     17  O   UNL     1      32.298  -3.092 -24.068  0.00  0.00    -0.154 OA
ATOM     18  N   UNL     1      33.166  -5.539 -23.852  0.00  0.00    -0.194 N 
ATOM     19  C   UNL     1      32.724  -4.579 -26.209  0.00  0.00    +0.174 C 
ATOM     20  C   UNL     1      34.124  -5.131 -26.005  0.00  0.00    +0.051 C 
ATOM     21  C   UNL     1      34.009  -6.180 -24.901  0.00  0.00    +0.117 C 
ENDBRANCH   5  18
BRANCH  12  22
ATOM     22  C   UNL     1      32.742 -13.038 -22.943  0.00  0.00    +0.112 C 
BRANCH  22  26
ATOM     23  C   UNL     1      34.655 -16.739 -21.850  0.00  0.00    +0.048 C 
ATOM     24  C   UNL     1      34.118 -15.885 -20.868  0.00  0.00    +0.014 C 
ATOM     25  C   UNL     1      34.549 -16.350 -23.199  0.00  0.00    +0.014 C 
ATOM     26  C   UNL     1      33.405 -14.320 -22.565  0.00  0.00    -0.013 C 
ATOM     27  C   UNL     1      33.498 -14.686 -21.222  0.00  0.00    -0.003 C 
ATOM     28  C   UNL     1      33.930 -15.151 -23.553  0.00  0.00    -0.003 C 
BRANCH  23  29
ATOM     29  N   UNL     1      35.277 -17.943 -21.494  0.00  0.00    -0.307 N 
ATOM     30  C   UNL     1      36.606 -20.435 -20.902  0.00  0.00    +0.004 C 
ATOM     31  C   UNL     1      35.138 -20.217 -20.559  0.00  0.00    +0.021 C 
ATOM     32  C   UNL     1      37.356 -19.109 -20.871  0.00  0.00    +0.021 C 
ATOM     33  C   UNL     1      34.491 -19.183 -21.480  0.00  0.00    +0.091 C 
ATOM     34  C   UNL     1      36.709 -18.081 -21.796  0.00  0.00    +0.091 C 
ENDBRANCH  23  29
ENDBRANCH  22  26
ENDBRANCH  12  22
TORSDOF 4
ENDMDL
