MODEL 1
REMARK VINA RESULT:     -12.8      0.000      0.000
REMARK  Name = 10250490
REMARK  6 active torsions:
REMARK  status: ('A' for Active; 'I' for Inactive)
REMARK    1  A    between atoms: N_2  and  C_18
REMARK    2  A    between atoms: C_3  and  C_6
REMARK    3  A    between atoms: C_5  and  N_12
REMARK    4  A    between atoms: C_18  and  C_19
REMARK    5  A    between atoms: C_19  and  N_21
REMARK    6  A    between atoms: C_22  and  C_26
REMARK                            x       y       z     vdW  Elec       q    Type
REMARK                         _______ _______ _______ _____ _____    ______ ____
ROOT
ATOM      1  O   UNL     1      35.673 -22.811 -17.846  0.00  0.00    -0.270 OA
ATOM      2  N   UNL     1      33.360 -22.862 -17.992  0.00  0.00    -0.299 N 
ATOM      3  C   UNL     1      34.627 -22.423 -18.393  0.00  0.00    +0.246 C 
ATOM      4  H   UNL     1      32.572 -22.514 -18.470  0.00  0.00    +0.150 HD
ENDROOT
BRANCH   3   6
ATOM      5  C   UNL     1      34.776 -19.611 -21.570  0.00  0.00    +0.058 C 
ATOM      6  C   UNL     1      34.677 -21.459 -19.481  0.00  0.00    +0.053 C 
ATOM      7  C   UNL     1      33.544 -20.044 -21.077  0.00  0.00    +0.015 C 
ATOM      8  C   UNL     1      35.959 -20.102 -21.016  0.00  0.00    +0.015 C 
ATOM      9  C   UNL     1      33.495 -20.968 -20.033  0.00  0.00    +0.006 C 
ATOM     10  C   UNL     1      35.909 -21.027 -19.972  0.00  0.00    +0.006 C 
BRANCH   5  12
ATOM     11  O   UNL     1      35.181 -16.764 -21.267  0.00  0.00    -0.269 OA
ATOM     12  N   UNL     1      34.826 -18.652 -22.656  0.00  0.00    -0.233 N 
ATOM     13  C   UNL     1      35.072 -17.282 -22.378  0.00  0.00    +0.257 C 
ATOM     14  C   UNL     1      34.612 -19.062 -23.973  0.00  0.00    +0.072 C 
ATOM     15  C   UNL     1      35.156 -16.369 -23.560  0.00  0.00    +0.059 C 
ATOM     16  C   UNL     1      34.658 -18.219 -25.011  0.00  0.00    +0.017 C 
ATOM     17  C   UNL     1      34.945 -16.833 -24.795  0.00  0.00    +0.006 C 
ENDBRANCH   5  12
ENDBRANCH   3   6
BRANCH   2  18
ATOM     18  C   UNL     1      33.144 -23.799 -16.913  0.00  0.00    +0.111 C 
BRANCH  18  19
ATOM     19  C   UNL     1      33.555 -23.228 -15.566  0.00  0.00    +0.111 C 
BRANCH  19  21
ATOM     20  O   UNL     1      34.081 -24.365 -12.983  0.00  0.00    -0.270 OA
ATOM     21  N   UNL     1      34.803 -23.775 -15.106  0.00  0.00    -0.299 N 
ATOM     22  C   UNL     1      34.965 -24.307 -13.833  0.00  0.00    +0.252 C 
ATOM     23  H   UNL     1      35.574 -23.773 -15.720  0.00  0.00    +0.150 HD
BRANCH  22  26
ATOM     24 CL   UNL     1      40.284 -25.576 -14.123  0.00  0.00    -0.075 Cl
ATOM     25  S   UNL     1      37.527 -24.614 -14.665  0.00  0.00    -0.071 S 
ATOM     26  C   UNL     1      36.324 -24.809 -13.502  0.00  0.00    +0.084 C 
ATOM     27  C   UNL     1      36.705 -25.410 -12.364  0.00  0.00    +0.012 C 
ATOM     28  C   UNL     1      38.089 -25.746 -12.428  0.00  0.00    +0.019 C 
ATOM     29  C   UNL     1      38.658 -25.370 -13.624  0.00  0.00    +0.087 C 
ENDBRANCH  22  26
ENDBRANCH  19  21
ENDBRANCH  18  19
ENDBRANCH   2  18
TORSDOF 6
ENDMDL
MODEL 2
REMARK VINA RESULT:     -12.6      3.304      4.282
REMARK  Name = 10250490
REMARK  6 active torsions:
REMARK  status: ('A' for Active; 'I' for Inactive)
REMARK    1  A    between atoms: N_2  and  C_18
REMARK    2  A    between atoms: C_3  and  C_6
REMARK    3  A    between atoms: C_5  and  N_12
REMARK    4  A    between atoms: C_18  and  C_19
REMARK    5  A    between atoms: C_19  and  N_21
REMARK    6  A    between atoms: C_22  and  C_26
REMARK                            x       y       z     vdW  Elec       q    Type
REMARK                         _______ _______ _______ _____ _____    ______ ____
ROOT
ATOM      1  O   UNL     1      34.099 -23.532 -18.305  0.00  0.00    -0.270 OA
ATOM      2  N   UNL     1      35.868 -22.430 -17.289  0.00  0.00    -0.299 N 
ATOM      3  C   UNL     1      34.909 -22.589 -18.296  0.00  0.00    +0.246 C 
ATOM      4  H   UNL     1      36.479 -21.659 -17.343  0.00  0.00    +0.150 HD
ENDROOT
BRANCH   3   6
ATOM      5  C   UNL     1      34.903 -19.715 -21.420  0.00  0.00    +0.058 C 
ATOM      6  C   UNL     1      34.908 -21.604 -19.367  0.00  0.00    +0.053 C 
ATOM      7  C   UNL     1      36.111 -20.181 -20.903  0.00  0.00    +0.015 C 
ATOM      8  C   UNL     1      33.696 -20.194 -20.910  0.00  0.00    +0.015 C 
ATOM      9  C   UNL     1      36.114 -21.126 -19.877  0.00  0.00    +0.006 C 
ATOM     10  C   UNL     1      33.698 -21.138 -19.883  0.00  0.00    +0.006 C 
BRANCH   5  12
ATOM     11  O   UNL     1      35.201 -16.860 -21.062  0.00  0.00    -0.269 OA
ATOM     12  N   UNL     1      34.901 -18.732 -22.486  0.00  0.00    -0.233 N 
ATOM     13  C   UNL     1      35.098 -17.360 -22.182  0.00  0.00    +0.257 C 
ATOM     14  C   UNL     1      34.685 -19.122 -23.809  0.00  0.00    +0.072 C 
ATOM     15  C   UNL     1      35.129 -16.419 -23.345  0.00  0.00    +0.059 C 
ATOM     16  C   UNL     1      34.684 -18.257 -24.829  0.00  0.00    +0.017 C 
ATOM     17  C   UNL     1      34.920 -16.865 -24.586  0.00  0.00    +0.006 C 
ENDBRANCH   5  12
ENDBRANCH   3   6
BRANCH   2  18
ATOM     18  C   UNL     1      36.012 -23.336 -16.172  0.00  0.00    +0.111 C 
BRANCH  18  19
ATOM     19  C   UNL     1      35.092 -22.975 -15.018  0.00  0.00    +0.111 C 
BRANCH  19  21
ATOM     20  O   UNL     1      33.267 -24.232 -13.194  0.00  0.00    -0.270 OA
ATOM     21  N   UNL     1      33.726 -23.336 -15.283  0.00  0.00    -0.299 N 
ATOM     22  C   UNL     1      32.914 -23.944 -14.335  0.00  0.00    +0.252 C 
ATOM     23  H   UNL     1      33.352 -23.144 -16.174  0.00  0.00    +0.150 HD
BRANCH  22  26
ATOM     24 CL   UNL     1      28.145 -23.968 -17.027  0.00  0.00    -0.075 Cl
ATOM     25  S   UNL     1      30.892 -23.396 -16.057  0.00  0.00    -0.071 S 
ATOM     26  C   UNL     1      31.534 -24.278 -14.773  0.00  0.00    +0.084 C 
ATOM     27  C   UNL     1      30.729 -25.217 -14.252  0.00  0.00    +0.012 C 
ATOM     28  C   UNL     1      29.483 -25.233 -14.945  0.00  0.00    +0.019 C 
ATOM     29  C   UNL     1      29.438 -24.293 -15.950  0.00  0.00    +0.087 C 
ENDBRANCH  22  26
ENDBRANCH  19  21
ENDBRANCH  18  19
ENDBRANCH   2  18
TORSDOF 6
ENDMDL
MODEL 3
REMARK VINA RESULT:     -12.3      6.628     11.667
REMARK  Name = 10250490
REMARK  6 active torsions:
REMARK  status: ('A' for Active; 'I' for Inactive)
REMARK    1  A    between atoms: N_2  and  C_18
REMARK    2  A    between atoms: C_3  and  C_6
REMARK    3  A    between atoms: C_5  and  N_12
REMARK    4  A    between atoms: C_18  and  C_19
REMARK    5  A    between atoms: C_19  and  N_21
REMARK    6  A    between atoms: C_22  and  C_26
REMARK                            x       y       z     vdW  Elec       q    Type
REMARK                         _______ _______ _______ _____ _____    ______ ____
ROOT
ATOM      1  O   UNL     1      35.511 -16.390 -26.045  0.00  0.00    -0.270 OA
ATOM      2  N   UNL     1      33.433 -15.725 -25.263  0.00  0.00    -0.299 N 
ATOM      3  C   UNL     1      34.604 -16.489 -25.201  0.00  0.00    +0.246 C 
ATOM      4  H   UNL     1      32.755 -15.852 -24.561  0.00  0.00    +0.150 HD
ENDROOT
BRANCH   3   6
ATOM      5  C   UNL     1      34.929 -19.264 -22.006  0.00  0.00    +0.058 C 
ATOM      6  C   UNL     1      34.715 -17.439 -24.106  0.00  0.00    +0.053 C 
ATOM      7  C   UNL     1      35.045 -17.896 -21.757  0.00  0.00    +0.015 C 
ATOM      8  C   UNL     1      34.705 -19.719 -23.306  0.00  0.00    +0.015 C 
ATOM      9  C   UNL     1      34.938 -16.984 -22.807  0.00  0.00    +0.006 C 
ATOM     10  C   UNL     1      34.599 -18.807 -24.356  0.00  0.00    +0.006 C 
BRANCH   5  12
ATOM     11  O   UNL     1      32.707 -20.520 -20.646  0.00  0.00    -0.269 OA
ATOM     12  N   UNL     1      35.042 -20.211 -20.914  0.00  0.00    -0.233 N 
ATOM     13  C   UNL     1      33.873 -20.790 -20.356  0.00  0.00    +0.257 C 
ATOM     14  C   UNL     1      36.294 -20.544 -20.392  0.00  0.00    +0.072 C 
ATOM     15  C   UNL     1      34.081 -21.793 -19.266  0.00  0.00    +0.059 C 
ATOM     16  C   UNL     1      36.453 -21.420 -19.393  0.00  0.00    +0.017 C 
ATOM     17  C   UNL     1      35.310 -22.067 -18.820  0.00  0.00    +0.006 C 
ENDBRANCH   5  12
ENDBRANCH   3   6
BRANCH   2  18
ATOM     18  C   UNL     1      33.165 -14.756 -26.302  0.00  0.00    +0.111 C 
BRANCH  18  19
ATOM     19  C   UNL     1      33.947 -13.469 -26.103  0.00  0.00    +0.111 C 
BRANCH  19  21
ATOM     20  O   UNL     1      34.363 -13.519 -23.263  0.00  0.00    -0.270 OA
ATOM     21  N   UNL     1      33.331 -12.608 -25.130  0.00  0.00    -0.299 N 
ATOM     22  C   UNL     1      33.593 -12.707 -23.769  0.00  0.00    +0.252 C 
ATOM     23  H   UNL     1      32.696 -11.922 -25.441  0.00  0.00    +0.150 HD
BRANCH  22  26
ATOM     24 CL   UNL     1      31.601  -8.127 -21.524  0.00  0.00    -0.075 Cl
ATOM     25  S   UNL     1      33.025 -10.116 -23.207  0.00  0.00    -0.071 S 
ATOM     26  C   UNL     1      32.856 -11.762 -22.891  0.00  0.00    +0.084 C 
ATOM     27  C   UNL     1      32.059 -12.078 -21.859  0.00  0.00    +0.012 C 
ATOM     28  C   UNL     1      31.534 -10.893 -21.265  0.00  0.00    +0.019 C 
ATOM     29  C   UNL     1      31.978  -9.755 -21.900  0.00  0.00    +0.087 C 
ENDBRANCH  22  26
ENDBRANCH  19  21
ENDBRANCH  18  19
ENDBRANCH   2  18
TORSDOF 6
ENDMDL
MODEL 4
REMARK VINA RESULT:     -11.9      6.698     10.771
REMARK  Name = 10250490
REMARK  6 active torsions:
REMARK  status: ('A' for Active; 'I' for Inactive)
REMARK    1  A    between atoms: N_2  and  C_18
REMARK    2  A    between atoms: C_3  and  C_6
REMARK    3  A    between atoms: C_5  and  N_12
REMARK    4  A    between atoms: C_18  and  C_19
REMARK    5  A    between atoms: C_19  and  N_21
REMARK    6  A    between atoms: C_22  and  C_26
REMARK                            x       y       z     vdW  Elec       q    Type
REMARK                         _______ _______ _______ _____ _____    ______ ____
ROOT
ATOM      1  O   UNL     1      33.411 -14.775 -22.499  0.00  0.00    -0.270 OA
ATOM      2  N   UNL     1      33.169 -14.240 -24.742  0.00  0.00    -0.299 N 
ATOM      3  C   UNL     1      33.177 -13.928 -23.378  0.00  0.00    +0.246 C 
ATOM      4  H   UNL     1      32.977 -13.520 -25.385  0.00  0.00    +0.150 HD
ENDROOT
BRANCH   3   6
ATOM      5  C   UNL     1      32.293  -9.914 -22.314  0.00  0.00    +0.058 C 
ATOM      6  C   UNL     1      32.874 -12.552 -23.015  0.00  0.00    +0.053 C 
ATOM      7  C   UNL     1      33.140 -10.181 -23.390  0.00  0.00    +0.015 C 
ATOM      8  C   UNL     1      31.735 -10.968 -21.589  0.00  0.00    +0.015 C 
ATOM      9  C   UNL     1      33.430 -11.500 -23.740  0.00  0.00    +0.006 C 
ATOM     10  C   UNL     1      32.027 -12.287 -21.939  0.00  0.00    +0.006 C 
BRANCH   5  12
ATOM     11  O   UNL     1      32.818  -8.716 -19.735  0.00  0.00    -0.269 OA
ATOM     12  N   UNL     1      31.992  -8.544 -21.951  0.00  0.00    -0.233 N 
ATOM     13  C   UNL     1      32.337  -8.062 -20.661  0.00  0.00    +0.257 C 
ATOM     14  C   UNL     1      31.344  -7.697 -22.853  0.00  0.00    +0.072 C 
ATOM     15  C   UNL     1      32.035  -6.624 -20.385  0.00  0.00    +0.059 C 
ATOM     16  C   UNL     1      31.054  -6.422 -22.570  0.00  0.00    +0.017 C 
ATOM     17  C   UNL     1      31.418  -5.871 -21.299  0.00  0.00    +0.006 C 
ENDBRANCH   5  12
ENDBRANCH   3   6
BRANCH   2  18
ATOM     18  C   UNL     1      33.428 -15.565 -25.259  0.00  0.00    +0.111 C 
BRANCH  18  19
ATOM     19  C   UNL     1      34.914 -15.867 -25.347  0.00  0.00    +0.111 C 
BRANCH  19  21
ATOM     20  O   UNL     1      34.614 -18.693 -24.945  0.00  0.00    -0.270 OA
ATOM     21  N   UNL     1      35.378 -16.627 -24.218  0.00  0.00    -0.299 N 
ATOM     22  C   UNL     1      35.186 -17.999 -24.108  0.00  0.00    +0.252 C 
ATOM     23  H   UNL     1      35.850 -16.156 -23.493  0.00  0.00    +0.150 HD
BRANCH  22  26
ATOM     24 CL   UNL     1      35.634 -21.113 -19.626  0.00  0.00    -0.075 Cl
ATOM     25  S   UNL     1      34.717 -19.773 -22.113  0.00  0.00    -0.071 S 
ATOM     26  C   UNL     1      35.701 -18.634 -22.868  0.00  0.00    +0.084 C 
ATOM     27  C   UNL     1      36.880 -18.396 -22.272  0.00  0.00    +0.012 C 
ATOM     28  C   UNL     1      37.008 -19.201 -21.102  0.00  0.00    +0.019 C 
ATOM     29  C   UNL     1      35.904 -19.997 -20.898  0.00  0.00    +0.087 C 
ENDBRANCH  22  26
ENDBRANCH  19  21
ENDBRANCH  18  19
ENDBRANCH   2  18
TORSDOF 6
ENDMDL
MODEL 5
REMARK VINA RESULT:     -11.7      6.231     11.536
REMARK  Name = 10250490
REMARK  6 active torsions:
REMARK  status: ('A' for Active; 'I' for Inactive)
REMARK    1  A    between atoms: N_2  and  C_18
REMARK    2  A    between atoms: C_3  and  C_6
REMARK    3  A    between atoms: C_5  and  N_12
REMARK    4  A    between atoms: C_18  and  C_19
REMARK    5  A    between atoms: C_19  and  N_21
REMARK    6  A    between atoms: C_22  and  C_26
REMARK                            x       y       z     vdW  Elec       q    Type
REMARK                         _______ _______ _______ _____ _____    ______ ____
ROOT
ATOM      1  O   UNL     1      35.361 -16.406 -26.108  0.00  0.00    -0.270 OA
ATOM      2  N   UNL     1      33.418 -15.608 -25.129  0.00  0.00    -0.299 N 
ATOM      3  C   UNL     1      34.543 -16.439 -25.174  0.00  0.00    +0.246 C 
ATOM      4  H   UNL     1      32.810 -15.686 -24.359  0.00  0.00    +0.150 HD
ENDROOT
BRANCH   3   6
ATOM      5  C   UNL     1      35.036 -19.180 -21.970  0.00  0.00    +0.058 C 
ATOM      6  C   UNL     1      34.712 -17.379 -24.076  0.00  0.00    +0.053 C 
ATOM      7  C   UNL     1      34.746 -19.648 -23.251  0.00  0.00    +0.015 C 
ATOM      8  C   UNL     1      35.165 -17.809 -21.742  0.00  0.00    +0.015 C 
ATOM      9  C   UNL     1      34.584 -18.748 -24.304  0.00  0.00    +0.006 C 
ATOM     10  C   UNL     1      35.003 -16.909 -22.795  0.00  0.00    +0.006 C 
BRANCH   5  12
ATOM     11  O   UNL     1      37.536 -19.770 -20.641  0.00  0.00    -0.269 OA
ATOM     12  N   UNL     1      35.203 -20.116 -20.875  0.00  0.00    -0.233 N 
ATOM     13  C   UNL     1      36.479 -20.287 -20.280  0.00  0.00    +0.257 C 
ATOM     14  C   UNL     1      34.120 -20.868 -20.416  0.00  0.00    +0.072 C 
ATOM     15  C   UNL     1      36.553 -21.237 -19.126  0.00  0.00    +0.059 C 
ATOM     16  C   UNL     1      34.218 -21.737 -19.404  0.00  0.00    +0.017 C 
ATOM     17  C   UNL     1      35.473 -21.919 -18.737  0.00  0.00    +0.006 C 
ENDBRANCH   5  12
ENDBRANCH   3   6
BRANCH   2  18
ATOM     18  C   UNL     1      33.099 -14.640 -26.155  0.00  0.00    +0.111 C 
BRANCH  18  19
ATOM     19  C   UNL     1      33.912 -13.364 -26.013  0.00  0.00    +0.111 C 
BRANCH  19  21
ATOM     20  O   UNL     1      34.284 -13.428 -23.167  0.00  0.00    -0.270 OA
ATOM     21  N   UNL     1      33.336 -12.462 -25.052  0.00  0.00    -0.299 N 
ATOM     22  C   UNL     1      33.574 -12.571 -23.687  0.00  0.00    +0.252 C 
ATOM     23  H   UNL     1      32.751 -11.740 -25.375  0.00  0.00    +0.150 HD
BRANCH  22  26
ATOM     24 CL   UNL     1      30.799 -10.250 -19.576  0.00  0.00    -0.075 Cl
ATOM     25  S   UNL     1      32.203 -12.137 -21.388  0.00  0.00    -0.071 S 
ATOM     26  C   UNL     1      32.885 -11.578 -22.823  0.00  0.00    +0.084 C 
ATOM     27  C   UNL     1      32.741 -10.265 -23.063  0.00  0.00    +0.012 C 
ATOM     28  C   UNL     1      32.019  -9.649 -22.000  0.00  0.00    +0.019 C 
ATOM     29  C   UNL     1      31.666 -10.553 -21.022  0.00  0.00    +0.087 C 
ENDBRANCH  22  26
ENDBRANCH  19  21
ENDBRANCH  18  19
ENDBRANCH   2  18
TORSDOF 6
ENDMDL
MODEL 6
REMARK VINA RESULT:     -11.7      2.767      4.585
REMARK  Name = 10250490
REMARK  6 active torsions:
REMARK  status: ('A' for Active; 'I' for Inactive)
REMARK    1  A    between atoms: N_2  and  C_18
REMARK    2  A    between atoms: C_3  and  C_6
REMARK    3  A    between atoms: C_5  and  N_12
REMARK    4  A    between atoms: C_18  and  C_19
REMARK    5  A    between atoms: C_19  and  N_21
REMARK    6  A    between atoms: C_22  and  C_26
REMARK                            x       y       z     vdW  Elec       q    Type
REMARK                         _______ _______ _______ _____ _____    ______ ____
ROOT
ATOM      1  O   UNL     1      37.213 -19.358 -20.500  0.00  0.00    -0.270 OA
ATOM      2  N   UNL     1      35.122 -20.347 -20.660  0.00  0.00    -0.299 N 
ATOM      3  C   UNL     1      36.056 -19.348 -20.955  0.00  0.00    +0.246 C 
ATOM      4  H   UNL     1      34.223 -20.277 -21.056  0.00  0.00    +0.150 HD
ENDROOT
BRANCH   3   6
ATOM      5  C   UNL     1      34.757 -16.173 -23.457  0.00  0.00    +0.058 C 
ATOM      6  C   UNL     1      35.611 -18.261 -21.813  0.00  0.00    +0.053 C 
ATOM      7  C   UNL     1      35.229 -17.359 -24.021  0.00  0.00    +0.015 C 
ATOM      8  C   UNL     1      34.712 -16.032 -22.069  0.00  0.00    +0.015 C 
ATOM      9  C   UNL     1      35.655 -18.402 -23.199  0.00  0.00    +0.006 C 
ATOM     10  C   UNL     1      35.139 -17.075 -21.248  0.00  0.00    +0.006 C 
BRANCH   5  12
ATOM     11  O   UNL     1      33.883 -16.456 -26.199  0.00  0.00    -0.269 OA
ATOM     12  N   UNL     1      34.316 -15.089 -24.312  0.00  0.00    -0.233 N 
ATOM     13  C   UNL     1      33.871 -15.364 -25.631  0.00  0.00    +0.257 C 
ATOM     14  C   UNL     1      34.344 -13.770 -23.854  0.00  0.00    +0.072 C 
ATOM     15  C   UNL     1      33.388 -14.195 -26.428  0.00  0.00    +0.059 C 
ATOM     16  C   UNL     1      33.938 -12.736 -24.599  0.00  0.00    +0.017 C 
ATOM     17  C   UNL     1      33.439 -12.960 -25.923  0.00  0.00    +0.006 C 
ENDBRANCH   5  12
ENDBRANCH   3   6
BRANCH   2  18
ATOM     18  C   UNL     1      35.405 -21.478 -19.806  0.00  0.00    +0.111 C 
BRANCH  18  19
ATOM     19  C   UNL     1      34.162 -22.300 -19.510  0.00  0.00    +0.111 C 
BRANCH  19  21
ATOM     20  O   UNL     1      31.811 -22.657 -17.903  0.00  0.00    -0.270 OA
ATOM     21  N   UNL     1      34.117 -22.735 -18.140  0.00  0.00    -0.299 N 
ATOM     22  C   UNL     1      32.926 -22.880 -17.439  0.00  0.00    +0.252 C 
ATOM     23  H   UNL     1      34.964 -22.939 -17.682  0.00  0.00    +0.150 HD
BRANCH  22  26
ATOM     24 CL   UNL     1      34.962 -24.634 -12.668  0.00  0.00    -0.075 Cl
ATOM     25  S   UNL     1      34.583 -23.750 -15.477  0.00  0.00    -0.071 S 
ATOM     26  C   UNL     1      33.051 -23.314 -16.023  0.00  0.00    +0.084 C 
ATOM     27  C   UNL     1      32.063 -23.399 -15.118  0.00  0.00    +0.012 C 
ATOM     28  C   UNL     1      32.581 -23.856 -13.871  0.00  0.00    +0.019 C 
ATOM     29  C   UNL     1      33.938 -24.084 -13.926  0.00  0.00    +0.087 C 
ENDBRANCH  22  26
ENDBRANCH  19  21
ENDBRANCH  18  19
ENDBRANCH   2  18
TORSDOF 6
ENDMDL
MODEL 7
REMARK VINA RESULT:     -11.6      4.945     10.734
REMARK  Name = 10250490
REMARK  6 active torsions:
REMARK  status: ('A' for Active; 'I' for Inactive)
REMARK    1  A    between atoms: N_2  and  C_18
REMARK    2  A    between atoms: C_3  and  C_6
REMARK    3  A    between atoms: C_5  and  N_12
REMARK    4  A    between atoms: C_18  and  C_19
REMARK    5  A    between atoms: C_19  and  N_21
REMARK    6  A    between atoms: C_22  and  C_26
REMARK                            x       y       z     vdW  Elec       q    Type
REMARK                         _______ _______ _______ _____ _____    ______ ____
ROOT
ATOM      1  O   UNL     1      33.798 -21.530 -19.790  0.00  0.00    -0.270 OA
ATOM      2  N   UNL     1      35.874 -20.545 -20.095  0.00  0.00    -0.299 N 
ATOM      3  C   UNL     1      34.973 -21.373 -19.416  0.00  0.00    +0.246 C 
ATOM      4  H   UNL     1      36.791 -20.466 -19.745  0.00  0.00    +0.150 HD
ENDROOT
BRANCH   3   6
ATOM      5  C   UNL     1      36.399 -23.319 -15.924  0.00  0.00    +0.058 C 
ATOM      6  C   UNL     1      35.462 -22.039 -18.219  0.00  0.00    +0.053 C 
ATOM      7  C   UNL     1      37.269 -22.555 -16.703  0.00  0.00    +0.015 C 
ATOM      8  C   UNL     1      35.059 -23.441 -16.294  0.00  0.00    +0.015 C 
ATOM      9  C   UNL     1      36.801 -21.915 -17.850  0.00  0.00    +0.006 C 
ATOM     10  C   UNL     1      34.591 -22.802 -17.441  0.00  0.00    +0.006 C 
BRANCH   5  12
ATOM     11  O   UNL     1      36.793 -26.170 -15.645  0.00  0.00    -0.269 OA
ATOM     12  N   UNL     1      36.887 -23.984 -14.732  0.00  0.00    -0.233 N 
ATOM     13  C   UNL     1      37.076 -25.391 -14.735  0.00  0.00    +0.257 C 
ATOM     14  C   UNL     1      37.152 -23.255 -13.571  0.00  0.00    +0.072 C 
ATOM     15  C   UNL     1      37.628 -25.991 -13.480  0.00  0.00    +0.059 C 
ATOM     16  C   UNL     1      37.613 -23.819 -12.450  0.00  0.00    +0.017 C 
ATOM     17  C   UNL     1      37.864 -25.229 -12.409  0.00  0.00    +0.006 C 
ENDBRANCH   5  12
ENDBRANCH   3   6
BRANCH   2  18
ATOM     18  C   UNL     1      35.532 -19.799 -21.285  0.00  0.00    +0.111 C 
BRANCH  18  19
ATOM     19  C   UNL     1      36.209 -18.439 -21.324  0.00  0.00    +0.111 C 
BRANCH  19  21
ATOM     20  O   UNL     1      35.558 -16.370 -23.204  0.00  0.00    -0.270 OA
ATOM     21  N   UNL     1      35.272 -17.365 -21.129  0.00  0.00    -0.299 N 
ATOM     22  C   UNL     1      35.020 -16.404 -22.101  0.00  0.00    +0.252 C 
ATOM     23  H   UNL     1      34.790 -17.309 -20.272  0.00  0.00    +0.150 HD
BRANCH  22  26
ATOM     24 CL   UNL     1      31.867 -11.929 -22.232  0.00  0.00    -0.075 Cl
ATOM     25  S   UNL     1      33.794 -14.104 -22.845  0.00  0.00    -0.071 S 
ATOM     26  C   UNL     1      34.044 -15.346 -21.735  0.00  0.00    +0.084 C 
ATOM     27  C   UNL     1      33.329 -15.267 -20.602  0.00  0.00    +0.012 C 
ATOM     28  C   UNL     1      32.504 -14.104 -20.623  0.00  0.00    +0.019 C 
ATOM     29  C   UNL     1      32.658 -13.382 -21.786  0.00  0.00    +0.087 C 
ENDBRANCH  22  26
ENDBRANCH  19  21
ENDBRANCH  18  19
ENDBRANCH   2  18
TORSDOF 6
ENDMDL
MODEL 8
REMARK VINA RESULT:     -11.5      4.706     11.020
REMARK  Name = 10250490
REMARK  6 active torsions:
REMARK  status: ('A' for Active; 'I' for Inactive)
REMARK    1  A    between atoms: N_2  and  C_18
REMARK    2  A    between atoms: C_3  and  C_6
REMARK    3  A    between atoms: C_5  and  N_12
REMARK    4  A    between atoms: C_18  and  C_19
REMARK    5  A    between atoms: C_19  and  N_21
REMARK    6  A    between atoms: C_22  and  C_26
REMARK                            x       y       z     vdW  Elec       q    Type
REMARK                         _______ _______ _______ _____ _____    ______ ____
ROOT
ATOM      1  O   UNL     1      33.739 -22.267 -19.627  0.00  0.00    -0.270 OA
ATOM      2  N   UNL     1      35.455 -20.720 -19.815  0.00  0.00    -0.299 N 
ATOM      3  C   UNL     1      34.795 -21.782 -19.186  0.00  0.00    +0.246 C 
ATOM      4  H   UNL     1      36.288 -20.384 -19.412  0.00  0.00    +0.150 HD
ENDROOT
BRANCH   3   6
ATOM      5  C   UNL     1      36.521 -23.279 -15.608  0.00  0.00    +0.058 C 
ATOM      6  C   UNL     1      35.387 -22.294 -17.960  0.00  0.00    +0.053 C 
ATOM      7  C   UNL     1      37.292 -22.523 -16.493  0.00  0.00    +0.015 C 
ATOM      8  C   UNL     1      35.182 -23.541 -15.901  0.00  0.00    +0.015 C 
ATOM      9  C   UNL     1      36.724 -22.031 -17.668  0.00  0.00    +0.006 C 
ATOM     10  C   UNL     1      34.615 -23.049 -17.076  0.00  0.00    +0.006 C 
BRANCH   5  12
ATOM     11  O   UNL     1      37.714 -25.895 -15.298  0.00  0.00    -0.269 OA
ATOM     12  N   UNL     1      37.111 -23.791 -14.387  0.00  0.00    -0.233 N 
ATOM     13  C   UNL     1      37.703 -25.081 -14.375  0.00  0.00    +0.257 C 
ATOM     14  C   UNL     1      37.084 -23.033 -13.215  0.00  0.00    +0.072 C 
ATOM     15  C   UNL     1      38.331 -25.513 -13.088  0.00  0.00    +0.059 C 
ATOM     16  C   UNL     1      37.623 -23.455 -12.066  0.00  0.00    +0.017 C 
ATOM     17  C   UNL     1      38.271 -24.731 -12.006  0.00  0.00    +0.006 C 
ENDBRANCH   5  12
ENDBRANCH   3   6
BRANCH   2  18
ATOM     18  C   UNL     1      34.980 -20.089 -21.025  0.00  0.00    +0.111 C 
BRANCH  18  19
ATOM     19  C   UNL     1      36.046 -19.224 -21.677  0.00  0.00    +0.111 C 
BRANCH  19  21
ATOM     20  O   UNL     1      35.225 -19.223 -24.428  0.00  0.00    -0.270 OA
ATOM     21  N   UNL     1      35.475 -18.121 -22.403  0.00  0.00    -0.299 N 
ATOM     22  C   UNL     1      35.106 -18.213 -23.739  0.00  0.00    +0.252 C 
ATOM     23  H   UNL     1      35.341 -17.266 -21.932  0.00  0.00    +0.150 HD
BRANCH  22  26
ATOM     24 CL   UNL     1      33.738 -12.989 -24.645  0.00  0.00    -0.075 Cl
ATOM     25  S   UNL     1      34.790 -15.529 -23.524  0.00  0.00    -0.071 S 
ATOM     26  C   UNL     1      34.555 -16.977 -24.351  0.00  0.00    +0.084 C 
ATOM     27  C   UNL     1      33.881 -16.884 -25.508  0.00  0.00    +0.012 C 
ATOM     28  C   UNL     1      33.518 -15.528 -25.755  0.00  0.00    +0.019 C 
ATOM     29  C   UNL     1      33.950 -14.685 -24.755  0.00  0.00    +0.087 C 
ENDBRANCH  22  26
ENDBRANCH  19  21
ENDBRANCH  18  19
ENDBRANCH   2  18
TORSDOF 6
ENDMDL
MODEL 9
REMARK VINA RESULT:     -11.4      7.905     13.262
REMARK  Name = 10250490
REMARK  6 active torsions:
REMARK  status: ('A' for Active; 'I' for Inactive)
REMARK    1  A    between atoms: N_2  and  C_18
REMARK    2  A    between atoms: C_3  and  C_6
REMARK    3  A    between atoms: C_5  and  N_12
REMARK    4  A    between atoms: C_18  and  C_19
REMARK    5  A    between atoms: C_19  and  N_21
REMARK    6  A    between atoms: C_22  and  C_26
REMARK                            x       y       z     vdW  Elec       q    Type
REMARK                         _______ _______ _______ _____ _____    ______ ____
ROOT
ATOM      1  O   UNL     1      34.760 -15.559 -25.296  0.00  0.00    -0.270 OA
ATOM      2  N   UNL     1      34.372 -14.240 -23.430  0.00  0.00    -0.299 N 
ATOM      3  C   UNL     1      34.639 -15.459 -24.063  0.00  0.00    +0.246 C 
ATOM      4  H   UNL     1      34.289 -14.232 -22.449  0.00  0.00    +0.150 HD
ENDROOT
BRANCH   3   6
ATOM      5  C   UNL     1      34.957 -18.887 -21.580  0.00  0.00    +0.058 C 
ATOM      6  C   UNL     1      34.749 -16.634 -23.213  0.00  0.00    +0.053 C 
ATOM      7  C   UNL     1      34.776 -19.035 -22.956  0.00  0.00    +0.015 C 
ATOM      8  C   UNL     1      35.034 -17.610 -21.022  0.00  0.00    +0.015 C 
ATOM      9  C   UNL     1      34.673 -17.909 -23.772  0.00  0.00    +0.006 C 
ATOM     10  C   UNL     1      34.929 -16.484 -21.838  0.00  0.00    +0.006 C 
BRANCH   5  12
ATOM     11  O   UNL     1      32.727 -20.405 -20.537  0.00  0.00    -0.269 OA
ATOM     12  N   UNL     1      35.064 -20.058 -20.732  0.00  0.00    -0.233 N 
ATOM     13  C   UNL     1      33.891 -20.740 -20.318  0.00  0.00    +0.257 C 
ATOM     14  C   UNL     1      36.313 -20.508 -20.300  0.00  0.00    +0.072 C 
ATOM     15  C   UNL     1      34.093 -21.966 -19.485  0.00  0.00    +0.059 C 
ATOM     16  C   UNL     1      36.466 -21.588 -19.527  0.00  0.00    +0.017 C 
ATOM     17  C   UNL     1      35.320 -22.341 -19.114  0.00  0.00    +0.006 C 
ENDBRANCH   5  12
ENDBRANCH   3   6
BRANCH   2  18
ATOM     18  C   UNL     1      34.213 -12.990 -24.138  0.00  0.00    +0.111 C 
BRANCH  18  19
ATOM     19  C   UNL     1      33.198 -12.077 -23.470  0.00  0.00    +0.111 C 
BRANCH  19  21
ATOM     20  O   UNL     1      31.825  -9.819 -22.349  0.00  0.00    -0.270 OA
ATOM     21  N   UNL     1      33.452 -10.690 -23.755  0.00  0.00    -0.299 N 
ATOM     22  C   UNL     1      32.732  -9.660 -23.161  0.00  0.00    +0.252 C 
ATOM     23  H   UNL     1      34.163 -10.462 -24.397  0.00  0.00    +0.150 HD
BRANCH  22  26
ATOM     24 CL   UNL     1      32.440  -4.430 -24.760  0.00  0.00    -0.075 Cl
ATOM     25  S   UNL     1      31.840  -7.212 -23.913  0.00  0.00    -0.071 S 
ATOM     26  C   UNL     1      33.098  -8.282 -23.581  0.00  0.00    +0.084 C 
ATOM     27  C   UNL     1      34.337  -7.788 -23.728  0.00  0.00    +0.012 C 
ATOM     28  C   UNL     1      34.275  -6.426 -24.146  0.00  0.00    +0.019 C 
ATOM     29  C   UNL     1      32.977  -5.986 -24.284  0.00  0.00    +0.087 C 
ENDBRANCH  22  26
ENDBRANCH  19  21
ENDBRANCH  18  19
ENDBRANCH   2  18
TORSDOF 6
ENDMDL
