MODEL 1
REMARK VINA RESULT:     -12.7      0.000      0.000
REMARK  Name = 23586146
REMARK  5 active torsions:
REMARK  status: ('A' for Active; 'I' for Inactive)
REMARK    1  A    between atoms: N_1  and  C_12
REMARK    2  A    between atoms: C_8  and  N_18
REMARK    3  A    between atoms: N_18  and  C_20
REMARK    4  A    between atoms: C_23  and  S_26
REMARK    5  A    between atoms: S_26  and  N_29
REMARK                            x       y       z     vdW  Elec       q    Type
REMARK                         _______ _______ _______ _____ _____    ______ ____
ROOT
ATOM      1  N   UNL     1      35.727 -24.478 -14.411  0.00  0.00    -0.309 N 
ATOM      2  N   UNL     1      33.495 -23.949 -14.318  0.00  0.00    -0.321 NA
ATOM      3  N   UNL     1      32.366 -23.323 -16.344  0.00  0.00    -0.106 N 
ATOM      4  N   UNL     1      31.117 -22.950 -16.731  0.00  0.00    -0.139 NA
ATOM      5  N   UNL     1      31.155 -23.346 -14.489  0.00  0.00    -0.145 NA
ATOM      6  C   UNL     1      34.593 -24.096 -15.021  0.00  0.00    +0.196 C 
ATOM      7  C   UNL     1      34.649 -23.853 -16.505  0.00  0.00    +0.081 C 
ATOM      8  C   UNL     1      33.519 -23.471 -17.119  0.00  0.00    +0.140 C 
ATOM      9  C   UNL     1      32.365 -23.560 -14.968  0.00  0.00    +0.176 C 
ATOM     10  C   UNL     1      30.443 -22.983 -15.586  0.00  0.00    +0.230 C 
ATOM     11  H   UNL     1      36.545 -24.569 -14.950  0.00  0.00    +0.149 HD
ENDROOT
BRANCH   1  12
ATOM     12  C   UNL     1      35.797 -24.764 -12.990  0.00  0.00    +0.071 C 
ATOM     13  C   UNL     1      36.828 -25.866 -12.725  0.00  0.00    +0.020 C 
ATOM     14  C   UNL     1      36.128 -23.486 -12.213  0.00  0.00    +0.020 C 
ATOM     15  C   UNL     1      38.267 -25.392 -12.934  0.00  0.00    +0.002 C 
ATOM     16  C   UNL     1      37.569 -23.021 -12.424  0.00  0.00    +0.002 C 
ATOM     17  C   UNL     1      38.569 -24.135 -12.127  0.00  0.00    +0.000 C 
ENDBRANCH   1  12
BRANCH   8  18
ATOM     18  N   UNL     1      33.420 -23.215 -18.456  0.00  0.00    -0.299 N 
ATOM     19  H   UNL     1      32.863 -23.840 -18.973  0.00  0.00    +0.153 HD
BRANCH  18  20
ATOM     20  C   UNL     1      34.010 -22.177 -19.187  0.00  0.00    +0.049 C 
ATOM     21  C   UNL     1      35.398 -22.036 -19.203  0.00  0.00    +0.016 C 
ATOM     22  C   UNL     1      33.210 -21.282 -19.898  0.00  0.00    +0.016 C 
ATOM     23  C   UNL     1      35.184 -20.107 -20.643  0.00  0.00    +0.122 C 
ATOM     24  C   UNL     1      35.985 -21.002 -19.932  0.00  0.00    +0.021 C 
ATOM     25  C   UNL     1      33.798 -20.248 -20.625  0.00  0.00    +0.021 C 
BRANCH  23  26
ATOM     26  S   UNL     1      35.920 -18.813 -21.554  0.00  0.00    +0.057 S 
ATOM     27  O   UNL     1      35.734 -19.085 -22.972  0.00  0.00    -0.153 OA
ATOM     28  O   UNL     1      35.476 -17.542 -20.997  0.00  0.00    -0.153 OA
BRANCH  26  29
ATOM     29  N   UNL     1      37.569 -19.035 -21.163  0.00  0.00    -0.203 NA
ATOM     30  H   UNL     1      38.132 -18.967 -22.010  0.00  0.00    +0.144 HD
ATOM     31  H   UNL     1      37.698 -19.956 -20.743  0.00  0.00    +0.144 HD
ENDBRANCH  26  29
ENDBRANCH  23  26
ENDBRANCH  18  20
ENDBRANCH   8  18
TORSDOF 5
ENDMDL
MODEL 2
REMARK VINA RESULT:     -11.7     10.444     14.943
REMARK  Name = 23586146
REMARK  5 active torsions:
REMARK  status: ('A' for Active; 'I' for Inactive)
REMARK    1  A    between atoms: N_1  and  C_12
REMARK    2  A    between atoms: C_8  and  N_18
REMARK    3  A    between atoms: N_18  and  C_20
REMARK    4  A    between atoms: C_23  and  S_26
REMARK    5  A    between atoms: S_26  and  N_29
REMARK                            x       y       z     vdW  Elec       q    Type
REMARK                         _______ _______ _______ _____ _____    ______ ____
ROOT
ATOM      1  N   UNL     1      33.492  -7.924 -23.822  0.00  0.00    -0.309 N 
ATOM      2  N   UNL     1      32.970  -8.298 -21.618  0.00  0.00    -0.321 NA
ATOM      3  N   UNL     1      32.083 -10.438 -20.983  0.00  0.00    -0.106 N 
ATOM      4  N   UNL     1      31.659 -11.062 -19.851  0.00  0.00    -0.139 NA
ATOM      5  N   UNL     1      32.341  -8.943 -19.369  0.00  0.00    -0.145 NA
ATOM      6  C   UNL     1      33.030  -8.733 -22.854  0.00  0.00    +0.196 C 
ATOM      7  C   UNL     1      32.597 -10.118 -23.253  0.00  0.00    +0.081 C 
ATOM      8  C   UNL     1      32.134 -10.930 -22.290  0.00  0.00    +0.140 C 
ATOM      9  C   UNL     1      32.496  -9.143 -20.663  0.00  0.00    +0.176 C 
ATOM     10  C   UNL     1      31.837 -10.123 -18.927  0.00  0.00    +0.230 C 
ATOM     11  H   UNL     1      33.515  -8.260 -24.746  0.00  0.00    +0.149 HD
ENDROOT
BRANCH   1  12
ATOM     12  C   UNL     1      33.959  -6.575 -23.562  0.00  0.00    +0.071 C 
ATOM     13  C   UNL     1      35.191  -6.270 -24.420  0.00  0.00    +0.020 C 
ATOM     14  C   UNL     1      32.832  -5.570 -23.820  0.00  0.00    +0.020 C 
ATOM     15  C   UNL     1      34.855  -6.114 -25.904  0.00  0.00    +0.002 C 
ATOM     16  C   UNL     1      32.505  -5.416 -25.305  0.00  0.00    +0.002 C 
ATOM     17  C   UNL     1      33.749  -5.089 -26.126  0.00  0.00    +0.000 C 
ENDBRANCH   1  12
BRANCH   8  18
ATOM     18  N   UNL     1      31.708 -12.209 -22.503  0.00  0.00    -0.299 N 
ATOM     19  H   UNL     1      30.763 -12.387 -22.293  0.00  0.00    +0.153 HD
BRANCH  18  20
ATOM     20  C   UNL     1      32.441 -13.299 -22.984  0.00  0.00    +0.049 C 
ATOM     21  C   UNL     1      33.079 -14.160 -22.090  0.00  0.00    +0.016 C 
ATOM     22  C   UNL     1      32.536 -13.526 -24.357  0.00  0.00    +0.016 C 
ATOM     23  C   UNL     1      33.904 -15.473 -23.943  0.00  0.00    +0.122 C 
ATOM     24  C   UNL     1      33.809 -15.247 -22.569  0.00  0.00    +0.021 C 
ATOM     25  C   UNL     1      33.266 -14.613 -24.836  0.00  0.00    +0.021 C 
BRANCH  23  26
ATOM     26  S   UNL     1      34.818 -16.834 -24.541  0.00  0.00    +0.057 S 
ATOM     27  O   UNL     1      34.009 -18.035 -24.389  0.00  0.00    -0.153 OA
ATOM     28  O   UNL     1      35.361 -16.489 -25.848  0.00  0.00    -0.153 OA
BRANCH  26  29
ATOM     29  N   UNL     1      36.100 -16.888 -23.412  0.00  0.00    -0.203 NA
ATOM     30  H   UNL     1      35.721 -16.982 -22.471  0.00  0.00    +0.144 HD
ATOM     31  H   UNL     1      36.644 -16.027 -23.475  0.00  0.00    +0.144 HD
ENDBRANCH  26  29
ENDBRANCH  23  26
ENDBRANCH  18  20
ENDBRANCH   8  18
TORSDOF 5
ENDMDL
MODEL 3
REMARK VINA RESULT:     -11.7      8.057     11.626
REMARK  Name = 23586146
REMARK  5 active torsions:
REMARK  status: ('A' for Active; 'I' for Inactive)
REMARK    1  A    between atoms: N_1  and  C_12
REMARK    2  A    between atoms: C_8  and  N_18
REMARK    3  A    between atoms: N_18  and  C_20
REMARK    4  A    between atoms: C_23  and  S_26
REMARK    5  A    between atoms: S_26  and  N_29
REMARK                            x       y       z     vdW  Elec       q    Type
REMARK                         _______ _______ _______ _____ _____    ______ ____
ROOT
ATOM      1  N   UNL     1      35.321 -17.200 -22.301  0.00  0.00    -0.309 N 
ATOM      2  N   UNL     1      34.726 -16.489 -24.402  0.00  0.00    -0.321 NA
ATOM      3  N   UNL     1      33.293 -14.572 -24.615  0.00  0.00    -0.106 N 
ATOM      4  N   UNL     1      32.720 -13.844 -25.610  0.00  0.00    -0.139 NA
ATOM      5  N   UNL     1      33.954 -15.542 -26.494  0.00  0.00    -0.145 NA
ATOM      6  C   UNL     1      34.660 -16.344 -23.099  0.00  0.00    +0.196 C 
ATOM      7  C   UNL     1      33.866 -15.249 -22.440  0.00  0.00    +0.081 C 
ATOM      8  C   UNL     1      33.204 -14.393 -23.232  0.00  0.00    +0.140 C 
ATOM      9  C   UNL     1      34.044 -15.606 -25.180  0.00  0.00    +0.176 C 
ATOM     10  C   UNL     1      33.150 -14.469 -26.702  0.00  0.00    +0.230 C 
ATOM     11  H   UNL     1      35.248 -17.087 -21.327  0.00  0.00    +0.149 HD
ENDROOT
BRANCH   1  12
ATOM     12  C   UNL     1      36.138 -18.283 -22.816  0.00  0.00    +0.071 C 
ATOM     13  C   UNL     1      37.427 -18.404 -21.998  0.00  0.00    +0.020 C 
ATOM     14  C   UNL     1      35.341 -19.591 -22.806  0.00  0.00    +0.020 C 
ATOM     15  C   UNL     1      37.186 -18.949 -20.589  0.00  0.00    +0.002 C 
ATOM     16  C   UNL     1      35.108 -20.132 -21.396  0.00  0.00    +0.002 C 
ATOM     17  C   UNL     1      36.414 -20.263 -20.619  0.00  0.00    +0.000 C 
ENDBRANCH   1  12
BRANCH   8  18
ATOM     18  N   UNL     1      32.445 -13.354 -22.776  0.00  0.00    -0.299 N 
ATOM     19  H   UNL     1      31.607 -13.602 -22.321  0.00  0.00    +0.153 HD
BRANCH  18  20
ATOM     20  C   UNL     1      32.705 -11.983 -22.870  0.00  0.00    +0.049 C 
ATOM     21  C   UNL     1      31.885 -11.070 -22.205  0.00  0.00    +0.016 C 
ATOM     22  C   UNL     1      33.783 -11.527 -23.628  0.00  0.00    +0.016 C 
ATOM     23  C   UNL     1      33.224  -9.248 -23.057  0.00  0.00    +0.122 C 
ATOM     24  C   UNL     1      32.145  -9.702 -22.298  0.00  0.00    +0.021 C 
ATOM     25  C   UNL     1      34.042 -10.160 -23.721  0.00  0.00    +0.021 C 
BRANCH  23  26
ATOM     26  S   UNL     1      33.548  -7.537 -23.174  0.00  0.00    +0.057 S 
ATOM     27  O   UNL     1      32.779  -6.998 -24.287  0.00  0.00    -0.153 OA
ATOM     28  O   UNL     1      33.412  -6.948 -21.848  0.00  0.00    -0.153 OA
BRANCH  26  29
ATOM     29  N   UNL     1      35.203  -7.546 -23.602  0.00  0.00    -0.203 NA
ATOM     30  H   UNL     1      35.610  -8.449 -23.365  0.00  0.00    +0.144 HD
ATOM     31  H   UNL     1      35.690  -6.809 -23.092  0.00  0.00    +0.144 HD
ENDBRANCH  26  29
ENDBRANCH  23  26
ENDBRANCH  18  20
ENDBRANCH   8  18
TORSDOF 5
ENDMDL
MODEL 4
REMARK VINA RESULT:     -11.2      1.975      4.943
REMARK  Name = 23586146
REMARK  5 active torsions:
REMARK  status: ('A' for Active; 'I' for Inactive)
REMARK    1  A    between atoms: N_1  and  C_12
REMARK    2  A    between atoms: C_8  and  N_18
REMARK    3  A    between atoms: N_18  and  C_20
REMARK    4  A    between atoms: C_23  and  S_26
REMARK    5  A    between atoms: S_26  and  N_29
REMARK                            x       y       z     vdW  Elec       q    Type
REMARK                         _______ _______ _______ _____ _____    ______ ____
ROOT
ATOM      1  N   UNL     1      31.500 -23.658 -16.534  0.00  0.00    -0.309 N 
ATOM      2  N   UNL     1      33.472 -23.457 -15.376  0.00  0.00    -0.321 NA
ATOM      3  N   UNL     1      35.471 -22.888 -16.580  0.00  0.00    -0.106 N 
ATOM      4  N   UNL     1      36.787 -22.676 -16.312  0.00  0.00    -0.139 NA
ATOM      5  N   UNL     1      35.671 -23.186 -14.394  0.00  0.00    -0.145 NA
ATOM      6  C   UNL     1      32.820 -23.407 -16.513  0.00  0.00    +0.196 C 
ATOM      7  C   UNL     1      33.486 -23.079 -17.822  0.00  0.00    +0.081 C 
ATOM      8  C   UNL     1      34.804 -22.828 -17.806  0.00  0.00    +0.140 C 
ATOM      9  C   UNL     1      34.808 -23.198 -15.391  0.00  0.00    +0.176 C 
ATOM     10  C   UNL     1      36.844 -22.867 -14.997  0.00  0.00    +0.230 C 
ATOM     11  H   UNL     1      31.029 -23.632 -17.397  0.00  0.00    +0.149 HD
ENDROOT
BRANCH   1  12
ATOM     12  C   UNL     1      30.740 -23.966 -15.337  0.00  0.00    +0.071 C 
ATOM     13  C   UNL     1      30.085 -22.694 -14.788  0.00  0.00    +0.020 C 
ATOM     14  C   UNL     1      29.699 -25.048 -15.640  0.00  0.00    +0.020 C 
ATOM     15  C   UNL     1      28.937 -22.193 -15.666  0.00  0.00    +0.002 C 
ATOM     16  C   UNL     1      28.552 -24.539 -16.513  0.00  0.00    +0.002 C 
ATOM     17  C   UNL     1      27.908 -23.287 -15.925  0.00  0.00    +0.000 C 
ENDBRANCH   1  12
BRANCH   8  18
ATOM     18  N   UNL     1      35.540 -22.517 -18.913  0.00  0.00    -0.299 N 
ATOM     19  H   UNL     1      36.230 -23.171 -19.167  0.00  0.00    +0.153 HD
BRANCH  18  20
ATOM     20  C   UNL     1      35.437 -21.389 -19.734  0.00  0.00    +0.049 C 
ATOM     21  C   UNL     1      36.585 -20.682 -20.096  0.00  0.00    +0.016 C 
ATOM     22  C   UNL     1      34.188 -20.969 -20.191  0.00  0.00    +0.016 C 
ATOM     23  C   UNL     1      35.232 -19.139 -21.372  0.00  0.00    +0.122 C 
ATOM     24  C   UNL     1      36.482 -19.558 -20.916  0.00  0.00    +0.021 C 
ATOM     25  C   UNL     1      34.086 -19.845 -21.009  0.00  0.00    +0.021 C 
BRANCH  23  26
ATOM     26  S   UNL     1      35.105 -17.731 -22.396  0.00  0.00    +0.057 S 
ATOM     27  O   UNL     1      34.357 -18.098 -23.590  0.00  0.00    -0.153 OA
ATOM     28  O   UNL     1      34.664 -16.605 -21.585  0.00  0.00    -0.153 OA
BRANCH  26  29
ATOM     29  N   UNL     1      36.742 -17.491 -22.825  0.00  0.00    -0.203 NA
ATOM     30  H   UNL     1      37.085 -16.635 -22.391  0.00  0.00    +0.144 HD
ATOM     31  H   UNL     1      36.820 -17.413 -23.839  0.00  0.00    +0.144 HD
ENDBRANCH  26  29
ENDBRANCH  23  26
ENDBRANCH  18  20
ENDBRANCH   8  18
TORSDOF 5
ENDMDL
MODEL 5
REMARK VINA RESULT:     -10.6      8.359     11.935
REMARK  Name = 23586146
REMARK  5 active torsions:
REMARK  status: ('A' for Active; 'I' for Inactive)
REMARK    1  A    between atoms: N_1  and  C_12
REMARK    2  A    between atoms: C_8  and  N_18
REMARK    3  A    between atoms: N_18  and  C_20
REMARK    4  A    between atoms: C_23  and  S_26
REMARK    5  A    between atoms: S_26  and  N_29
REMARK                            x       y       z     vdW  Elec       q    Type
REMARK                         _______ _______ _______ _____ _____    ______ ____
ROOT
ATOM      1  N   UNL     1      34.960 -16.620 -21.470  0.00  0.00    -0.309 N 
ATOM      2  N   UNL     1      34.833 -15.295 -23.341  0.00  0.00    -0.321 NA
ATOM      3  N   UNL     1      33.256 -13.483 -23.373  0.00  0.00    -0.106 N 
ATOM      4  N   UNL     1      32.864 -12.499 -24.226  0.00  0.00    -0.139 NA
ATOM      5  N   UNL     1      34.502 -13.758 -25.184  0.00  0.00    -0.145 NA
ATOM      6  C   UNL     1      34.417 -15.585 -22.130  0.00  0.00    +0.196 C 
ATOM      7  C   UNL     1      33.339 -14.802 -21.431  0.00  0.00    +0.081 C 
ATOM      8  C   UNL     1      32.792 -13.767 -22.086  0.00  0.00    +0.140 C 
ATOM      9  C   UNL     1      34.260 -14.241 -23.981  0.00  0.00    +0.176 C 
ATOM     10  C   UNL     1      33.640 -12.715 -25.284  0.00  0.00    +0.230 C 
ATOM     11  H   UNL     1      34.626 -16.833 -20.570  0.00  0.00    +0.149 HD
ENDROOT
BRANCH   1  12
ATOM     12  C   UNL     1      36.021 -17.438 -22.028  0.00  0.00    +0.071 C 
ATOM     13  C   UNL     1      36.406 -18.546 -21.042  0.00  0.00    +0.020 C 
ATOM     14  C   UNL     1      35.585 -18.015 -23.379  0.00  0.00    +0.020 C 
ATOM     15  C   UNL     1      35.329 -19.624 -20.914  0.00  0.00    +0.002 C 
ATOM     16  C   UNL     1      34.512 -19.095 -23.242  0.00  0.00    +0.002 C 
ATOM     17  C   UNL     1      34.938 -20.193 -22.273  0.00  0.00    +0.000 C 
ENDBRANCH   1  12
BRANCH   8  18
ATOM     18  N   UNL     1      31.807 -12.969 -21.578  0.00  0.00    -0.299 N 
ATOM     19  H   UNL     1      30.936 -13.403 -21.432  0.00  0.00    +0.153 HD
BRANCH  18  20
ATOM     20  C   UNL     1      31.878 -11.614 -21.236  0.00  0.00    +0.049 C 
ATOM     21  C   UNL     1      31.696 -10.637 -22.215  0.00  0.00    +0.016 C 
ATOM     22  C   UNL     1      32.132 -11.240 -19.917  0.00  0.00    +0.016 C 
ATOM     23  C   UNL     1      32.020  -8.913 -20.554  0.00  0.00    +0.122 C 
ATOM     24  C   UNL     1      31.766  -9.286 -21.874  0.00  0.00    +0.021 C 
ATOM     25  C   UNL     1      32.202  -9.889 -19.576  0.00  0.00    +0.021 C 
BRANCH  23  26
ATOM     26  S   UNL     1      32.108  -7.222 -20.128  0.00  0.00    +0.057 S 
ATOM     27  O   UNL     1      31.662  -6.437 -21.271  0.00  0.00    -0.153 OA
ATOM     28  O   UNL     1      31.473  -7.037 -18.831  0.00  0.00    -0.153 OA
BRANCH  26  29
ATOM     29  N   UNL     1      33.795  -7.019 -19.947  0.00  0.00    -0.203 NA
ATOM     30  H   UNL     1      33.997  -6.667 -19.012  0.00  0.00    +0.144 HD
ATOM     31  H   UNL     1      34.134  -6.353 -20.641  0.00  0.00    +0.144 HD
ENDBRANCH  26  29
ENDBRANCH  23  26
ENDBRANCH  18  20
ENDBRANCH   8  18
TORSDOF 5
ENDMDL
MODEL 6
REMARK VINA RESULT:     -10.6      5.721     11.184
REMARK  Name = 23586146
REMARK  5 active torsions:
REMARK  status: ('A' for Active; 'I' for Inactive)
REMARK    1  A    between atoms: N_1  and  C_12
REMARK    2  A    between atoms: C_8  and  N_18
REMARK    3  A    between atoms: N_18  and  C_20
REMARK    4  A    between atoms: C_23  and  S_26
REMARK    5  A    between atoms: S_26  and  N_29
REMARK                            x       y       z     vdW  Elec       q    Type
REMARK                         _______ _______ _______ _____ _____    ______ ____
ROOT
ATOM      1  N   UNL     1      33.647 -13.862 -22.881  0.00  0.00    -0.309 N 
ATOM      2  N   UNL     1      33.874 -15.580 -24.387  0.00  0.00    -0.321 NA
ATOM      3  N   UNL     1      35.048 -17.565 -23.714  0.00  0.00    -0.106 N 
ATOM      4  N   UNL     1      35.399 -18.763 -24.252  0.00  0.00    -0.139 NA
ATOM      5  N   UNL     1      34.250 -17.526 -25.780  0.00  0.00    -0.145 NA
ATOM      6  C   UNL     1      34.098 -15.089 -23.191  0.00  0.00    +0.196 C 
ATOM      7  C   UNL     1      34.849 -15.844 -22.128  0.00  0.00    +0.081 C 
ATOM      8  C   UNL     1      35.302 -17.069 -22.433  0.00  0.00    +0.140 C 
ATOM      9  C   UNL     1      34.345 -16.825 -24.667  0.00  0.00    +0.176 C 
ATOM     10  C   UNL     1      34.898 -18.681 -25.480  0.00  0.00    +0.230 C 
ATOM     11  H   UNL     1      33.837 -13.503 -21.986  0.00  0.00    +0.149 HD
ENDROOT
BRANCH   1  12
ATOM     12  C   UNL     1      32.892 -13.044 -23.812  0.00  0.00    +0.071 C 
ATOM     13  C   UNL     1      31.884 -12.176 -23.052  0.00  0.00    +0.020 C 
ATOM     14  C   UNL     1      33.845 -12.191 -24.655  0.00  0.00    +0.020 C 
ATOM     15  C   UNL     1      32.552 -11.056 -22.253  0.00  0.00    +0.002 C 
ATOM     16  C   UNL     1      34.505 -11.071 -23.851  0.00  0.00    +0.002 C 
ATOM     17  C   UNL     1      33.472 -10.212 -23.128  0.00  0.00    +0.000 C 
ENDBRANCH   1  12
BRANCH   8  18
ATOM     18  N   UNL     1      35.998 -17.867 -21.571  0.00  0.00    -0.299 N 
ATOM     19  H   UNL     1      36.911 -17.571 -21.354  0.00  0.00    +0.153 HD
BRANCH  18  20
ATOM     20  C   UNL     1      35.579 -19.052 -20.955  0.00  0.00    +0.049 C 
ATOM     21  C   UNL     1      34.223 -19.384 -20.931  0.00  0.00    +0.016 C 
ATOM     22  C   UNL     1      36.515 -19.902 -20.367  0.00  0.00    +0.016 C 
ATOM     23  C   UNL     1      34.743 -21.415 -19.729  0.00  0.00    +0.122 C 
ATOM     24  C   UNL     1      33.806 -20.566 -20.318  0.00  0.00    +0.021 C 
ATOM     25  C   UNL     1      36.097 -21.082 -19.754  0.00  0.00    +0.021 C 
BRANCH  23  26
ATOM     26  S   UNL     1      34.220 -22.893 -18.962  0.00  0.00    +0.057 S 
ATOM     27  O   UNL     1      34.179 -23.943 -19.970  0.00  0.00    -0.153 OA
ATOM     28  O   UNL     1      35.000 -23.086 -17.747  0.00  0.00    -0.153 OA
BRANCH  26  29
ATOM     29  N   UNL     1      32.618 -22.485 -18.526  0.00  0.00    -0.203 NA
ATOM     30  H   UNL     1      32.575 -21.499 -18.274  0.00  0.00    +0.144 HD
ATOM     31  H   UNL     1      32.327 -23.053 -17.731  0.00  0.00    +0.144 HD
ENDBRANCH  26  29
ENDBRANCH  23  26
ENDBRANCH  18  20
ENDBRANCH   8  18
TORSDOF 5
ENDMDL
MODEL 7
REMARK VINA RESULT:     -10.5      4.600      8.592
REMARK  Name = 23586146
REMARK  5 active torsions:
REMARK  status: ('A' for Active; 'I' for Inactive)
REMARK    1  A    between atoms: N_1  and  C_12
REMARK    2  A    between atoms: C_8  and  N_18
REMARK    3  A    between atoms: N_18  and  C_20
REMARK    4  A    between atoms: C_23  and  S_26
REMARK    5  A    between atoms: S_26  and  N_29
REMARK                            x       y       z     vdW  Elec       q    Type
REMARK                         _______ _______ _______ _____ _____    ______ ____
ROOT
ATOM      1  N   UNL     1      35.612 -19.947 -20.855  0.00  0.00    -0.309 N 
ATOM      2  N   UNL     1      34.201 -21.359 -19.721  0.00  0.00    -0.321 NA
ATOM      3  N   UNL     1      35.077 -22.653 -17.896  0.00  0.00    -0.106 N 
ATOM      4  N   UNL     1      34.625 -23.566 -16.996  0.00  0.00    -0.139 NA
ATOM      5  N   UNL     1      32.929 -22.916 -18.369  0.00  0.00    -0.145 NA
ATOM      6  C   UNL     1      35.399 -20.848 -19.882  0.00  0.00    +0.196 C 
ATOM      7  C   UNL     1      36.570 -21.227 -19.016  0.00  0.00    +0.081 C 
ATOM      8  C   UNL     1      36.363 -22.127 -18.043  0.00  0.00    +0.140 C 
ATOM      9  C   UNL     1      34.021 -22.269 -18.726  0.00  0.00    +0.176 C 
ATOM     10  C   UNL     1      33.343 -23.681 -17.327  0.00  0.00    +0.230 C 
ATOM     11  H   UNL     1      36.519 -19.585 -20.972  0.00  0.00    +0.149 HD
ENDROOT
BRANCH   1  12
ATOM     12  C   UNL     1      34.560 -19.484 -21.741  0.00  0.00    +0.071 C 
ATOM     13  C   UNL     1      34.128 -18.068 -21.350  0.00  0.00    +0.020 C 
ATOM     14  C   UNL     1      35.034 -19.545 -23.196  0.00  0.00    +0.020 C 
ATOM     15  C   UNL     1      35.185 -17.013 -21.680  0.00  0.00    +0.002 C 
ATOM     16  C   UNL     1      36.088 -18.486 -23.520  0.00  0.00    +0.002 C 
ATOM     17  C   UNL     1      35.615 -17.086 -23.141  0.00  0.00    +0.000 C 
ENDBRANCH   1  12
BRANCH   8  18
ATOM     18  N   UNL     1      37.329 -22.565 -17.184  0.00  0.00    -0.299 N 
ATOM     19  H   UNL     1      38.258 -22.464 -17.495  0.00  0.00    +0.153 HD
BRANCH  18  20
ATOM     20  C   UNL     1      37.169 -23.138 -15.917  0.00  0.00    +0.049 C 
ATOM     21  C   UNL     1      36.365 -22.511 -14.964  0.00  0.00    +0.016 C 
ATOM     22  C   UNL     1      37.813 -24.336 -15.606  0.00  0.00    +0.016 C 
ATOM     23  C   UNL     1      36.849 -24.281 -13.392  0.00  0.00    +0.122 C 
ATOM     24  C   UNL     1      36.204 -23.083 -13.702  0.00  0.00    +0.021 C 
ATOM     25  C   UNL     1      37.653 -24.907 -14.345  0.00  0.00    +0.021 C 
BRANCH  23  26
ATOM     26  S   UNL     1      36.648 -24.995 -11.812  0.00  0.00    +0.057 S 
ATOM     27  O   UNL     1      37.132 -26.368 -11.864  0.00  0.00    -0.153 OA
ATOM     28  O   UNL     1      37.184 -24.077 -10.817  0.00  0.00    -0.153 OA
BRANCH  26  29
ATOM     29  N   UNL     1      34.945 -25.017 -11.678  0.00  0.00    -0.203 NA
ATOM     30  H   UNL     1      34.612 -25.979 -11.714  0.00  0.00    +0.144 HD
ATOM     31  H   UNL     1      34.536 -24.487 -12.449  0.00  0.00    +0.144 HD
ENDBRANCH  26  29
ENDBRANCH  23  26
ENDBRANCH  18  20
ENDBRANCH   8  18
TORSDOF 5
ENDMDL
MODEL 8
REMARK VINA RESULT:     -10.4      6.660     11.703
REMARK  Name = 23586146
REMARK  5 active torsions:
REMARK  status: ('A' for Active; 'I' for Inactive)
REMARK    1  A    between atoms: N_1  and  C_12
REMARK    2  A    between atoms: C_8  and  N_18
REMARK    3  A    between atoms: N_18  and  C_20
REMARK    4  A    between atoms: C_23  and  S_26
REMARK    5  A    between atoms: S_26  and  N_29
REMARK                            x       y       z     vdW  Elec       q    Type
REMARK                         _______ _______ _______ _____ _____    ______ ____
ROOT
ATOM      1  N   UNL     1      32.810 -12.613 -21.950  0.00  0.00    -0.309 N 
ATOM      2  N   UNL     1      32.612 -13.586 -24.019  0.00  0.00    -0.321 NA
ATOM      3  N   UNL     1      34.090 -15.390 -24.599  0.00  0.00    -0.106 N 
ATOM      4  N   UNL     1      34.314 -16.213 -25.658  0.00  0.00    -0.139 NA
ATOM      5  N   UNL     1      32.610 -14.777 -26.129  0.00  0.00    -0.145 NA
ATOM      6  C   UNL     1      33.210 -13.523 -22.853  0.00  0.00    +0.196 C 
ATOM      7  C   UNL     1      34.343 -14.436 -22.467  0.00  0.00    +0.081 C 
ATOM      8  C   UNL     1      34.745 -15.347 -23.366  0.00  0.00    +0.140 C 
ATOM      9  C   UNL     1      33.043 -14.520 -24.910  0.00  0.00    +0.176 C 
ATOM     10  C   UNL     1      33.404 -15.800 -26.535  0.00  0.00    +0.230 C 
ATOM     11  H   UNL     1      33.279 -12.568 -21.086  0.00  0.00    +0.149 HD
ENDROOT
BRANCH   1  12
ATOM     12  C   UNL     1      31.716 -11.691 -22.194  0.00  0.00    +0.071 C 
ATOM     13  C   UNL     1      30.966 -11.408 -20.889  0.00  0.00    +0.020 C 
ATOM     14  C   UNL     1      32.247 -10.402 -22.828  0.00  0.00    +0.020 C 
ATOM     15  C   UNL     1      31.774 -10.550 -19.915  0.00  0.00    +0.002 C 
ATOM     16  C   UNL     1      33.050  -9.547 -21.848  0.00  0.00    +0.002 C 
ATOM     17  C   UNL     1      32.264  -9.264 -20.571  0.00  0.00    +0.000 C 
ENDBRANCH   1  12
BRANCH   8  18
ATOM     18  N   UNL     1      35.758 -16.238 -23.155  0.00  0.00    -0.299 N 
ATOM     19  H   UNL     1      36.616 -16.023 -23.587  0.00  0.00    +0.153 HD
BRANCH  18  20
ATOM     20  C   UNL     1      35.733 -17.417 -22.402  0.00  0.00    +0.049 C 
ATOM     21  C   UNL     1      36.929 -18.027 -22.021  0.00  0.00    +0.016 C 
ATOM     22  C   UNL     1      34.513 -17.984 -22.033  0.00  0.00    +0.016 C 
ATOM     23  C   UNL     1      35.683 -19.769 -20.901  0.00  0.00    +0.122 C 
ATOM     24  C   UNL     1      36.904 -19.202 -21.270  0.00  0.00    +0.021 C 
ATOM     25  C   UNL     1      34.489 -19.159 -21.283  0.00  0.00    +0.021 C 
BRANCH  23  26
ATOM     26  S   UNL     1      35.653 -21.240 -19.962  0.00  0.00    +0.057 S 
ATOM     27  O   UNL     1      35.996 -22.351 -20.838  0.00  0.00    -0.153 OA
ATOM     28  O   UNL     1      36.412 -21.024 -18.738  0.00  0.00    -0.153 OA
BRANCH  26  29
ATOM     29  N   UNL     1      33.993 -21.341 -19.568  0.00  0.00    -0.203 NA
ATOM     30  H   UNL     1      33.438 -21.312 -20.422  0.00  0.00    +0.144 HD
ATOM     31  H   UNL     1      33.738 -20.556 -18.969  0.00  0.00    +0.144 HD
ENDBRANCH  26  29
ENDBRANCH  23  26
ENDBRANCH  18  20
ENDBRANCH   8  18
TORSDOF 5
ENDMDL
MODEL 9
REMARK VINA RESULT:     -10.2      5.661      9.151
REMARK  Name = 23586146
REMARK  5 active torsions:
REMARK  status: ('A' for Active; 'I' for Inactive)
REMARK    1  A    between atoms: N_1  and  C_12
REMARK    2  A    between atoms: C_8  and  N_18
REMARK    3  A    between atoms: N_18  and  C_20
REMARK    4  A    between atoms: C_23  and  S_26
REMARK    5  A    between atoms: S_26  and  N_29
REMARK                            x       y       z     vdW  Elec       q    Type
REMARK                         _______ _______ _______ _____ _____    ______ ____
ROOT
ATOM      1  N   UNL     1      35.026 -19.787 -20.614  0.00  0.00    -0.309 N 
ATOM      2  N   UNL     1      34.622 -19.283 -22.817  0.00  0.00    -0.321 NA
ATOM      3  N   UNL     1      34.754 -16.992 -23.526  0.00  0.00    -0.106 N 
ATOM      4  N   UNL     1      34.600 -16.278 -24.673  0.00  0.00    -0.139 NA
ATOM      5  N   UNL     1      34.242 -18.490 -25.074  0.00  0.00    -0.145 NA
ATOM      6  C   UNL     1      34.928 -18.885 -21.604  0.00  0.00    +0.196 C 
ATOM      7  C   UNL     1      35.178 -17.442 -21.260  0.00  0.00    +0.081 C 
ATOM      8  C   UNL     1      35.081 -16.538 -22.246  0.00  0.00    +0.140 C 
ATOM      9  C   UNL     1      34.531 -18.343 -23.796  0.00  0.00    +0.176 C 
ATOM     10  C   UNL     1      34.296 -17.223 -25.557  0.00  0.00    +0.230 C 
ATOM     11  H   UNL     1      35.240 -19.469 -19.707  0.00  0.00    +0.149 HD
ENDROOT
BRANCH   1  12
ATOM     12  C   UNL     1      34.829 -21.209 -20.823  0.00  0.00    +0.071 C 
ATOM     13  C   UNL     1      35.943 -22.002 -20.132  0.00  0.00    +0.020 C 
ATOM     14  C   UNL     1      33.445 -21.628 -20.318  0.00  0.00    +0.020 C 
ATOM     15  C   UNL     1      35.829 -21.977 -18.607  0.00  0.00    +0.002 C 
ATOM     16  C   UNL     1      33.339 -21.605 -18.793  0.00  0.00    +0.002 C 
ATOM     17  C   UNL     1      34.448 -22.424 -18.139  0.00  0.00    +0.000 C 
ENDBRANCH   1  12
BRANCH   8  18
ATOM     18  N   UNL     1      35.280 -15.197 -22.081  0.00  0.00    -0.299 N 
ATOM     19  H   UNL     1      36.218 -14.908 -22.015  0.00  0.00    +0.153 HD
BRANCH  18  20
ATOM     20  C   UNL     1      34.321 -14.182 -21.994  0.00  0.00    +0.049 C 
ATOM     21  C   UNL     1      34.215 -13.233 -23.013  0.00  0.00    +0.016 C 
ATOM     22  C   UNL     1      33.471 -14.117 -20.891  0.00  0.00    +0.016 C 
ATOM     23  C   UNL     1      32.409 -12.157 -21.822  0.00  0.00    +0.122 C 
ATOM     24  C   UNL     1      33.259 -12.222 -22.927  0.00  0.00    +0.021 C 
ATOM     25  C   UNL     1      32.515 -13.105 -20.805  0.00  0.00    +0.021 C 
BRANCH  23  26
ATOM     26  S   UNL     1      31.212 -10.891 -21.716  0.00  0.00    +0.057 S 
ATOM     27  O   UNL     1      31.206 -10.158 -22.974  0.00  0.00    -0.153 OA
ATOM     28  O   UNL     1      29.974 -11.464 -21.206  0.00  0.00    -0.153 OA
BRANCH  26  29
ATOM     29  N   UNL     1      31.896  -9.897 -20.504  0.00  0.00    -0.203 NA
ATOM     30  H   UNL     1      31.158  -9.545 -19.897  0.00  0.00    +0.144 HD
ATOM     31  H   UNL     1      32.381  -9.113 -20.941  0.00  0.00    +0.144 HD
ENDBRANCH  26  29
ENDBRANCH  23  26
ENDBRANCH  18  20
ENDBRANCH   8  18
TORSDOF 5
ENDMDL
