MODEL 1
REMARK VINA RESULT:     -12.8      0.000      0.000
REMARK  Name = 115368
REMARK  5 active torsions:
REMARK  status: ('A' for Active; 'I' for Inactive)
REMARK    1  A    between atoms: N_2  and  C_17
REMARK    2  A    between atoms: C_17  and  C_18
REMARK    3  A    between atoms: C_18  and  C_19
REMARK    4  A    between atoms: C_19  and  C_20
REMARK    5  A    between atoms: C_20  and  N_23
REMARK                            x       y       z     vdW  Elec       q    Type
REMARK                         _______ _______ _______ _____ _____    ______ ____
ROOT
ATOM      1  S   UNL     1      36.094 -24.799 -12.265  0.00  0.00    +0.014 S 
ATOM      2  N   UNL     1      34.841 -22.076 -18.167  0.00  0.00    +0.389 N 
ATOM      3  N   UNL     1      35.588 -23.184 -15.640  0.00  0.00    -0.297 N 
ATOM      4  N   UNL     1      35.247 -23.950 -13.407  0.00  0.00    -0.194 NA
ATOM      5  C   UNL     1      36.232 -22.011 -17.703  0.00  0.00    -0.055 C 
ATOM      6  C   UNL     1      34.196 -23.296 -17.663  0.00  0.00    -0.055 C 
ATOM      7  C   UNL     1      36.310 -22.025 -16.174  0.00  0.00    +0.069 C 
ATOM      8  C   UNL     1      34.213 -23.324 -16.134  0.00  0.00    +0.069 C 
ATOM      9  C   UNL     1      36.003 -23.838 -14.501  0.00  0.00    +0.140 A 
ATOM     10  C   UNL     1      37.309 -24.437 -14.457  0.00  0.00    +0.040 A 
ATOM     11  C   UNL     1      37.509 -25.040 -13.213  0.00  0.00    +0.050 A 
ATOM     12  C   UNL     1      38.347 -24.506 -15.413  0.00  0.00    +0.003 C 
ATOM     13  C   UNL     1      38.701 -25.705 -12.887  0.00  0.00    +0.008 C 
ATOM     14  C   UNL     1      39.538 -25.167 -15.098  0.00  0.00    +0.000 C 
ATOM     15  C   UNL     1      39.711 -25.757 -13.851  0.00  0.00    +0.001 C 
ATOM     16  H   UNL     1      34.337 -21.267 -17.801  0.00  0.00    -0.080 HD
ENDROOT
BRANCH   2  17
ATOM     17  C   UNL     1      34.782 -22.028 -19.628  0.00  0.00    -0.077 C 
BRANCH  17  18
ATOM     18  C   UNL     1      36.111 -21.534 -20.197  0.00  0.00    -0.021 C 
BRANCH  18  19
ATOM     19  C   UNL     1      36.017 -20.065 -20.623  0.00  0.00    +0.020 C 
BRANCH  19  20
ATOM     20  C   UNL     1      34.793 -19.783 -21.489  0.00  0.00    +0.101 C 
BRANCH  20  23
ATOM     21  O   UNL     1      34.853 -16.847 -21.130  0.00  0.00    -0.274 OA
ATOM     22  O   UNL     1      35.315 -20.130 -24.354  0.00  0.00    -0.274 OA
ATOM     23  N   UNL     1      35.042 -18.754 -22.479  0.00  0.00    -0.230 N 
ATOM     24  C   UNL     1      35.591 -16.719 -23.446  0.00  0.00    +0.086 C 
ATOM     25  C   UNL     1      35.233 -17.714 -24.556  0.00  0.00    +0.086 C 
ATOM     26  C   UNL     1      35.092 -15.292 -23.636  0.00  0.00    +0.010 C 
ATOM     27  C   UNL     1      33.850 -17.505 -25.181  0.00  0.00    +0.010 C 
ATOM     28  C   UNL     1      33.675 -15.214 -24.187  0.00  0.00    +0.001 C 
ATOM     29  C   UNL     1      33.541 -16.042 -25.458  0.00  0.00    +0.001 C 
ATOM     30  C   UNL     1      35.092 -17.403 -22.191  0.00  0.00    +0.231 C 
ATOM     31  C   UNL     1      35.233 -19.034 -23.818  0.00  0.00    +0.231 C 
ENDBRANCH  20  23
ENDBRANCH  19  20
ENDBRANCH  18  19
ENDBRANCH  17  18
ENDBRANCH   2  17
TORSDOF 5
ENDMDL
MODEL 2
REMARK VINA RESULT:     -12.8      4.097     10.876
REMARK  Name = 115368
REMARK  5 active torsions:
REMARK  status: ('A' for Active; 'I' for Inactive)
REMARK    1  A    between atoms: N_2  and  C_17
REMARK    2  A    between atoms: C_17  and  C_18
REMARK    3  A    between atoms: C_18  and  C_19
REMARK    4  A    between atoms: C_19  and  C_20
REMARK    5  A    between atoms: C_20  and  N_23
REMARK                            x       y       z     vdW  Elec       q    Type
REMARK                         _______ _______ _______ _____ _____    ______ ____
ROOT
ATOM      1  S   UNL     1      33.748 -13.527 -24.902  0.00  0.00    +0.014 S 
ATOM      2  N   UNL     1      35.386 -19.204 -21.919  0.00  0.00    +0.389 N 
ATOM      3  N   UNL     1      34.712 -16.653 -23.016  0.00  0.00    -0.297 N 
ATOM      4  N   UNL     1      34.458 -15.013 -24.730  0.00  0.00    -0.194 NA
ATOM      5  C   UNL     1      35.356 -18.009 -21.068  0.00  0.00    -0.055 C 
ATOM      6  C   UNL     1      34.387 -19.089 -22.990  0.00  0.00    -0.055 C 
ATOM      7  C   UNL     1      35.636 -16.741 -21.880  0.00  0.00    +0.069 C 
ATOM      8  C   UNL     1      34.662 -17.857 -23.853  0.00  0.00    +0.069 C 
ATOM      9  C   UNL     1      34.249 -15.443 -23.484  0.00  0.00    +0.140 A 
ATOM     10  C   UNL     1      33.501 -14.578 -22.612  0.00  0.00    +0.040 A 
ATOM     11  C   UNL     1      33.137 -13.418 -23.297  0.00  0.00    +0.050 A 
ATOM     12  C   UNL     1      33.106 -14.715 -21.262  0.00  0.00    +0.003 C 
ATOM     13  C   UNL     1      32.397 -12.392 -22.690  0.00  0.00    +0.008 C 
ATOM     14  C   UNL     1      32.368 -13.699 -20.649  0.00  0.00    +0.000 C 
ATOM     15  C   UNL     1      32.020 -12.552 -21.355  0.00  0.00    +0.001 C 
ATOM     16  H   UNL     1      36.310 -19.280 -22.343  0.00  0.00    -0.080 HD
ENDROOT
BRANCH   2  17
ATOM     17  C   UNL     1      35.149 -20.408 -21.122  0.00  0.00    -0.077 C 
BRANCH  17  18
ATOM     18  C   UNL     1      33.656 -20.582 -20.853  0.00  0.00    -0.021 C 
BRANCH  18  19
ATOM     19  C   UNL     1      33.414 -21.287 -19.514  0.00  0.00    +0.020 C 
BRANCH  19  20
ATOM     20  C   UNL     1      34.331 -22.489 -19.311  0.00  0.00    +0.101 C 
BRANCH  20  23
ATOM     21  O   UNL     1      36.969 -21.843 -18.137  0.00  0.00    -0.274 OA
ATOM     22  O   UNL     1      32.804 -23.517 -17.027  0.00  0.00    -0.274 OA
ATOM     23  N   UNL     1      34.769 -22.623 -17.935  0.00  0.00    -0.230 N 
ATOM     24  C   UNL     1      35.975 -22.346 -15.974  0.00  0.00    +0.086 C 
ATOM     25  C   UNL     1      34.841 -23.345 -15.720  0.00  0.00    +0.086 C 
ATOM     26  C   UNL     1      37.312 -22.665 -15.316  0.00  0.00    +0.010 C 
ATOM     27  C   UNL     1      35.283 -24.810 -15.648  0.00  0.00    +0.010 C 
ATOM     28  C   UNL     1      37.680 -24.141 -15.378  0.00  0.00    +0.001 C 
ATOM     29  C   UNL     1      36.552 -25.005 -14.832  0.00  0.00    +0.001 C 
ATOM     30  C   UNL     1      36.020 -22.245 -17.484  0.00  0.00    +0.231 C 
ATOM     31  C   UNL     1      33.972 -23.165 -16.945  0.00  0.00    +0.231 C 
ENDBRANCH  20  23
ENDBRANCH  19  20
ENDBRANCH  18  19
ENDBRANCH  17  18
ENDBRANCH   2  17
TORSDOF 5
ENDMDL
MODEL 3
REMARK VINA RESULT:     -12.6      4.639     11.086
REMARK  Name = 115368
REMARK  5 active torsions:
REMARK  status: ('A' for Active; 'I' for Inactive)
REMARK    1  A    between atoms: N_2  and  C_17
REMARK    2  A    between atoms: C_17  and  C_18
REMARK    3  A    between atoms: C_18  and  C_19
REMARK    4  A    between atoms: C_19  and  C_20
REMARK    5  A    between atoms: C_20  and  N_23
REMARK                            x       y       z     vdW  Elec       q    Type
REMARK                         _______ _______ _______ _____ _____    ______ ____
ROOT
ATOM      1  S   UNL     1      33.472 -15.753 -26.124  0.00  0.00    +0.014 S 
ATOM      2  N   UNL     1      35.850 -19.869 -21.517  0.00  0.00    +0.389 N 
ATOM      3  N   UNL     1      34.949 -17.936 -23.420  0.00  0.00    -0.297 N 
ATOM      4  N   UNL     1      34.061 -17.168 -25.497  0.00  0.00    -0.194 NA
ATOM      5  C   UNL     1      36.312 -18.477 -21.446  0.00  0.00    -0.055 C 
ATOM      6  C   UNL     1      34.481 -19.922 -22.049  0.00  0.00    -0.055 C 
ATOM      7  C   UNL     1      36.283 -17.810 -22.824  0.00  0.00    +0.069 C 
ATOM      8  C   UNL     1      34.422 -19.305 -23.447  0.00  0.00    +0.069 C 
ATOM      9  C   UNL     1      34.419 -16.955 -24.229  0.00  0.00    +0.140 A 
ATOM     10  C   UNL     1      34.231 -15.627 -23.712  0.00  0.00    +0.040 A 
ATOM     11  C   UNL     1      33.684 -14.808 -24.702  0.00  0.00    +0.050 A 
ATOM     12  C   UNL     1      34.496 -15.063 -22.444  0.00  0.00    +0.003 C 
ATOM     13  C   UNL     1      33.393 -13.454 -24.477  0.00  0.00    +0.008 C 
ATOM     14  C   UNL     1      34.209 -13.716 -22.209  0.00  0.00    +0.000 C 
ATOM     15  C   UNL     1      33.665 -12.923 -23.214  0.00  0.00    +0.001 C 
ATOM     16  H   UNL     1      36.464 -20.384 -22.148  0.00  0.00    -0.080 HD
ENDROOT
BRANCH   2  17
ATOM     17  C   UNL     1      35.914 -20.501 -20.199  0.00  0.00    -0.077 C 
BRANCH  17  18
ATOM     18  C   UNL     1      34.682 -21.373 -19.968  0.00  0.00    -0.021 C 
BRANCH  18  19
ATOM     19  C   UNL     1      34.864 -22.273 -18.741  0.00  0.00    +0.020 C 
BRANCH  19  20
ATOM     20  C   UNL     1      33.716 -23.261 -18.563  0.00  0.00    +0.101 C 
BRANCH  20  23
ATOM     21  O   UNL     1      34.824 -24.247 -16.003  0.00  0.00    -0.274 OA
ATOM     22  O   UNL     1      31.113 -22.150 -17.794  0.00  0.00    -0.274 OA
ATOM     23  N   UNL     1      33.132 -23.196 -17.238  0.00  0.00    -0.230 N 
ATOM     24  C   UNL     1      32.912 -23.192 -14.929  0.00  0.00    +0.086 C 
ATOM     25  C   UNL     1      31.528 -22.993 -15.558  0.00  0.00    +0.086 C 
ATOM     26  C   UNL     1      32.969 -24.095 -13.703  0.00  0.00    +0.010 C 
ATOM     27  C   UNL     1      30.627 -24.232 -15.526  0.00  0.00    +0.010 C 
ATOM     28  C   UNL     1      32.093 -25.335 -13.822  0.00  0.00    +0.001 C 
ATOM     29  C   UNL     1      30.665 -24.956 -14.189  0.00  0.00    +0.001 C 
ATOM     30  C   UNL     1      33.762 -23.651 -16.094  0.00  0.00    +0.231 C 
ATOM     31  C   UNL     1      31.870 -22.686 -16.999  0.00  0.00    +0.231 C 
ENDBRANCH  20  23
ENDBRANCH  19  20
ENDBRANCH  18  19
ENDBRANCH  17  18
ENDBRANCH   2  17
TORSDOF 5
ENDMDL
MODEL 4
REMARK VINA RESULT:     -12.3      8.945     15.611
REMARK  Name = 115368
REMARK  5 active torsions:
REMARK  status: ('A' for Active; 'I' for Inactive)
REMARK    1  A    between atoms: N_2  and  C_17
REMARK    2  A    between atoms: C_17  and  C_18
REMARK    3  A    between atoms: C_18  and  C_19
REMARK    4  A    between atoms: C_19  and  C_20
REMARK    5  A    between atoms: C_20  and  N_23
REMARK                            x       y       z     vdW  Elec       q    Type
REMARK                         _______ _______ _______ _____ _____    ______ ____
ROOT
ATOM      1  S   UNL     1      31.278  -3.029 -24.778  0.00  0.00    +0.014 S 
ATOM      2  N   UNL     1      31.644  -8.954 -21.849  0.00  0.00    +0.389 N 
ATOM      3  N   UNL     1      31.556  -6.491 -23.297  0.00  0.00    -0.297 N 
ATOM      4  N   UNL     1      30.813  -4.280 -23.797  0.00  0.00    -0.194 NA
ATOM      5  C   UNL     1      32.082  -8.893 -23.248  0.00  0.00    -0.055 C 
ATOM      6  C   UNL     1      31.921  -7.677 -21.175  0.00  0.00    -0.055 C 
ATOM      7  C   UNL     1      31.376  -7.764 -24.004  0.00  0.00    +0.069 C 
ATOM      8  C   UNL     1      31.193  -6.529 -21.875  0.00  0.00    +0.069 C 
ATOM      9  C   UNL     1      31.663  -5.294 -23.970  0.00  0.00    +0.140 A 
ATOM     10  C   UNL     1      32.731  -5.099 -24.913  0.00  0.00    +0.040 A 
ATOM     11  C   UNL     1      32.641  -3.821 -25.468  0.00  0.00    +0.050 A 
ATOM     12  C   UNL     1      33.784  -5.942 -25.332  0.00  0.00    +0.003 C 
ATOM     13  C   UNL     1      33.558  -3.354 -26.423  0.00  0.00    +0.008 C 
ATOM     14  C   UNL     1      34.703  -5.486 -26.282  0.00  0.00    +0.000 C 
ATOM     15  C   UNL     1      34.589  -4.209 -26.819  0.00  0.00    +0.001 C 
ATOM     16  H   UNL     1      30.638  -9.120 -21.829  0.00  0.00    -0.080 HD
ENDROOT
BRANCH   2  17
ATOM     17  C   UNL     1      32.303 -10.057 -21.151  0.00  0.00    -0.077 C 
BRANCH  17  18
ATOM     18  C   UNL     1      31.649 -11.387 -21.521  0.00  0.00    -0.021 C 
BRANCH  18  19
ATOM     19  C   UNL     1      32.593 -12.253 -22.361  0.00  0.00    +0.020 C 
BRANCH  19  20
ATOM     20  C   UNL     1      32.393 -13.745 -22.118  0.00  0.00    +0.101 C 
BRANCH  20  23
ATOM     21  O   UNL     1      32.820 -14.555 -24.931  0.00  0.00    -0.274 OA
ATOM     22  O   UNL     1      34.641 -14.988 -20.702  0.00  0.00    -0.274 OA
ATOM     23  N   UNL     1      33.464 -14.545 -22.678  0.00  0.00    -0.230 N 
ATOM     24  C   UNL     1      34.945 -15.486 -24.195  0.00  0.00    +0.086 C 
ATOM     25  C   UNL     1      35.241 -16.049 -22.800  0.00  0.00    +0.086 C 
ATOM     26  C   UNL     1      35.034 -16.473 -25.351  0.00  0.00    +0.010 C 
ATOM     27  C   UNL     1      34.747 -17.481 -22.570  0.00  0.00    +0.010 C 
ATOM     28  C   UNL     1      34.438 -17.837 -25.029  0.00  0.00    +0.001 C 
ATOM     29  C   UNL     1      35.035 -18.401 -23.747  0.00  0.00    +0.001 C 
ATOM     30  C   UNL     1      33.592 -14.827 -24.025  0.00  0.00    +0.231 C 
ATOM     31  C   UNL     1      34.453 -15.120 -21.903  0.00  0.00    +0.231 C 
ENDBRANCH  20  23
ENDBRANCH  19  20
ENDBRANCH  18  19
ENDBRANCH  17  18
ENDBRANCH   2  17
TORSDOF 5
ENDMDL
MODEL 5
REMARK VINA RESULT:     -12.1      4.288     10.908
REMARK  Name = 115368
REMARK  5 active torsions:
REMARK  status: ('A' for Active; 'I' for Inactive)
REMARK    1  A    between atoms: N_2  and  C_17
REMARK    2  A    between atoms: C_17  and  C_18
REMARK    3  A    between atoms: C_18  and  C_19
REMARK    4  A    between atoms: C_19  and  C_20
REMARK    5  A    between atoms: C_20  and  N_23
REMARK                            x       y       z     vdW  Elec       q    Type
REMARK                         _______ _______ _______ _____ _____    ______ ____
ROOT
ATOM      1  S   UNL     1      33.814 -13.242 -24.802  0.00  0.00    +0.014 S 
ATOM      2  N   UNL     1      35.309 -19.227 -22.402  0.00  0.00    +0.389 N 
ATOM      3  N   UNL     1      34.693 -16.564 -23.237  0.00  0.00    -0.297 N 
ATOM      4  N   UNL     1      34.503 -14.748 -24.772  0.00  0.00    -0.194 NA
ATOM      5  C   UNL     1      35.271 -18.128 -21.429  0.00  0.00    -0.055 C 
ATOM      6  C   UNL     1      34.340 -18.984 -23.479  0.00  0.00    -0.055 C 
ATOM      7  C   UNL     1      35.586 -16.785 -22.094  0.00  0.00    +0.069 C 
ATOM      8  C   UNL     1      34.651 -17.671 -24.199  0.00  0.00    +0.069 C 
ATOM      9  C   UNL     1      34.257 -15.305 -23.585  0.00  0.00    +0.140 A 
ATOM     10  C   UNL     1      33.497 -14.527 -22.643  0.00  0.00    +0.040 A 
ATOM     11  C   UNL     1      33.164 -13.295 -23.210  0.00  0.00    +0.050 A 
ATOM     12  C   UNL     1      33.065 -14.801 -21.327  0.00  0.00    +0.003 C 
ATOM     13  C   UNL     1      32.420 -12.329 -22.515  0.00  0.00    +0.008 C 
ATOM     14  C   UNL     1      32.323 -13.845 -20.626  0.00  0.00    +0.000 C 
ATOM     15  C   UNL     1      32.006 -12.625 -21.214  0.00  0.00    +0.001 C 
ATOM     16  H   UNL     1      36.244 -19.270 -22.809  0.00  0.00    -0.080 HD
ENDROOT
BRANCH   2  17
ATOM     17  C   UNL     1      35.038 -20.505 -21.745  0.00  0.00    -0.077 C 
BRANCH  17  18
ATOM     18  C   UNL     1      35.830 -20.612 -20.442  0.00  0.00    -0.021 C 
BRANCH  18  19
ATOM     19  C   UNL     1      35.566 -21.949 -19.743  0.00  0.00    +0.020 C 
BRANCH  19  20
ATOM     20  C   UNL     1      35.754 -21.867 -18.231  0.00  0.00    +0.101 C 
BRANCH  20  23
ATOM     21  O   UNL     1      32.823 -22.043 -18.602  0.00  0.00    -0.274 OA
ATOM     22  O   UNL     1      36.271 -23.711 -16.011  0.00  0.00    -0.274 OA
ATOM     23  N   UNL     1      34.796 -22.682 -17.510  0.00  0.00    -0.230 N 
ATOM     24  C   UNL     1      32.866 -23.848 -16.970  0.00  0.00    +0.086 C 
ATOM     25  C   UNL     1      33.869 -23.992 -15.820  0.00  0.00    +0.086 C 
ATOM     26  C   UNL     1      31.407 -23.662 -16.570  0.00  0.00    +0.010 C 
ATOM     27  C   UNL     1      33.558 -23.136 -14.588  0.00  0.00    +0.010 C 
ATOM     28  C   UNL     1      31.220 -22.726 -15.383  0.00  0.00    +0.001 C 
ATOM     29  C   UNL     1      32.085 -23.160 -14.208  0.00  0.00    +0.001 C 
ATOM     30  C   UNL     1      33.445 -22.721 -17.798  0.00  0.00    +0.231 C 
ATOM     31  C   UNL     1      35.150 -23.487 -16.444  0.00  0.00    +0.231 C 
ENDBRANCH  20  23
ENDBRANCH  19  20
ENDBRANCH  18  19
ENDBRANCH  17  18
ENDBRANCH   2  17
TORSDOF 5
ENDMDL
MODEL 6
REMARK VINA RESULT:     -12.1      7.315     11.029
REMARK  Name = 115368
REMARK  5 active torsions:
REMARK  status: ('A' for Active; 'I' for Inactive)
REMARK    1  A    between atoms: N_2  and  C_17
REMARK    2  A    between atoms: C_17  and  C_18
REMARK    3  A    between atoms: C_18  and  C_19
REMARK    4  A    between atoms: C_19  and  C_20
REMARK    5  A    between atoms: C_20  and  N_23
REMARK                            x       y       z     vdW  Elec       q    Type
REMARK                         _______ _______ _______ _____ _____    ______ ____
ROOT
ATOM      1  S   UNL     1      36.076 -18.762 -21.075  0.00  0.00    +0.014 S 
ATOM      2  N   UNL     1      33.043 -13.003 -22.276  0.00  0.00    +0.389 N 
ATOM      3  N   UNL     1      34.422 -15.486 -21.964  0.00  0.00    -0.297 N 
ATOM      4  N   UNL     1      35.558 -17.217 -20.779  0.00  0.00    -0.194 NA
ATOM      5  C   UNL     1      33.733 -13.623 -23.414  0.00  0.00    -0.055 C 
ATOM      6  C   UNL     1      32.527 -14.038 -21.371  0.00  0.00    -0.055 C 
ATOM      7  C   UNL     1      34.895 -14.504 -22.946  0.00  0.00    +0.069 C 
ATOM      8  C   UNL     1      33.666 -14.912 -20.845  0.00  0.00    +0.069 C 
ATOM      9  C   UNL     1      34.966 -16.749 -21.879  0.00  0.00    +0.140 A 
ATOM     10  C   UNL     1      34.909 -17.629 -23.016  0.00  0.00    +0.040 A 
ATOM     11  C   UNL     1      35.517 -18.845 -22.700  0.00  0.00    +0.050 A 
ATOM     12  C   UNL     1      34.369 -17.462 -24.310  0.00  0.00    +0.003 C 
ATOM     13  C   UNL     1      35.608 -19.898 -23.624  0.00  0.00    +0.008 C 
ATOM     14  C   UNL     1      34.454 -18.504 -25.237  0.00  0.00    +0.000 C 
ATOM     15  C   UNL     1      35.066 -19.706 -24.897  0.00  0.00    +0.001 C 
ATOM     16  H   UNL     1      33.711 -12.426 -21.764  0.00  0.00    -0.080 HD
ENDROOT
BRANCH   2  17
ATOM     17  C   UNL     1      31.958 -12.139 -22.742  0.00  0.00    -0.077 C 
BRANCH  17  18
ATOM     18  C   UNL     1      31.507 -11.202 -21.622  0.00  0.00    -0.021 C 
BRANCH  18  19
ATOM     19  C   UNL     1      31.942  -9.760 -21.899  0.00  0.00    +0.020 C 
BRANCH  19  20
ATOM     20  C   UNL     1      32.631  -9.605 -23.251  0.00  0.00    +0.101 C 
BRANCH  20  23
ATOM     21  O   UNL     1      31.032  -7.140 -23.602  0.00  0.00    -0.274 OA
ATOM     22  O   UNL     1      35.396  -8.668 -23.533  0.00  0.00    -0.274 OA
ATOM     23  N   UNL     1      33.092  -8.250 -23.484  0.00  0.00    -0.230 N 
ATOM     24  C   UNL     1      33.147  -5.935 -23.603  0.00  0.00    +0.086 C 
ATOM     25  C   UNL     1      34.492  -6.487 -24.089  0.00  0.00    +0.086 C 
ATOM     26  C   UNL     1      32.589  -4.746 -24.376  0.00  0.00    +0.010 C 
ATOM     27  C   UNL     1      34.686  -6.454 -25.609  0.00  0.00    +0.010 C 
ATOM     28  C   UNL     1      32.770  -4.865 -25.883  0.00  0.00    +0.001 C 
ATOM     29  C   UNL     1      34.224  -5.146 -26.235  0.00  0.00    +0.001 C 
ATOM     30  C   UNL     1      32.253  -7.157 -23.589  0.00  0.00    +0.231 C 
ATOM     31  C   UNL     1      34.427  -7.931 -23.645  0.00  0.00    +0.231 C 
ENDBRANCH  20  23
ENDBRANCH  19  20
ENDBRANCH  18  19
ENDBRANCH  17  18
ENDBRANCH   2  17
TORSDOF 5
ENDMDL
MODEL 7
REMARK VINA RESULT:     -12.1      4.966      8.470
REMARK  Name = 115368
REMARK  5 active torsions:
REMARK  status: ('A' for Active; 'I' for Inactive)
REMARK    1  A    between atoms: N_2  and  C_17
REMARK    2  A    between atoms: C_17  and  C_18
REMARK    3  A    between atoms: C_18  and  C_19
REMARK    4  A    between atoms: C_19  and  C_20
REMARK    5  A    between atoms: C_20  and  N_23
REMARK                            x       y       z     vdW  Elec       q    Type
REMARK                         _______ _______ _______ _____ _____    ______ ____
ROOT
ATOM      1  S   UNL     1      37.192 -20.256 -20.237  0.00  0.00    +0.014 S 
ATOM      2  N   UNL     1      34.400 -16.420 -24.853  0.00  0.00    +0.389 N 
ATOM      3  N   UNL     1      35.462 -18.231 -22.914  0.00  0.00    -0.297 N 
ATOM      4  N   UNL     1      37.125 -19.164 -21.481  0.00  0.00    -0.194 NA
ATOM      5  C   UNL     1      33.792 -17.740 -24.652  0.00  0.00    -0.055 C 
ATOM      6  C   UNL     1      34.960 -15.921 -23.589  0.00  0.00    -0.055 C 
ATOM      7  C   UNL     1      34.816 -18.749 -24.125  0.00  0.00    +0.069 C 
ATOM      8  C   UNL     1      36.023 -16.882 -23.055  0.00  0.00    +0.069 C 
ATOM      9  C   UNL     1      35.859 -19.062 -21.890  0.00  0.00    +0.140 A 
ATOM     10  C   UNL     1      34.885 -19.872 -21.209  0.00  0.00    +0.040 A 
ATOM     11  C   UNL     1      35.512 -20.626 -20.215  0.00  0.00    +0.050 A 
ATOM     12  C   UNL     1      33.490 -20.010 -21.380  0.00  0.00    +0.003 C 
ATOM     13  C   UNL     1      34.802 -21.510 -19.388  0.00  0.00    +0.008 C 
ATOM     14  C   UNL     1      32.774 -20.888 -20.561  0.00  0.00    +0.000 C 
ATOM     15  C   UNL     1      33.423 -21.628 -19.579  0.00  0.00    +0.001 C 
ATOM     16  H   UNL     1      35.156 -16.508 -25.532  0.00  0.00    -0.080 HD
ENDROOT
BRANCH   2  17
ATOM     17  C   UNL     1      33.417 -15.477 -25.387  0.00  0.00    -0.077 C 
BRANCH  17  18
ATOM     18  C   UNL     1      34.120 -14.272 -26.011  0.00  0.00    -0.021 C 
BRANCH  18  19
ATOM     19  C   UNL     1      33.517 -12.958 -25.506  0.00  0.00    +0.020 C 
BRANCH  19  20
ATOM     20  C   UNL     1      34.099 -12.521 -24.166  0.00  0.00    +0.101 C 
BRANCH  20  23
ATOM     21  O   UNL     1      33.530  -9.662 -23.663  0.00  0.00    -0.274 OA
ATOM     22  O   UNL     1      32.181 -13.911 -22.436  0.00  0.00    -0.274 OA
ATOM     23  N   UNL     1      33.100 -11.935 -23.294  0.00  0.00    -0.230 N 
ATOM     24  C   UNL     1      31.628 -10.415 -22.344  0.00  0.00    +0.086 C 
ATOM     25  C   UNL     1      31.542 -11.736 -21.572  0.00  0.00    +0.086 C 
ATOM     26  C   UNL     1      31.570  -9.143 -21.508  0.00  0.00    +0.010 C 
ATOM     27  C   UNL     1      32.245 -11.729 -20.211  0.00  0.00    +0.010 C 
ATOM     28  C   UNL     1      32.373  -9.229 -20.217  0.00  0.00    +0.001 C 
ATOM     29  C   UNL     1      31.978 -10.461 -19.414  0.00  0.00    +0.001 C 
ATOM     30  C   UNL     1      32.889 -10.575 -23.168  0.00  0.00    +0.231 C 
ATOM     31  C   UNL     1      32.274 -12.693 -22.486  0.00  0.00    +0.231 C 
ENDBRANCH  20  23
ENDBRANCH  19  20
ENDBRANCH  18  19
ENDBRANCH  17  18
ENDBRANCH   2  17
TORSDOF 5
ENDMDL
MODEL 8
REMARK VINA RESULT:     -11.9      2.655      4.176
REMARK  Name = 115368
REMARK  5 active torsions:
REMARK  status: ('A' for Active; 'I' for Inactive)
REMARK    1  A    between atoms: N_2  and  C_17
REMARK    2  A    between atoms: C_17  and  C_18
REMARK    3  A    between atoms: C_18  and  C_19
REMARK    4  A    between atoms: C_19  and  C_20
REMARK    5  A    between atoms: C_20  and  N_23
REMARK                            x       y       z     vdW  Elec       q    Type
REMARK                         _______ _______ _______ _____ _____    ______ ____
ROOT
ATOM      1  S   UNL     1      35.284 -24.738 -14.680  0.00  0.00    +0.014 S 
ATOM      2  N   UNL     1      34.642 -21.244 -20.265  0.00  0.00    +0.389 N 
ATOM      3  N   UNL     1      34.709 -22.809 -17.874  0.00  0.00    -0.297 N 
ATOM      4  N   UNL     1      35.710 -24.135 -16.162  0.00  0.00    -0.194 NA
ATOM      5  C   UNL     1      33.428 -21.902 -19.767  0.00  0.00    -0.055 C 
ATOM      6  C   UNL     1      35.507 -20.860 -19.142  0.00  0.00    -0.055 C 
ATOM      7  C   UNL     1      33.768 -23.149 -18.946  0.00  0.00    +0.069 C 
ATOM      8  C   UNL     1      35.906 -22.088 -18.324  0.00  0.00    +0.069 C 
ATOM      9  C   UNL     1      34.680 -23.443 -16.652  0.00  0.00    +0.140 A 
ATOM     10  C   UNL     1      33.494 -23.375 -15.841  0.00  0.00    +0.040 A 
ATOM     11  C   UNL     1      33.693 -24.084 -14.655  0.00  0.00    +0.050 A 
ATOM     12  C   UNL     1      32.247 -22.743 -16.046  0.00  0.00    +0.003 C 
ATOM     13  C   UNL     1      32.699 -24.187 -13.670  0.00  0.00    +0.008 C 
ATOM     14  C   UNL     1      31.251 -22.840 -15.071  0.00  0.00    +0.000 C 
ATOM     15  C   UNL     1      31.476 -23.554 -13.899  0.00  0.00    +0.001 C 
ATOM     16  H   UNL     1      35.150 -21.902 -20.857  0.00  0.00    -0.080 HD
ENDROOT
BRANCH   2  17
ATOM     17  C   UNL     1      34.299 -20.075 -21.075  0.00  0.00    -0.077 C 
BRANCH  17  18
ATOM     18  C   UNL     1      35.567 -19.376 -21.562  0.00  0.00    -0.021 C 
BRANCH  18  19
ATOM     19  C   UNL     1      35.403 -18.874 -23.000  0.00  0.00    +0.020 C 
BRANCH  19  20
ATOM     20  C   UNL     1      35.985 -17.479 -23.204  0.00  0.00    +0.101 C 
BRANCH  20  23
ATOM     21  O   UNL     1      34.938 -16.806 -25.888  0.00  0.00    -0.274 OA
ATOM     22  O   UNL     1      34.514 -15.668 -21.426  0.00  0.00    -0.274 OA
ATOM     23  N   UNL     1      34.972 -16.506 -23.564  0.00  0.00    -0.230 N 
ATOM     24  C   UNL     1      33.330 -15.377 -24.750  0.00  0.00    +0.086 C 
ATOM     25  C   UNL     1      33.557 -14.660 -23.414  0.00  0.00    +0.086 C 
ATOM     26  C   UNL     1      33.107 -14.482 -25.964  0.00  0.00    +0.010 C 
ATOM     27  C   UNL     1      34.360 -13.359 -23.515  0.00  0.00    +0.010 C 
ATOM     28  C   UNL     1      34.019 -13.264 -25.993  0.00  0.00    +0.001 C 
ATOM     29  C   UNL     1      33.931 -12.488 -24.686  0.00  0.00    +0.001 C 
ATOM     30  C   UNL     1      34.523 -16.303 -24.856  0.00  0.00    +0.231 C 
ATOM     31  C   UNL     1      34.374 -15.670 -22.641  0.00  0.00    +0.231 C 
ENDBRANCH  20  23
ENDBRANCH  19  20
ENDBRANCH  18  19
ENDBRANCH  17  18
ENDBRANCH   2  17
TORSDOF 5
ENDMDL
MODEL 9
REMARK VINA RESULT:     -11.8      2.285      4.104
REMARK  Name = 115368
REMARK  5 active torsions:
REMARK  status: ('A' for Active; 'I' for Inactive)
REMARK    1  A    between atoms: N_2  and  C_17
REMARK    2  A    between atoms: C_17  and  C_18
REMARK    3  A    between atoms: C_18  and  C_19
REMARK    4  A    between atoms: C_19  and  C_20
REMARK    5  A    between atoms: C_20  and  N_23
REMARK                            x       y       z     vdW  Elec       q    Type
REMARK                         _______ _______ _______ _____ _____    ______ ____
ROOT
ATOM      1  S   UNL     1      32.345 -25.021 -13.839  0.00  0.00    +0.014 S 
ATOM      2  N   UNL     1      36.097 -22.132 -18.465  0.00  0.00    +0.389 N 
ATOM      3  N   UNL     1      34.322 -23.403 -16.619  0.00  0.00    -0.297 N 
ATOM      4  N   UNL     1      33.723 -24.670 -14.688  0.00  0.00    -0.194 NA
ATOM      5  C   UNL     1      34.742 -22.521 -18.876  0.00  0.00    -0.055 C 
ATOM      6  C   UNL     1      36.109 -21.768 -17.041  0.00  0.00    -0.055 C 
ATOM      7  C   UNL     1      34.229 -23.705 -18.051  0.00  0.00    +0.069 C 
ATOM      8  C   UNL     1      35.645 -22.944 -16.180  0.00  0.00    +0.069 C 
ATOM      9  C   UNL     1      33.400 -23.879 -15.714  0.00  0.00    +0.140 A 
ATOM     10  C   UNL     1      32.013 -23.526 -15.855  0.00  0.00    +0.040 A 
ATOM     11  C   UNL     1      31.270 -24.117 -14.831  0.00  0.00    +0.050 A 
ATOM     12  C   UNL     1      31.336 -22.726 -16.802  0.00  0.00    +0.003 C 
ATOM     13  C   UNL     1      29.882 -23.944 -14.719  0.00  0.00    +0.008 C 
ATOM     14  C   UNL     1      29.954 -22.547 -16.698  0.00  0.00    +0.000 C 
ATOM     15  C   UNL     1      29.237 -23.149 -15.669  0.00  0.00    +0.001 C 
ATOM     16  H   UNL     1      36.720 -22.928 -18.602  0.00  0.00    -0.080 HD
ENDROOT
BRANCH   2  17
ATOM     17  C   UNL     1      36.585 -21.023 -19.284  0.00  0.00    -0.077 C 
BRANCH  17  18
ATOM     18  C   UNL     1      35.750 -20.894 -20.556  0.00  0.00    -0.021 C 
BRANCH  18  19
ATOM     19  C   UNL     1      35.907 -19.505 -21.183  0.00  0.00    +0.020 C 
BRANCH  19  20
ATOM     20  C   UNL     1      34.605 -18.980 -21.778  0.00  0.00    +0.101 C 
BRANCH  20  23
ATOM     21  O   UNL     1      34.492 -16.054 -21.350  0.00  0.00    -0.274 OA
ATOM     22  O   UNL     1      35.231 -19.225 -24.633  0.00  0.00    -0.274 OA
ATOM     23  N   UNL     1      34.826 -17.914 -22.736  0.00  0.00    -0.230 N 
ATOM     24  C   UNL     1      35.290 -15.828 -23.637  0.00  0.00    +0.086 C 
ATOM     25  C   UNL     1      35.022 -16.813 -24.781  0.00  0.00    +0.086 C 
ATOM     26  C   UNL     1      34.719 -14.426 -23.810  0.00  0.00    +0.010 C 
ATOM     27  C   UNL     1      33.649 -16.665 -25.444  0.00  0.00    +0.010 C 
ATOM     28  C   UNL     1      33.317 -14.412 -24.403  0.00  0.00    +0.001 C 
ATOM     29  C   UNL     1      33.267 -15.214 -25.696  0.00  0.00    +0.001 C 
ATOM     30  C   UNL     1      34.792 -16.570 -22.415  0.00  0.00    +0.231 C 
ATOM     31  C   UNL     1      35.073 -18.149 -24.075  0.00  0.00    +0.231 C 
ENDBRANCH  20  23
ENDBRANCH  19  20
ENDBRANCH  18  19
ENDBRANCH  17  18
ENDBRANCH   2  17
TORSDOF 5
ENDMDL
