MODEL 1
REMARK VINA RESULT:     -13.7      0.000      0.000
REMARK  Name = 11633167
REMARK  7 active torsions:
REMARK  status: ('A' for Active; 'I' for Inactive)
REMARK    1  A    between atoms: C_1  and  C_8
REMARK    2  A    between atoms: C_2  and  C_25
REMARK    3  A    between atoms: C_4  and  O_17
REMARK    4  A    between atoms: O_17  and  C_18
REMARK    5  A    between atoms: C_18  and  C_20
REMARK    6  A    between atoms: C_25  and  N_26
REMARK    7  A    between atoms: N_26  and  C_29
REMARK                            x       y       z     vdW  Elec       q    Type
REMARK                         _______ _______ _______ _____ _____    ______ ____
ROOT
ATOM      1  C   UNL     1      35.334 -20.226 -20.727  0.00  0.00    -0.000 C 
ATOM      2  C   UNL     1      34.375 -21.801 -19.167  0.00  0.00    +0.031 C 
ATOM      3  C   UNL     1      34.222 -20.898 -20.220  0.00  0.00    +0.000 C 
ATOM      4  C   UNL     1      35.637 -22.030 -18.622  0.00  0.00    +0.137 C 
ATOM      5  C   UNL     1      36.597 -20.455 -20.182  0.00  0.00    +0.003 C 
ATOM      6  C   UNL     1      36.749 -21.358 -19.130  0.00  0.00    +0.037 C 
ENDROOT
BRANCH   1   8
ATOM      7  N   UNL     1      35.005 -15.670 -22.675  0.00  0.00    -0.312 N 
ATOM      8  C   UNL     1      35.177 -19.289 -21.819  0.00  0.00    +0.001 C 
ATOM      9  C   UNL     1      35.033 -17.046 -22.637  0.00  0.00    +0.048 C 
ATOM     10  C   UNL     1      34.872 -17.496 -23.949  0.00  0.00    +0.015 C 
ATOM     11  C   UNL     1      35.188 -17.917 -21.552  0.00  0.00    +0.015 C 
ATOM     12  C   UNL     1      35.019 -19.767 -23.117  0.00  0.00    +0.000 C 
ATOM     13  C   UNL     1      34.864 -18.884 -24.193  0.00  0.00    +0.001 C 
ATOM     14  C   UNL     1      34.748 -16.344 -24.774  0.00  0.00    +0.017 C 
ATOM     15  C   UNL     1      34.832 -15.236 -23.962  0.00  0.00    +0.062 C 
ATOM     16  H   UNL     1      35.095 -15.082 -21.890  0.00  0.00    +0.152 HD
ENDBRANCH   1   8
BRANCH   4  17
ATOM     17  O   UNL     1      35.804 -22.908 -17.594  0.00  0.00    -0.469 OA
BRANCH  17  18
ATOM     18  C   UNL     1      36.739 -22.548 -16.579  0.00  0.00    +0.251 C 
BRANCH  18  20
ATOM     19  N   UNL     1      36.131 -24.727 -15.716  0.00  0.00    -0.244 NA
ATOM     20  C   UNL     1      37.075 -23.765 -15.768  0.00  0.00    +0.103 C 
ATOM     21  C   UNL     1      38.301 -23.834 -15.137  0.00  0.00    +0.018 C 
ATOM     22  C   UNL     1      38.581 -24.975 -14.394  0.00  0.00    +0.003 C 
ATOM     23  C   UNL     1      36.438 -25.821 -14.984  0.00  0.00    +0.099 C 
ATOM     24  C   UNL     1      37.637 -25.993 -14.311  0.00  0.00    +0.021 C 
ENDBRANCH  18  20
ENDBRANCH  17  18
ENDBRANCH   4  17
BRANCH   2  25
ATOM     25  C   UNL     1      33.175 -22.513 -18.637  0.00  0.00    +0.117 C 
BRANCH  25  26
ATOM     26  N   UNL     1      33.354 -22.947 -17.251  0.00  0.00    -0.327 N 
ATOM     27  H   UNL     1      34.260 -23.176 -16.943  0.00  0.00    +0.147 HD
BRANCH  26  29
ATOM     28  N   UNL     1      31.501 -23.304 -14.063  0.00  0.00    -0.228 NA
ATOM     29  C   UNL     1      32.314 -23.050 -16.356  0.00  0.00    +0.077 C 
ATOM     30  C   UNL     1      32.496 -23.198 -14.973  0.00  0.00    +0.139 C 
ATOM     31  C   UNL     1      30.978 -23.012 -16.794  0.00  0.00    +0.019 C 
ATOM     32  C   UNL     1      29.926 -23.117 -15.889  0.00  0.00    +0.022 C 
ATOM     33  C   UNL     1      30.240 -23.260 -14.546  0.00  0.00    +0.100 C 
ATOM     34  N   UNL     1      33.831 -23.241 -14.497  0.00  0.00    -0.342 N 
ATOM     35  H   UNL     1      34.006 -23.343 -13.533  0.00  0.00    +0.144 HD
ATOM     36  H   UNL     1      34.582 -23.168 -15.129  0.00  0.00    +0.144 HD
ENDBRANCH  26  29
ENDBRANCH  25  26
ENDBRANCH   2  25
TORSDOF 7
ENDMDL
MODEL 2
REMARK VINA RESULT:     -13.5      1.078      4.246
REMARK  Name = 11633167
REMARK  7 active torsions:
REMARK  status: ('A' for Active; 'I' for Inactive)
REMARK    1  A    between atoms: C_1  and  C_8
REMARK    2  A    between atoms: C_2  and  C_25
REMARK    3  A    between atoms: C_4  and  O_17
REMARK    4  A    between atoms: O_17  and  C_18
REMARK    5  A    between atoms: C_18  and  C_20
REMARK    6  A    between atoms: C_25  and  N_26
REMARK    7  A    between atoms: N_26  and  C_29
REMARK                            x       y       z     vdW  Elec       q    Type
REMARK                         _______ _______ _______ _____ _____    ______ ____
ROOT
ATOM      1  C   UNL     1      34.718 -20.268 -20.728  0.00  0.00    -0.000 C 
ATOM      2  C   UNL     1      35.770 -21.607 -19.016  0.00  0.00    +0.031 C 
ATOM      3  C   UNL     1      35.868 -20.687 -20.060  0.00  0.00    +0.000 C 
ATOM      4  C   UNL     1      34.524 -22.107 -18.641  0.00  0.00    +0.137 C 
ATOM      5  C   UNL     1      33.471 -20.767 -20.354  0.00  0.00    +0.003 C 
ATOM      6  C   UNL     1      33.374 -21.687 -19.309  0.00  0.00    +0.037 C 
ENDROOT
BRANCH   1   8
ATOM      7  N   UNL     1      34.960 -15.682 -22.618  0.00  0.00    -0.312 N 
ATOM      8  C   UNL     1      34.818 -19.314 -21.812  0.00  0.00    +0.001 C 
ATOM      9  C   UNL     1      34.927 -17.058 -22.600  0.00  0.00    +0.048 C 
ATOM     10  C   UNL     1      35.014 -17.488 -23.927  0.00  0.00    +0.015 C 
ATOM     11  C   UNL     1      34.828 -17.946 -21.524  0.00  0.00    +0.015 C 
ATOM     12  C   UNL     1      34.904 -19.771 -23.125  0.00  0.00    +0.000 C 
ATOM     13  C   UNL     1      35.002 -18.872 -24.193  0.00  0.00    +0.001 C 
ATOM     14  C   UNL     1      35.102 -16.323 -24.739  0.00  0.00    +0.017 C 
ATOM     15  C   UNL     1      35.065 -15.228 -23.906  0.00  0.00    +0.062 C 
ATOM     16  H   UNL     1      34.914 -15.107 -21.820  0.00  0.00    +0.152 HD
ENDBRANCH   1   8
BRANCH   4  17
ATOM     17  O   UNL     1      34.410 -23.005 -17.624  0.00  0.00    -0.469 OA
BRANCH  17  18
ATOM     18  C   UNL     1      33.293 -23.890 -17.662  0.00  0.00    +0.251 C 
BRANCH  18  20
ATOM     19  N   UNL     1      32.950 -24.197 -15.285  0.00  0.00    -0.244 NA
ATOM     20  C   UNL     1      32.460 -23.682 -16.431  0.00  0.00    +0.103 C 
ATOM     21  C   UNL     1      31.269 -22.991 -16.535  0.00  0.00    +0.018 C 
ATOM     22  C   UNL     1      30.522 -22.815 -15.376  0.00  0.00    +0.003 C 
ATOM     23  C   UNL     1      32.196 -24.007 -14.179  0.00  0.00    +0.099 C 
ATOM     24  C   UNL     1      30.987 -23.329 -14.170  0.00  0.00    +0.021 C 
ENDBRANCH  18  20
ENDBRANCH  17  18
ENDBRANCH   4  17
BRANCH   2  25
ATOM     25  C   UNL     1      37.011 -22.045 -18.311  0.00  0.00    +0.117 C 
BRANCH  25  26
ATOM     26  N   UNL     1      36.937 -21.822 -16.866  0.00  0.00    -0.327 N 
ATOM     27  H   UNL     1      36.622 -20.948 -16.541  0.00  0.00    +0.147 HD
BRANCH  26  29
ATOM     28  N   UNL     1      36.785 -24.072 -13.928  0.00  0.00    -0.228 NA
ATOM     29  C   UNL     1      37.289 -22.777 -15.940  0.00  0.00    +0.077 C 
ATOM     30  C   UNL     1      36.474 -23.141 -14.857  0.00  0.00    +0.139 C 
ATOM     31  C   UNL     1      38.517 -23.457 -16.034  0.00  0.00    +0.019 C 
ATOM     32  C   UNL     1      38.871 -24.422 -15.097  0.00  0.00    +0.022 C 
ATOM     33  C   UNL     1      37.978 -24.690 -14.073  0.00  0.00    +0.100 C 
ATOM     34  N   UNL     1      35.229 -22.474 -14.732  0.00  0.00    -0.342 N 
ATOM     35  H   UNL     1      34.625 -22.697 -13.987  0.00  0.00    +0.144 HD
ATOM     36  H   UNL     1      34.968 -21.789 -15.390  0.00  0.00    +0.144 HD
ENDBRANCH  26  29
ENDBRANCH  25  26
ENDBRANCH   2  25
TORSDOF 7
ENDMDL
MODEL 3
REMARK VINA RESULT:     -13.4      1.645      5.011
REMARK  Name = 11633167
REMARK  7 active torsions:
REMARK  status: ('A' for Active; 'I' for Inactive)
REMARK    1  A    between atoms: C_1  and  C_8
REMARK    2  A    between atoms: C_2  and  C_25
REMARK    3  A    between atoms: C_4  and  O_17
REMARK    4  A    between atoms: O_17  and  C_18
REMARK    5  A    between atoms: C_18  and  C_20
REMARK    6  A    between atoms: C_25  and  N_26
REMARK    7  A    between atoms: N_26  and  C_29
REMARK                            x       y       z     vdW  Elec       q    Type
REMARK                         _______ _______ _______ _____ _____    ______ ____
ROOT
ATOM      1  C   UNL     1      35.240 -21.576 -19.080  0.00  0.00    -0.000 C 
ATOM      2  C   UNL     1      35.852 -22.588 -16.975  0.00  0.00    +0.031 C 
ATOM      3  C   UNL     1      36.150 -21.732 -18.036  0.00  0.00    +0.000 C 
ATOM      4  C   UNL     1      34.646 -23.286 -16.960  0.00  0.00    +0.137 C 
ATOM      5  C   UNL     1      34.033 -22.273 -19.066  0.00  0.00    +0.003 C 
ATOM      6  C   UNL     1      33.735 -23.128 -18.005  0.00  0.00    +0.037 C 
ENDROOT
BRANCH   1   8
ATOM      7  N   UNL     1      34.170 -19.142 -23.275  0.00  0.00    -0.312 N 
ATOM      8  C   UNL     1      35.549 -20.688 -20.182  0.00  0.00    +0.001 C 
ATOM      9  C   UNL     1      34.914 -19.569 -22.199  0.00  0.00    +0.048 C 
ATOM     10  C   UNL     1      36.170 -18.966 -22.302  0.00  0.00    +0.015 C 
ATOM     11  C   UNL     1      34.574 -20.433 -21.151  0.00  0.00    +0.015 C 
ATOM     12  C   UNL     1      36.809 -20.101 -20.259  0.00  0.00    +0.000 C 
ATOM     13  C   UNL     1      37.136 -19.239 -21.312  0.00  0.00    +0.001 C 
ATOM     14  C   UNL     1      36.153 -18.163 -23.476  0.00  0.00    +0.017 C 
ATOM     15  C   UNL     1      34.911 -18.292 -24.054  0.00  0.00    +0.062 C 
ATOM     16  H   UNL     1      33.241 -19.409 -23.460  0.00  0.00    +0.152 HD
ENDBRANCH   1   8
BRANCH   4  17
ATOM     17  O   UNL     1      34.338 -24.126 -15.933  0.00  0.00    -0.469 OA
BRANCH  17  18
ATOM     18  C   UNL     1      33.679 -23.556 -14.804  0.00  0.00    +0.251 C 
BRANCH  18  20
ATOM     19  N   UNL     1      31.862 -25.127 -14.499  0.00  0.00    -0.244 NA
ATOM     20  C   UNL     1      32.216 -23.881 -14.875  0.00  0.00    +0.103 C 
ATOM     21  C   UNL     1      31.333 -22.913 -15.310  0.00  0.00    +0.018 C 
ATOM     22  C   UNL     1      29.985 -23.247 -15.364  0.00  0.00    +0.003 C 
ATOM     23  C   UNL     1      30.544 -25.416 -14.565  0.00  0.00    +0.099 C 
ATOM     24  C   UNL     1      29.574 -24.520 -14.986  0.00  0.00    +0.021 C 
ENDBRANCH  18  20
ENDBRANCH  17  18
ENDBRANCH   4  17
BRANCH   2  25
ATOM     25  C   UNL     1      36.837 -22.745 -15.865  0.00  0.00    +0.117 C 
BRANCH  25  26
ATOM     26  N   UNL     1      37.328 -24.118 -15.746  0.00  0.00    -0.327 N 
ATOM     27  H   UNL     1      37.591 -24.596 -16.566  0.00  0.00    +0.147 HD
BRANCH  26  29
ATOM     28  N   UNL     1      36.934 -26.699 -13.118  0.00  0.00    -0.228 NA
ATOM     29  C   UNL     1      37.438 -24.775 -14.543  0.00  0.00    +0.077 C 
ATOM     30  C   UNL     1      36.849 -26.023 -14.286  0.00  0.00    +0.139 C 
ATOM     31  C   UNL     1      38.167 -24.215 -13.478  0.00  0.00    +0.019 C 
ATOM     32  C   UNL     1      38.277 -24.880 -12.261  0.00  0.00    +0.022 C 
ATOM     33  C   UNL     1      37.648 -26.108 -12.134  0.00  0.00    +0.100 C 
ATOM     34  N   UNL     1      36.106 -26.616 -15.338  0.00  0.00    -0.342 N 
ATOM     35  H   UNL     1      35.676 -27.491 -15.203  0.00  0.00    +0.144 HD
ATOM     36  H   UNL     1      36.021 -26.154 -16.203  0.00  0.00    +0.144 HD
ENDBRANCH  26  29
ENDBRANCH  25  26
ENDBRANCH   2  25
TORSDOF 7
ENDMDL
MODEL 4
REMARK VINA RESULT:     -13.1      1.663      2.243
REMARK  Name = 11633167
REMARK  7 active torsions:
REMARK  status: ('A' for Active; 'I' for Inactive)
REMARK    1  A    between atoms: C_1  and  C_8
REMARK    2  A    between atoms: C_2  and  C_25
REMARK    3  A    between atoms: C_4  and  O_17
REMARK    4  A    between atoms: O_17  and  C_18
REMARK    5  A    between atoms: C_18  and  C_20
REMARK    6  A    between atoms: C_25  and  N_26
REMARK    7  A    between atoms: N_26  and  C_29
REMARK                            x       y       z     vdW  Elec       q    Type
REMARK                         _______ _______ _______ _____ _____    ______ ____
ROOT
ATOM      1  C   UNL     1      35.794 -21.201 -19.337  0.00  0.00    -0.000 C 
ATOM      2  C   UNL     1      34.587 -22.755 -17.938  0.00  0.00    +0.031 C 
ATOM      3  C   UNL     1      34.640 -21.934 -19.064  0.00  0.00    +0.000 C 
ATOM      4  C   UNL     1      35.688 -22.843 -17.086  0.00  0.00    +0.137 C 
ATOM      5  C   UNL     1      36.895 -21.288 -18.487  0.00  0.00    +0.003 C 
ATOM      6  C   UNL     1      36.843 -22.110 -17.361  0.00  0.00    +0.037 C 
ENDROOT
BRANCH   1   8
ATOM      7  N   UNL     1      33.977 -19.282 -23.542  0.00  0.00    -0.312 N 
ATOM      8  C   UNL     1      35.850 -20.348 -20.506  0.00  0.00    +0.001 C 
ATOM      9  C   UNL     1      34.867 -19.497 -22.514  0.00  0.00    +0.048 C 
ATOM     10  C   UNL     1      35.980 -18.689 -22.759  0.00  0.00    +0.015 C 
ATOM     11  C   UNL     1      34.773 -20.336 -21.398  0.00  0.00    +0.015 C 
ATOM     12  C   UNL     1      36.972 -19.553 -20.724  0.00  0.00    +0.000 C 
ATOM     13  C   UNL     1      37.053 -18.719 -21.846  0.00  0.00    +0.001 C 
ATOM     14  C   UNL     1      35.726 -17.982 -23.967  0.00  0.00    +0.017 C 
ATOM     15  C   UNL     1      34.487 -18.368 -24.426  0.00  0.00    +0.062 C 
ATOM     16  H   UNL     1      33.100 -19.721 -23.630  0.00  0.00    +0.152 HD
ENDBRANCH   1   8
BRANCH   4  17
ATOM     17  O   UNL     1      35.654 -23.640 -15.982  0.00  0.00    -0.469 OA
BRANCH  17  18
ATOM     18  C   UNL     1      36.838 -24.371 -15.673  0.00  0.00    +0.251 C 
BRANCH  18  20
ATOM     19  N   UNL     1      36.702 -23.180 -13.569  0.00  0.00    -0.244 NA
ATOM     20  C   UNL     1      37.075 -24.316 -14.192  0.00  0.00    +0.103 C 
ATOM     21  C   UNL     1      37.647 -25.405 -13.563  0.00  0.00    +0.018 C 
ATOM     22  C   UNL     1      37.853 -25.322 -12.191  0.00  0.00    +0.003 C 
ATOM     23  C   UNL     1      36.918 -23.136 -12.236  0.00  0.00    +0.099 C 
ATOM     24  C   UNL     1      37.483 -24.170 -11.506  0.00  0.00    +0.021 C 
ENDBRANCH  18  20
ENDBRANCH  17  18
ENDBRANCH   4  17
BRANCH   2  25
ATOM     25  C   UNL     1      33.344 -23.533 -17.659  0.00  0.00    +0.117 C 
BRANCH  25  26
ATOM     26  N   UNL     1      32.542 -22.935 -16.592  0.00  0.00    -0.327 N 
ATOM     27  H   UNL     1      32.459 -21.954 -16.559  0.00  0.00    +0.147 HD
BRANCH  26  29
ATOM     28  N   UNL     1      31.799 -24.597 -13.366  0.00  0.00    -0.228 NA
ATOM     29  C   UNL     1      31.897 -23.678 -15.630  0.00  0.00    +0.077 C 
ATOM     30  C   UNL     1      32.402 -23.874 -14.336  0.00  0.00    +0.139 C 
ATOM     31  C   UNL     1      30.663 -24.297 -15.903  0.00  0.00    +0.019 C 
ATOM     32  C   UNL     1      30.011 -25.048 -14.930  0.00  0.00    +0.022 C 
ATOM     33  C   UNL     1      30.617 -25.166 -13.689  0.00  0.00    +0.100 C 
ATOM     34  N   UNL     1      33.645 -23.265 -14.028  0.00  0.00    -0.342 N 
ATOM     35  H   UNL     1      34.038 -23.376 -13.132  0.00  0.00    +0.144 HD
ATOM     36  H   UNL     1      34.115 -22.731 -14.710  0.00  0.00    +0.144 HD
ENDBRANCH  26  29
ENDBRANCH  25  26
ENDBRANCH   2  25
TORSDOF 7
ENDMDL
MODEL 5
REMARK VINA RESULT:     -12.8      2.013      5.730
REMARK  Name = 11633167
REMARK  7 active torsions:
REMARK  status: ('A' for Active; 'I' for Inactive)
REMARK    1  A    between atoms: C_1  and  C_8
REMARK    2  A    between atoms: C_2  and  C_25
REMARK    3  A    between atoms: C_4  and  O_17
REMARK    4  A    between atoms: O_17  and  C_18
REMARK    5  A    between atoms: C_18  and  C_20
REMARK    6  A    between atoms: C_25  and  N_26
REMARK    7  A    between atoms: N_26  and  C_29
REMARK                            x       y       z     vdW  Elec       q    Type
REMARK                         _______ _______ _______ _____ _____    ______ ____
ROOT
ATOM      1  C   UNL     1      34.776 -21.952 -18.561  0.00  0.00    -0.000 C 
ATOM      2  C   UNL     1      35.390 -22.937 -16.443  0.00  0.00    +0.031 C 
ATOM      3  C   UNL     1      35.689 -22.098 -17.517  0.00  0.00    +0.000 C 
ATOM      4  C   UNL     1      34.180 -23.629 -16.415  0.00  0.00    +0.137 C 
ATOM      5  C   UNL     1      33.566 -22.643 -18.533  0.00  0.00    +0.003 C 
ATOM      6  C   UNL     1      33.266 -23.481 -17.459  0.00  0.00    +0.037 C 
ENDROOT
BRANCH   1   8
ATOM      7  N   UNL     1      37.821 -19.175 -21.333  0.00  0.00    -0.312 N 
ATOM      8  C   UNL     1      35.086 -21.081 -19.676  0.00  0.00    +0.001 C 
ATOM      9  C   UNL     1      36.650 -19.775 -20.929  0.00  0.00    +0.048 C 
ATOM     10  C   UNL     1      35.660 -19.400 -21.841  0.00  0.00    +0.015 C 
ATOM     11  C   UNL     1      36.393 -20.614 -19.838  0.00  0.00    +0.015 C 
ATOM     12  C   UNL     1      34.079 -20.724 -20.569  0.00  0.00    +0.000 C 
ATOM     13  C   UNL     1      34.349 -19.884 -21.656  0.00  0.00    +0.001 C 
ATOM     14  C   UNL     1      36.278 -18.556 -22.804  0.00  0.00    +0.017 C 
ATOM     15  C   UNL     1      37.606 -18.435 -22.465  0.00  0.00    +0.062 C 
ATOM     16  H   UNL     1      38.687 -19.264 -20.874  0.00  0.00    +0.152 HD
ENDBRANCH   1   8
BRANCH   4  17
ATOM     17  O   UNL     1      33.871 -24.452 -15.374  0.00  0.00    -0.469 OA
BRANCH  17  18
ATOM     18  C   UNL     1      33.047 -23.913 -14.343  0.00  0.00    +0.251 C 
BRANCH  18  20
ATOM     19  N   UNL     1      31.177 -25.425 -14.622  0.00  0.00    -0.244 NA
ATOM     20  C   UNL     1      31.607 -24.149 -14.693  0.00  0.00    +0.103 C 
ATOM     21  C   UNL     1      30.820 -23.074 -15.057  0.00  0.00    +0.018 C 
ATOM     22  C   UNL     1      29.491 -23.327 -15.375  0.00  0.00    +0.003 C 
ATOM     23  C   UNL     1      29.879 -25.632 -14.938  0.00  0.00    +0.099 C 
ATOM     24  C   UNL     1      29.003 -24.627 -15.317  0.00  0.00    +0.021 C 
ENDBRANCH  18  20
ENDBRANCH  17  18
ENDBRANCH   4  17
BRANCH   2  25
ATOM     25  C   UNL     1      36.378 -23.083 -15.334  0.00  0.00    +0.117 C 
BRANCH  25  26
ATOM     26  N   UNL     1      36.649 -24.484 -15.012  0.00  0.00    -0.327 N 
ATOM     27  H   UNL     1      35.889 -25.077 -14.812  0.00  0.00    +0.147 HD
BRANCH  26  29
ATOM     28  N   UNL     1      39.425 -26.892 -14.546  0.00  0.00    -0.228 NA
ATOM     29  C   UNL     1      37.918 -25.014 -14.976  0.00  0.00    +0.077 C 
ATOM     30  C   UNL     1      38.194 -26.336 -14.594  0.00  0.00    +0.139 C 
ATOM     31  C   UNL     1      39.036 -24.236 -15.329  0.00  0.00    +0.019 C 
ATOM     32  C   UNL     1      40.319 -24.772 -15.292  0.00  0.00    +0.022 C 
ATOM     33  C   UNL     1      40.458 -26.094 -14.897  0.00  0.00    +0.100 C 
ATOM     34  N   UNL     1      37.090 -27.148 -14.231  0.00  0.00    -0.342 N 
ATOM     35  H   UNL     1      37.236 -28.082 -13.957  0.00  0.00    +0.144 HD
ATOM     36  H   UNL     1      36.177 -26.778 -14.254  0.00  0.00    +0.144 HD
ENDBRANCH  26  29
ENDBRANCH  25  26
ENDBRANCH   2  25
TORSDOF 7
ENDMDL
MODEL 6
REMARK VINA RESULT:     -12.2      3.208     10.884
REMARK  Name = 11633167
REMARK  7 active torsions:
REMARK  status: ('A' for Active; 'I' for Inactive)
REMARK    1  A    between atoms: C_1  and  C_8
REMARK    2  A    between atoms: C_2  and  C_25
REMARK    3  A    between atoms: C_4  and  O_17
REMARK    4  A    between atoms: O_17  and  C_18
REMARK    5  A    between atoms: C_18  and  C_20
REMARK    6  A    between atoms: C_25  and  N_26
REMARK    7  A    between atoms: N_26  and  C_29
REMARK                            x       y       z     vdW  Elec       q    Type
REMARK                         _______ _______ _______ _____ _____    ______ ____
ROOT
ATOM      1  C   UNL     1      34.933 -19.326 -21.670  0.00  0.00    -0.000 C 
ATOM      2  C   UNL     1      34.868 -17.018 -22.376  0.00  0.00    +0.031 C 
ATOM      3  C   UNL     1      34.845 -17.970 -21.357  0.00  0.00    +0.000 C 
ATOM      4  C   UNL     1      34.978 -17.422 -23.706  0.00  0.00    +0.137 C 
ATOM      5  C   UNL     1      35.043 -19.731 -22.999  0.00  0.00    +0.003 C 
ATOM      6  C   UNL     1      35.067 -18.778 -24.018  0.00  0.00    +0.037 C 
ENDROOT
BRANCH   1   8
ATOM      7  N   UNL     1      32.668 -22.423 -18.516  0.00  0.00    -0.312 N 
ATOM      8  C   UNL     1      34.910 -20.315 -20.613  0.00  0.00    +0.001 C 
ATOM      9  C   UNL     1      33.704 -21.768 -19.144  0.00  0.00    +0.048 C 
ATOM     10  C   UNL     1      34.890 -22.228 -18.567  0.00  0.00    +0.015 C 
ATOM     11  C   UNL     1      33.682 -20.813 -20.167  0.00  0.00    +0.015 C 
ATOM     12  C   UNL     1      36.108 -20.756 -20.057  0.00  0.00    +0.000 C 
ATOM     13  C   UNL     1      36.115 -21.711 -19.033  0.00  0.00    +0.001 C 
ATOM     14  C   UNL     1      34.530 -23.182 -17.575  0.00  0.00    +0.017 C 
ATOM     15  C   UNL     1      33.157 -23.280 -17.566  0.00  0.00    +0.062 C 
ATOM     16  H   UNL     1      31.714 -22.295 -18.721  0.00  0.00    +0.152 HD
ENDBRANCH   1   8
BRANCH   4  17
ATOM     17  O   UNL     1      35.001 -16.506 -24.714  0.00  0.00    -0.469 OA
BRANCH  17  18
ATOM     18  C   UNL     1      34.086 -16.701 -25.789  0.00  0.00    +0.251 C 
BRANCH  18  20
ATOM     19  N   UNL     1      34.598 -14.630 -26.934  0.00  0.00    -0.244 NA
ATOM     20  C   UNL     1      33.653 -15.363 -26.312  0.00  0.00    +0.103 C 
ATOM     21  C   UNL     1      32.342 -14.964 -26.135  0.00  0.00    +0.018 C 
ATOM     22  C   UNL     1      31.974 -13.719 -26.631  0.00  0.00    +0.003 C 
ATOM     23  C   UNL     1      34.203 -13.426 -27.404  0.00  0.00    +0.099 C 
ATOM     24  C   UNL     1      32.916 -12.929 -27.280  0.00  0.00    +0.021 C 
ENDBRANCH  18  20
ENDBRANCH  17  18
ENDBRANCH   4  17
BRANCH   2  25
ATOM     25  C   UNL     1      34.773 -15.570 -22.025  0.00  0.00    +0.117 C 
BRANCH  25  26
ATOM     26  N   UNL     1      33.811 -14.856 -22.865  0.00  0.00    -0.327 N 
ATOM     27  H   UNL     1      33.577 -15.239 -23.741  0.00  0.00    +0.147 HD
BRANCH  26  29
ATOM     28  N   UNL     1      32.867 -11.275 -22.809  0.00  0.00    -0.228 NA
ATOM     29  C   UNL     1      33.216 -13.674 -22.488  0.00  0.00    +0.077 C 
ATOM     30  C   UNL     1      33.431 -12.456 -23.149  0.00  0.00    +0.139 C 
ATOM     31  C   UNL     1      32.339 -13.625 -21.390  0.00  0.00    +0.019 C 
ATOM     32  C   UNL     1      31.738 -12.429 -21.009  0.00  0.00    +0.022 C 
ATOM     33  C   UNL     1      32.033 -11.293 -21.745  0.00  0.00    +0.100 C 
ATOM     34  N   UNL     1      34.311 -12.469 -24.261  0.00  0.00    -0.342 N 
ATOM     35  H   UNL     1      34.491 -11.637 -24.755  0.00  0.00    +0.144 HD
ATOM     36  H   UNL     1      34.741 -13.310 -24.539  0.00  0.00    +0.144 HD
ENDBRANCH  26  29
ENDBRANCH  25  26
ENDBRANCH   2  25
TORSDOF 7
ENDMDL
MODEL 7
REMARK VINA RESULT:     -12.2      6.884     13.768
REMARK  Name = 11633167
REMARK  7 active torsions:
REMARK  status: ('A' for Active; 'I' for Inactive)
REMARK    1  A    between atoms: C_1  and  C_8
REMARK    2  A    between atoms: C_2  and  C_25
REMARK    3  A    between atoms: C_4  and  O_17
REMARK    4  A    between atoms: O_17  and  C_18
REMARK    5  A    between atoms: C_18  and  C_20
REMARK    6  A    between atoms: C_25  and  N_26
REMARK    7  A    between atoms: N_26  and  C_29
REMARK                            x       y       z     vdW  Elec       q    Type
REMARK                         _______ _______ _______ _____ _____    ______ ____
ROOT
ATOM      1  C   UNL     1      33.408 -13.882 -22.168  0.00  0.00    -0.000 C 
ATOM      2  C   UNL     1      32.824 -11.616 -22.766  0.00  0.00    +0.031 C 
ATOM      3  C   UNL     1      33.504 -12.802 -23.045  0.00  0.00    +0.000 C 
ATOM      4  C   UNL     1      32.049 -11.511 -21.611  0.00  0.00    +0.137 C 
ATOM      5  C   UNL     1      32.634 -13.778 -21.014  0.00  0.00    +0.003 C 
ATOM      6  C   UNL     1      31.953 -12.592 -20.735  0.00  0.00    +0.037 C 
ENDROOT
BRANCH   1   8
ATOM      7  N   UNL     1      35.872 -18.005 -20.908  0.00  0.00    -0.312 N 
ATOM      8  C   UNL     1      34.113 -15.113 -22.457  0.00  0.00    +0.001 C 
ATOM      9  C   UNL     1      35.286 -17.064 -21.724  0.00  0.00    +0.048 C 
ATOM     10  C   UNL     1      35.474 -17.490 -23.042  0.00  0.00    +0.015 C 
ATOM     11  C   UNL     1      34.611 -15.882 -21.401  0.00  0.00    +0.015 C 
ATOM     12  C   UNL     1      34.285 -15.512 -23.780  0.00  0.00    +0.000 C 
ATOM     13  C   UNL     1      34.963 -16.697 -24.089  0.00  0.00    +0.001 C 
ATOM     14  C   UNL     1      36.190 -18.718 -22.986  0.00  0.00    +0.017 C 
ATOM     15  C   UNL     1      36.422 -19.008 -21.661  0.00  0.00    +0.062 C 
ATOM     16  H   UNL     1      35.894 -17.963 -19.924  0.00  0.00    +0.152 HD
ENDBRANCH   1   8
BRANCH   4  17
ATOM     17  O   UNL     1      31.379 -10.361 -21.323  0.00  0.00    -0.469 OA
BRANCH  17  18
ATOM     18  C   UNL     1      31.384  -9.931 -19.963  0.00  0.00    +0.251 C 
BRANCH  18  20
ATOM     19  N   UNL     1      33.108  -8.281 -20.373  0.00  0.00    -0.244 NA
ATOM     20  C   UNL     1      31.866  -8.511 -19.901  0.00  0.00    +0.103 C 
ATOM     21  C   UNL     1      31.034  -7.542 -19.377  0.00  0.00    +0.018 C 
ATOM     22  C   UNL     1      31.511  -6.237 -19.333  0.00  0.00    +0.003 C 
ATOM     23  C   UNL     1      33.538  -7.001 -20.314  0.00  0.00    +0.099 C 
ATOM     24  C   UNL     1      32.786  -5.952 -19.809  0.00  0.00    +0.021 C 
ENDBRANCH  18  20
ENDBRANCH  17  18
ENDBRANCH   4  17
BRANCH   2  25
ATOM     25  C   UNL     1      32.936 -10.469 -23.714  0.00  0.00    +0.117 C 
BRANCH  25  26
ATOM     26  N   UNL     1      33.501  -9.277 -23.080  0.00  0.00    -0.327 N 
ATOM     27  H   UNL     1      33.897  -9.364 -22.183  0.00  0.00    +0.147 HD
BRANCH  26  29
ATOM     28  N   UNL     1      32.332  -6.004 -24.361  0.00  0.00    -0.228 NA
ATOM     29  C   UNL     1      33.505  -8.039 -23.679  0.00  0.00    +0.077 C 
ATOM     30  C   UNL     1      32.367  -7.225 -23.780  0.00  0.00    +0.139 C 
ATOM     31  C   UNL     1      34.684  -7.510 -24.237  0.00  0.00    +0.019 C 
ATOM     32  C   UNL     1      34.687  -6.258 -24.843  0.00  0.00    +0.022 C 
ATOM     33  C   UNL     1      33.495  -5.552 -24.878  0.00  0.00    +0.100 C 
ATOM     34  N   UNL     1      31.161  -7.727 -23.229  0.00  0.00    -0.342 N 
ATOM     35  H   UNL     1      30.338  -7.190 -23.276  0.00  0.00    +0.144 HD
ATOM     36  H   UNL     1      31.148  -8.613 -22.798  0.00  0.00    +0.144 HD
ENDBRANCH  26  29
ENDBRANCH  25  26
ENDBRANCH   2  25
TORSDOF 7
ENDMDL
MODEL 8
REMARK VINA RESULT:     -11.9      2.258      7.313
REMARK  Name = 11633167
REMARK  7 active torsions:
REMARK  status: ('A' for Active; 'I' for Inactive)
REMARK    1  A    between atoms: C_1  and  C_8
REMARK    2  A    between atoms: C_2  and  C_25
REMARK    3  A    between atoms: C_4  and  O_17
REMARK    4  A    between atoms: O_17  and  C_18
REMARK    5  A    between atoms: C_18  and  C_20
REMARK    6  A    between atoms: C_25  and  N_26
REMARK    7  A    between atoms: N_26  and  C_29
REMARK                            x       y       z     vdW  Elec       q    Type
REMARK                         _______ _______ _______ _____ _____    ______ ____
ROOT
ATOM      1  C   UNL     1      33.702 -23.307 -15.635  0.00  0.00    -0.000 C 
ATOM      2  C   UNL     1      35.707 -22.633 -16.801  0.00  0.00    +0.031 C 
ATOM      3  C   UNL     1      34.333 -22.877 -16.802  0.00  0.00    +0.000 C 
ATOM      4  C   UNL     1      36.447 -22.819 -15.634  0.00  0.00    +0.137 C 
ATOM      5  C   UNL     1      34.442 -23.494 -14.468  0.00  0.00    +0.003 C 
ATOM      6  C   UNL     1      35.815 -23.249 -14.467  0.00  0.00    +0.037 C 
ENDROOT
BRANCH   1   8
ATOM      7  N   UNL     1      29.077 -22.741 -17.353  0.00  0.00    -0.312 N 
ATOM      8  C   UNL     1      32.277 -23.561 -15.635  0.00  0.00    +0.001 C 
ATOM      9  C   UNL     1      30.096 -23.206 -16.553  0.00  0.00    +0.048 C 
ATOM     10  C   UNL     1      29.522 -24.068 -15.616  0.00  0.00    +0.015 C 
ATOM     11  C   UNL     1      31.469 -22.933 -16.588  0.00  0.00    +0.015 C 
ATOM     12  C   UNL     1      31.732 -24.425 -14.689  0.00  0.00    +0.000 C 
ATOM     13  C   UNL     1      30.358 -24.689 -14.665  0.00  0.00    +0.001 C 
ATOM     14  C   UNL     1      28.125 -24.105 -15.882  0.00  0.00    +0.017 C 
ATOM     15  C   UNL     1      27.881 -23.278 -16.954  0.00  0.00    +0.062 C 
ATOM     16  H   UNL     1      29.190 -22.113 -18.102  0.00  0.00    +0.152 HD
ENDBRANCH   1   8
BRANCH   4  17
ATOM     17  O   UNL     1      37.789 -22.586 -15.616  0.00  0.00    -0.469 OA
BRANCH  17  18
ATOM     18  C   UNL     1      38.647 -23.722 -15.695  0.00  0.00    +0.251 C 
BRANCH  18  20
ATOM     19  N   UNL     1      38.620 -24.275 -13.338  0.00  0.00    -0.244 NA
ATOM     20  C   UNL     1      38.304 -24.674 -14.587  0.00  0.00    +0.103 C 
ATOM     21  C   UNL     1      37.697 -25.875 -14.896  0.00  0.00    +0.018 C 
ATOM     22  C   UNL     1      37.393 -26.733 -13.846  0.00  0.00    +0.003 C 
ATOM     23  C   UNL     1      38.310 -25.135 -12.343  0.00  0.00    +0.099 C 
ATOM     24  C   UNL     1      37.701 -26.364 -12.542  0.00  0.00    +0.021 C 
ENDBRANCH  18  20
ENDBRANCH  17  18
ENDBRANCH   4  17
BRANCH   2  25
ATOM     25  C   UNL     1      36.367 -22.173 -18.058  0.00  0.00    +0.117 C 
BRANCH  25  26
ATOM     26  N   UNL     1      35.425 -22.062 -19.172  0.00  0.00    -0.327 N 
ATOM     27  H   UNL     1      34.789 -22.797 -19.325  0.00  0.00    +0.147 HD
BRANCH  26  29
ATOM     28  N   UNL     1      34.121 -19.392 -21.384  0.00  0.00    -0.228 NA
ATOM     29  C   UNL     1      35.387 -20.977 -20.017  0.00  0.00    +0.077 C 
ATOM     30  C   UNL     1      34.199 -20.454 -20.551  0.00  0.00    +0.139 C 
ATOM     31  C   UNL     1      36.569 -20.318 -20.401  0.00  0.00    +0.019 C 
ATOM     32  C   UNL     1      36.529 -19.221 -21.256  0.00  0.00    +0.022 C 
ATOM     33  C   UNL     1      35.291 -18.802 -21.715  0.00  0.00    +0.100 C 
ATOM     34  N   UNL     1      32.988 -21.095 -20.185  0.00  0.00    -0.342 N 
ATOM     35  H   UNL     1      32.131 -20.762 -20.536  0.00  0.00    +0.144 HD
ATOM     36  H   UNL     1      33.006 -21.872 -19.581  0.00  0.00    +0.144 HD
ENDBRANCH  26  29
ENDBRANCH  25  26
ENDBRANCH   2  25
TORSDOF 7
ENDMDL
MODEL 9
REMARK VINA RESULT:     -11.3      2.432      7.350
REMARK  Name = 11633167
REMARK  7 active torsions:
REMARK  status: ('A' for Active; 'I' for Inactive)
REMARK    1  A    between atoms: C_1  and  C_8
REMARK    2  A    between atoms: C_2  and  C_25
REMARK    3  A    between atoms: C_4  and  O_17
REMARK    4  A    between atoms: O_17  and  C_18
REMARK    5  A    between atoms: C_18  and  C_20
REMARK    6  A    between atoms: C_25  and  N_26
REMARK    7  A    between atoms: N_26  and  C_29
REMARK                            x       y       z     vdW  Elec       q    Type
REMARK                         _______ _______ _______ _____ _____    ______ ____
ROOT
ATOM      1  C   UNL     1      32.042 -23.422 -15.862  0.00  0.00    -0.000 C 
ATOM      2  C   UNL     1      34.278 -23.260 -16.759  0.00  0.00    +0.031 C 
ATOM      3  C   UNL     1      32.933 -22.891 -16.794  0.00  0.00    +0.000 C 
ATOM      4  C   UNL     1      34.730 -24.160 -15.795  0.00  0.00    +0.137 C 
ATOM      5  C   UNL     1      32.492 -24.322 -14.897  0.00  0.00    +0.003 C 
ATOM      6  C   UNL     1      33.838 -24.690 -14.863  0.00  0.00    +0.037 C 
ENDROOT
BRANCH   1   8
ATOM      7  N   UNL     1      27.654 -22.779 -18.097  0.00  0.00    -0.312 N 
ATOM      8  C   UNL     1      30.646 -23.040 -15.897  0.00  0.00    +0.001 C 
ATOM      9  C   UNL     1      28.586 -22.774 -17.085  0.00  0.00    +0.048 C 
ATOM     10  C   UNL     1      27.946 -22.294 -15.940  0.00  0.00    +0.015 C 
ATOM     11  C   UNL     1      29.933 -23.154 -17.094  0.00  0.00    +0.015 C 
ATOM     12  C   UNL     1      30.034 -22.565 -14.740  0.00  0.00    +0.000 C 
ATOM     13  C   UNL     1      28.686 -22.187 -14.745  0.00  0.00    +0.001 C 
ATOM     14  C   UNL     1      26.599 -22.014 -16.300  0.00  0.00    +0.017 C 
ATOM     15  C   UNL     1      26.450 -22.320 -17.634  0.00  0.00    +0.062 C 
ATOM     16  H   UNL     1      27.827 -23.070 -19.022  0.00  0.00    +0.152 HD
ENDBRANCH   1   8
BRANCH   4  17
ATOM     17  O   UNL     1      36.039 -24.531 -15.747  0.00  0.00    -0.469 OA
BRANCH  17  18
ATOM     18  C   UNL     1      36.365 -25.658 -14.935  0.00  0.00    +0.251 C 
BRANCH  18  20
ATOM     19  N   UNL     1      38.665 -26.263 -15.389  0.00  0.00    -0.244 NA
ATOM     20  C   UNL     1      37.820 -25.598 -14.575  0.00  0.00    +0.103 C 
ATOM     21  C   UNL     1      38.207 -24.882 -13.458  0.00  0.00    +0.018 C 
ATOM     22  C   UNL     1      39.562 -24.847 -13.152  0.00  0.00    +0.003 C 
ATOM     23  C   UNL     1      39.974 -26.206 -15.060  0.00  0.00    +0.099 C 
ATOM     24  C   UNL     1      40.470 -25.518 -13.964  0.00  0.00    +0.021 C 
ENDBRANCH  18  20
ENDBRANCH  17  18
ENDBRANCH   4  17
BRANCH   2  25
ATOM     25  C   UNL     1      35.219 -22.683 -17.763  0.00  0.00    +0.117 C 
BRANCH  25  26
ATOM     26  N   UNL     1      34.557 -22.367 -19.029  0.00  0.00    -0.327 N 
ATOM     27  H   UNL     1      33.810 -22.938 -19.324  0.00  0.00    +0.147 HD
BRANCH  26  29
ATOM     28  N   UNL     1      34.336 -19.462 -21.317  0.00  0.00    -0.228 NA
ATOM     29  C   UNL     1      34.928 -21.311 -19.828  0.00  0.00    +0.077 C 
ATOM     30  C   UNL     1      34.011 -20.507 -20.523  0.00  0.00    +0.139 C 
ATOM     31  C   UNL     1      36.283 -20.972 -19.995  0.00  0.00    +0.019 C 
ATOM     32  C   UNL     1      36.658 -19.904 -20.803  0.00  0.00    +0.022 C 
ATOM     33  C   UNL     1      35.654 -19.187 -21.436  0.00  0.00    +0.100 C 
ATOM     34  N   UNL     1      32.636 -20.821 -20.378  0.00  0.00    -0.342 N 
ATOM     35  H   UNL     1      31.957 -20.284 -20.846  0.00  0.00    +0.144 HD
ATOM     36  H   UNL     1      32.360 -21.576 -19.808  0.00  0.00    +0.144 HD
ENDBRANCH  26  29
ENDBRANCH  25  26
ENDBRANCH   2  25
TORSDOF 7
ENDMDL
