MODEL 1
REMARK VINA RESULT:     -13.0      0.000      0.000
REMARK  Name = 9998128
REMARK  2 active torsions:
REMARK  status: ('A' for Active; 'I' for Inactive)
REMARK    1  A    between atoms: N_1  and  C_15
REMARK    2  A    between atoms: C_7  and  C_24
REMARK                            x       y       z     vdW  Elec       q    Type
REMARK                         _______ _______ _______ _____ _____    ______ ____
ROOT
ATOM      1  N   UNL     1      34.072 -24.851 -14.903  0.00  0.00    -0.290 N 
ATOM      2  N   UNL     1      34.189 -23.441 -16.782  0.00  0.00    -0.327 NA
ATOM      3  N   UNL     1      32.191 -22.482 -17.727  0.00  0.00    -0.342 NA
ATOM      4  C   UNL     1      32.027 -23.916 -15.812  0.00  0.00    +0.143 C 
ATOM      5  C   UNL     1      33.413 -24.044 -15.863  0.00  0.00    +0.184 C 
ATOM      6  C   UNL     1      31.444 -23.100 -16.795  0.00  0.00    +0.133 C 
ATOM      7  C   UNL     1      33.523 -22.686 -17.671  0.00  0.00    +0.165 C 
ATOM      8  C   UNL     1      31.237 -24.557 -14.842  0.00  0.00    -0.011 C 
ATOM      9  C   UNL     1      30.060 -22.947 -16.776  0.00  0.00    +0.029 C 
ATOM     10  C   UNL     1      29.856 -24.387 -14.846  0.00  0.00    -0.004 C 
ATOM     11  C   UNL     1      29.267 -23.581 -15.815  0.00  0.00    +0.002 C 
ATOM     12  H   UNL     1      33.527 -25.604 -14.575  0.00  0.00    +0.154 HD
ENDROOT
BRANCH   1  15
ATOM     13  N   UNL     1      39.005 -24.367 -12.502  0.00  0.00    -0.236 N 
ATOM     14  N   UNL     1      38.871 -23.300 -11.696  0.00  0.00    -0.180 NA
ATOM     15  C   UNL     1      35.351 -24.787 -14.329  0.00  0.00    +0.050 C 
ATOM     16  C   UNL     1      36.933 -23.731 -12.833  0.00  0.00    +0.037 C 
ATOM     17  C   UNL     1      37.878 -24.677 -13.212  0.00  0.00    +0.067 C 
ATOM     18  C   UNL     1      35.646 -23.779 -13.395  0.00  0.00    +0.018 C 
ATOM     19  C   UNL     1      36.327 -25.725 -14.689  0.00  0.00    +0.016 C 
ATOM     20  C   UNL     1      37.612 -25.690 -14.137  0.00  0.00    +0.017 C 
ATOM     21  C   UNL     1      37.609 -22.916 -11.900  0.00  0.00    +0.119 C 
ATOM     22  H   UNL     1      39.842 -24.880 -12.574  0.00  0.00    +0.174 HD
ENDBRANCH   1  15
BRANCH   7  24
ATOM     23  N   UNL     1      33.615 -21.282 -19.561  0.00  0.00    -0.398 NA
ATOM     24  C   UNL     1      34.316 -22.022 -18.672  0.00  0.00    +0.197 C 
ATOM     25  C   UNL     1      35.697 -22.153 -18.696  0.00  0.00    +0.098 C 
ATOM     26  C   UNL     1      34.332 -20.645 -20.515  0.00  0.00    +0.110 C 
ATOM     27  C   UNL     1      36.399 -21.484 -19.692  0.00  0.00    -0.016 C 
ATOM     28  C   UNL     1      35.711 -20.713 -20.623  0.00  0.00    +0.023 C 
ATOM     29  C   UNL     1      33.561 -19.829 -21.497  0.00  0.00    +0.066 C 
ENDBRANCH   7  24
TORSDOF 2
ENDMDL
MODEL 2
REMARK VINA RESULT:     -13.0      1.206      1.882
REMARK  Name = 9998128
REMARK  2 active torsions:
REMARK  status: ('A' for Active; 'I' for Inactive)
REMARK    1  A    between atoms: N_1  and  C_15
REMARK    2  A    between atoms: C_7  and  C_24
REMARK                            x       y       z     vdW  Elec       q    Type
REMARK                         _______ _______ _______ _____ _____    ______ ____
ROOT
ATOM      1  N   UNL     1      34.957 -25.303 -14.597  0.00  0.00    -0.290 N 
ATOM      2  N   UNL     1      34.734 -23.804 -16.397  0.00  0.00    -0.327 NA
ATOM      3  N   UNL     1      32.594 -22.831 -16.928  0.00  0.00    -0.342 NA
ATOM      4  C   UNL     1      32.779 -24.355 -15.086  0.00  0.00    +0.143 C 
ATOM      5  C   UNL     1      34.135 -24.461 -15.387  0.00  0.00    +0.184 C 
ATOM      6  C   UNL     1      32.027 -23.502 -15.910  0.00  0.00    +0.133 C 
ATOM      7  C   UNL     1      33.916 -23.018 -17.117  0.00  0.00    +0.165 C 
ATOM      8  C   UNL     1      32.176 -25.052 -14.025  0.00  0.00    -0.011 C 
ATOM      9  C   UNL     1      30.667 -23.371 -15.641  0.00  0.00    +0.029 C 
ATOM     10  C   UNL     1      30.816 -24.902 -13.778  0.00  0.00    -0.004 C 
ATOM     11  C   UNL     1      30.060 -24.060 -14.588  0.00  0.00    +0.002 C 
ATOM     12  H   UNL     1      34.483 -26.078 -14.216  0.00  0.00    +0.154 HD
ENDROOT
BRANCH   1  15
ATOM     13  N   UNL     1      40.356 -25.193 -13.511  0.00  0.00    -0.236 N 
ATOM     14  N   UNL     1      40.923 -25.671 -14.632  0.00  0.00    -0.180 NA
ATOM     15  C   UNL     1      36.317 -25.247 -14.255  0.00  0.00    +0.050 C 
ATOM     16  C   UNL     1      38.643 -25.609 -14.816  0.00  0.00    +0.037 C 
ATOM     17  C   UNL     1      38.990 -25.130 -13.557  0.00  0.00    +0.067 C 
ATOM     18  C   UNL     1      37.287 -25.672 -15.178  0.00  0.00    +0.018 C 
ATOM     19  C   UNL     1      36.702 -24.770 -12.995  0.00  0.00    +0.016 C 
ATOM     20  C   UNL     1      38.048 -24.701 -12.619  0.00  0.00    +0.017 C 
ATOM     21  C   UNL     1      39.878 -25.923 -15.423  0.00  0.00    +0.119 C 
ATOM     22  H   UNL     1      40.879 -24.912 -12.726  0.00  0.00    +0.174 HD
ENDBRANCH   1  15
BRANCH   7  24
ATOM     23  N   UNL     1      33.642 -21.701 -19.052  0.00  0.00    -0.398 NA
ATOM     24  C   UNL     1      34.516 -22.296 -18.208  0.00  0.00    +0.197 C 
ATOM     25  C   UNL     1      35.895 -22.235 -18.356  0.00  0.00    +0.098 C 
ATOM     26  C   UNL     1      34.175 -21.015 -20.088  0.00  0.00    +0.110 C 
ATOM     27  C   UNL     1      36.405 -21.521 -19.433  0.00  0.00    -0.016 C 
ATOM     28  C   UNL     1      35.536 -20.895 -20.321  0.00  0.00    +0.023 C 
ATOM     29  C   UNL     1      33.213 -20.358 -21.021  0.00  0.00    +0.066 C 
ENDBRANCH   7  24
TORSDOF 2
ENDMDL
MODEL 3
REMARK VINA RESULT:     -12.9      1.842      5.949
REMARK  Name = 9998128
REMARK  2 active torsions:
REMARK  status: ('A' for Active; 'I' for Inactive)
REMARK    1  A    between atoms: N_1  and  C_15
REMARK    2  A    between atoms: C_7  and  C_24
REMARK                            x       y       z     vdW  Elec       q    Type
REMARK                         _______ _______ _______ _____ _____    ______ ____
ROOT
ATOM      1  N   UNL     1      33.368 -23.821 -14.068  0.00  0.00    -0.290 N 
ATOM      2  N   UNL     1      34.517 -23.021 -15.959  0.00  0.00    -0.327 NA
ATOM      3  N   UNL     1      36.908 -23.260 -16.138  0.00  0.00    -0.342 NA
ATOM      4  C   UNL     1      35.776 -24.089 -14.194  0.00  0.00    +0.143 C 
ATOM      5  C   UNL     1      34.589 -23.636 -14.764  0.00  0.00    +0.184 C 
ATOM      6  C   UNL     1      36.944 -23.872 -14.941  0.00  0.00    +0.133 C 
ATOM      7  C   UNL     1      35.696 -22.868 -16.582  0.00  0.00    +0.165 C 
ATOM      8  C   UNL     1      35.825 -24.729 -12.943  0.00  0.00    -0.011 C 
ATOM      9  C   UNL     1      38.151 -24.310 -14.403  0.00  0.00    +0.029 C 
ATOM     10  C   UNL     1      37.044 -25.158 -12.429  0.00  0.00    -0.004 C 
ATOM     11  C   UNL     1      38.209 -24.948 -13.160  0.00  0.00    +0.002 C 
ATOM     12  H   UNL     1      33.466 -23.821 -13.088  0.00  0.00    +0.154 HD
ENDROOT
BRANCH   1  15
ATOM     13  N   UNL     1      28.192 -24.273 -15.896  0.00  0.00    -0.236 N 
ATOM     14  N   UNL     1      27.963 -23.103 -16.516  0.00  0.00    -0.180 NA
ATOM     15  C   UNL     1      32.047 -24.004 -14.505  0.00  0.00    +0.050 C 
ATOM     16  C   UNL     1      30.079 -23.183 -15.649  0.00  0.00    +0.037 C 
ATOM     17  C   UNL     1      29.444 -24.384 -15.354  0.00  0.00    +0.067 C 
ATOM     18  C   UNL     1      31.402 -22.981 -15.221  0.00  0.00    +0.018 C 
ATOM     19  C   UNL     1      31.377 -25.201 -14.225  0.00  0.00    +0.016 C 
ATOM     20  C   UNL     1      30.060 -25.417 -14.644  0.00  0.00    +0.017 C 
ATOM     21  C   UNL     1      29.114 -22.443 -16.364  0.00  0.00    +0.119 C 
ATOM     22  H   UNL     1      27.518 -24.987 -15.838  0.00  0.00    +0.174 HD
ENDBRANCH   1  15
BRANCH   7  24
ATOM     23  N   UNL     1      34.436 -22.085 -18.414  0.00  0.00    -0.398 NA
ATOM     24  C   UNL     1      35.666 -22.214 -17.864  0.00  0.00    +0.197 C 
ATOM     25  C   UNL     1      36.831 -21.762 -18.467  0.00  0.00    +0.098 C 
ATOM     26  C   UNL     1      34.374 -21.475 -19.619  0.00  0.00    +0.110 C 
ATOM     27  C   UNL     1      36.727 -21.140 -19.706  0.00  0.00    -0.016 C 
ATOM     28  C   UNL     1      35.478 -20.990 -20.300  0.00  0.00    +0.023 C 
ATOM     29  C   UNL     1      33.019 -21.332 -20.227  0.00  0.00    +0.066 C 
ENDBRANCH   7  24
TORSDOF 2
ENDMDL
MODEL 4
REMARK VINA RESULT:     -12.8      1.329      4.815
REMARK  Name = 9998128
REMARK  2 active torsions:
REMARK  status: ('A' for Active; 'I' for Inactive)
REMARK    1  A    between atoms: N_1  and  C_15
REMARK    2  A    between atoms: C_7  and  C_24
REMARK                            x       y       z     vdW  Elec       q    Type
REMARK                         _______ _______ _______ _____ _____    ______ ____
ROOT
ATOM      1  N   UNL     1      35.893 -22.942 -16.393  0.00  0.00    -0.290 N 
ATOM      2  N   UNL     1      33.549 -23.108 -16.525  0.00  0.00    -0.327 NA
ATOM      3  N   UNL     1      32.364 -22.269 -18.447  0.00  0.00    -0.342 NA
ATOM      4  C   UNL     1      34.752 -22.079 -18.352  0.00  0.00    +0.143 C 
ATOM      5  C   UNL     1      34.693 -22.704 -17.108  0.00  0.00    +0.184 C 
ATOM      6  C   UNL     1      33.524 -21.877 -19.002  0.00  0.00    +0.133 C 
ATOM      7  C   UNL     1      32.439 -22.863 -17.239  0.00  0.00    +0.165 C 
ATOM      8  C   UNL     1      35.959 -21.665 -18.941  0.00  0.00    -0.011 C 
ATOM      9  C   UNL     1      33.542 -21.254 -20.248  0.00  0.00    +0.029 C 
ATOM     10  C   UNL     1      35.949 -21.046 -20.186  0.00  0.00    -0.004 C 
ATOM     11  C   UNL     1      34.739 -20.840 -20.841  0.00  0.00    +0.002 C 
ATOM     12  H   UNL     1      36.599 -22.278 -16.569  0.00  0.00    +0.154 HD
ENDROOT
BRANCH   1  15
ATOM     13  N   UNL     1      37.465 -26.654 -12.640  0.00  0.00    -0.236 N 
ATOM     14  N   UNL     1      37.962 -25.911 -11.636  0.00  0.00    -0.180 NA
ATOM     15  C   UNL     1      36.269 -23.941 -15.481  0.00  0.00    +0.050 C 
ATOM     16  C   UNL     1      37.225 -24.596 -13.357  0.00  0.00    +0.037 C 
ATOM     17  C   UNL     1      37.006 -25.925 -13.702  0.00  0.00    +0.067 C 
ATOM     18  C   UNL     1      36.853 -23.581 -14.255  0.00  0.00    +0.018 C 
ATOM     19  C   UNL     1      36.064 -25.290 -15.798  0.00  0.00    +0.016 C 
ATOM     20  C   UNL     1      36.428 -26.311 -14.914  0.00  0.00    +0.017 C 
ATOM     21  C   UNL     1      37.814 -24.660 -12.076  0.00  0.00    +0.119 C 
ATOM     22  H   UNL     1      37.434 -27.637 -12.612  0.00  0.00    +0.174 HD
ENDBRANCH   1  15
BRANCH   7  24
ATOM     23  N   UNL     1      30.088 -22.707 -17.181  0.00  0.00    -0.398 NA
ATOM     24  C   UNL     1      31.193 -23.280 -16.651  0.00  0.00    +0.197 C 
ATOM     25  C   UNL     1      31.161 -24.204 -15.616  0.00  0.00    +0.098 C 
ATOM     26  C   UNL     1      28.901 -23.078 -16.650  0.00  0.00    +0.110 C 
ATOM     27  C   UNL     1      29.923 -24.560 -15.096  0.00  0.00    -0.016 C 
ATOM     28  C   UNL     1      28.765 -23.991 -15.617  0.00  0.00    +0.023 C 
ATOM     29  C   UNL     1      27.681 -22.447 -17.233  0.00  0.00    +0.066 C 
ENDBRANCH   7  24
TORSDOF 2
ENDMDL
MODEL 5
REMARK VINA RESULT:     -12.8      1.478      5.001
REMARK  Name = 9998128
REMARK  2 active torsions:
REMARK  status: ('A' for Active; 'I' for Inactive)
REMARK    1  A    between atoms: N_1  and  C_15
REMARK    2  A    between atoms: C_7  and  C_24
REMARK                            x       y       z     vdW  Elec       q    Type
REMARK                         _______ _______ _______ _____ _____    ______ ____
ROOT
ATOM      1  N   UNL     1      36.367 -22.652 -16.695  0.00  0.00    -0.290 N 
ATOM      2  N   UNL     1      34.051 -23.050 -16.580  0.00  0.00    -0.327 NA
ATOM      3  N   UNL     1      32.592 -22.335 -18.359  0.00  0.00    -0.342 NA
ATOM      4  C   UNL     1      34.946 -21.910 -18.515  0.00  0.00    +0.143 C 
ATOM      5  C   UNL     1      35.081 -22.535 -17.277  0.00  0.00    +0.184 C 
ATOM      6  C   UNL     1      33.643 -21.832 -19.030  0.00  0.00    +0.133 C 
ATOM      7  C   UNL     1      32.853 -22.917 -17.170  0.00  0.00    +0.165 C 
ATOM      8  C   UNL     1      36.038 -21.380 -19.224  0.00  0.00    -0.011 C 
ATOM      9  C   UNL     1      33.467 -21.213 -20.265  0.00  0.00    +0.029 C 
ATOM     10  C   UNL     1      35.835 -20.767 -20.456  0.00  0.00    -0.004 C 
ATOM     11  C   UNL     1      34.547 -20.683 -20.977  0.00  0.00    +0.002 C 
ATOM     12  H   UNL     1      36.982 -21.922 -16.938  0.00  0.00    +0.154 HD
ENDROOT
BRANCH   1  15
ATOM     13  N   UNL     1      38.853 -26.339 -13.445  0.00  0.00    -0.236 N 
ATOM     14  N   UNL     1      40.149 -26.255 -13.789  0.00  0.00    -0.180 NA
ATOM     15  C   UNL     1      36.935 -23.607 -15.837  0.00  0.00    +0.050 C 
ATOM     16  C   UNL     1      38.869 -24.803 -15.009  0.00  0.00    +0.037 C 
ATOM     17  C   UNL     1      38.032 -25.494 -14.140  0.00  0.00    +0.067 C 
ATOM     18  C   UNL     1      38.320 -23.842 -15.875  0.00  0.00    +0.018 C 
ATOM     19  C   UNL     1      36.121 -24.322 -14.950  0.00  0.00    +0.016 C 
ATOM     20  C   UNL     1      36.653 -25.281 -14.081  0.00  0.00    +0.017 C 
ATOM     21  C   UNL     1      40.155 -25.319 -14.741  0.00  0.00    +0.119 C 
ATOM     22  H   UNL     1      38.523 -26.956 -12.752  0.00  0.00    +0.174 HD
ENDBRANCH   1  15
BRANCH   7  24
ATOM     23  N   UNL     1      30.513 -23.073 -16.929  0.00  0.00    -0.398 NA
ATOM     24  C   UNL     1      31.723 -23.454 -16.458  0.00  0.00    +0.197 C 
ATOM     25  C   UNL     1      31.896 -24.298 -15.370  0.00  0.00    +0.098 C 
ATOM     26  C   UNL     1      29.432 -23.561 -16.281  0.00  0.00    +0.110 C 
ATOM     27  C   UNL     1      30.761 -24.778 -14.729  0.00  0.00    -0.016 C 
ATOM     28  C   UNL     1      29.500 -24.408 -15.187  0.00  0.00    +0.023 C 
ATOM     29  C   UNL     1      28.096 -23.142 -16.798  0.00  0.00    +0.066 C 
ENDBRANCH   7  24
TORSDOF 2
ENDMDL
MODEL 6
REMARK VINA RESULT:     -12.4      2.089      7.386
REMARK  Name = 9998128
REMARK  2 active torsions:
REMARK  status: ('A' for Active; 'I' for Inactive)
REMARK    1  A    between atoms: N_1  and  C_15
REMARK    2  A    between atoms: C_7  and  C_24
REMARK                            x       y       z     vdW  Elec       q    Type
REMARK                         _______ _______ _______ _____ _____    ______ ____
ROOT
ATOM      1  N   UNL     1      35.424 -22.537 -18.161  0.00  0.00    -0.290 N 
ATOM      2  N   UNL     1      33.395 -23.054 -17.089  0.00  0.00    -0.327 NA
ATOM      3  N   UNL     1      33.373 -23.830 -14.808  0.00  0.00    -0.342 NA
ATOM      4  C   UNL     1      35.462 -23.313 -15.864  0.00  0.00    +0.143 C 
ATOM      5  C   UNL     1      34.736 -22.982 -17.005  0.00  0.00    +0.184 C 
ATOM      6  C   UNL     1      34.714 -23.745 -14.757  0.00  0.00    +0.133 C 
ATOM      7  C   UNL     1      32.786 -23.480 -15.971  0.00  0.00    +0.165 C 
ATOM      8  C   UNL     1      36.864 -23.229 -15.800  0.00  0.00    -0.011 C 
ATOM      9  C   UNL     1      35.405 -24.086 -13.597  0.00  0.00    +0.029 C 
ATOM     10  C   UNL     1      37.530 -23.576 -14.629  0.00  0.00    -0.004 C 
ATOM     11  C   UNL     1      36.799 -24.005 -13.526  0.00  0.00    +0.002 C 
ATOM     12  H   UNL     1      36.329 -22.914 -18.255  0.00  0.00    +0.154 HD
ENDROOT
BRANCH   1  15
ATOM     13  N   UNL     1      34.295 -19.038 -22.263  0.00  0.00    -0.236 N 
ATOM     14  N   UNL     1      35.497 -18.557 -22.620  0.00  0.00    -0.180 NA
ATOM     15  C   UNL     1      35.065 -21.662 -19.199  0.00  0.00    +0.050 C 
ATOM     16  C   UNL     1      35.680 -20.059 -20.904  0.00  0.00    +0.037 C 
ATOM     17  C   UNL     1      34.336 -19.945 -21.239  0.00  0.00    +0.067 C 
ATOM     18  C   UNL     1      36.060 -20.930 -19.869  0.00  0.00    +0.018 C 
ATOM     19  C   UNL     1      33.720 -21.522 -19.561  0.00  0.00    +0.016 C 
ATOM     20  C   UNL     1      33.326 -20.660 -20.590  0.00  0.00    +0.017 C 
ATOM     21  C   UNL     1      36.337 -19.180 -21.791  0.00  0.00    +0.119 C 
ATOM     22  H   UNL     1      33.457 -18.763 -22.701  0.00  0.00    +0.174 HD
ENDBRANCH   1  15
BRANCH   7  24
ATOM     23  N   UNL     1      30.819 -24.607 -15.325  0.00  0.00    -0.398 NA
ATOM     24  C   UNL     1      31.350 -23.573 -16.017  0.00  0.00    +0.197 C 
ATOM     25  C   UNL     1      30.594 -22.652 -16.729  0.00  0.00    +0.098 C 
ATOM     26  C   UNL     1      29.472 -24.721 -15.350  0.00  0.00    +0.110 C 
ATOM     27  C   UNL     1      29.213 -22.802 -16.731  0.00  0.00    -0.016 C 
ATOM     28  C   UNL     1      28.632 -23.854 -16.030  0.00  0.00    +0.023 C 
ATOM     29  C   UNL     1      28.884 -25.861 -14.588  0.00  0.00    +0.066 C 
ENDBRANCH   7  24
TORSDOF 2
ENDMDL
MODEL 7
REMARK VINA RESULT:     -12.3      2.086      7.035
REMARK  Name = 9998128
REMARK  2 active torsions:
REMARK  status: ('A' for Active; 'I' for Inactive)
REMARK    1  A    between atoms: N_1  and  C_15
REMARK    2  A    between atoms: C_7  and  C_24
REMARK                            x       y       z     vdW  Elec       q    Type
REMARK                         _______ _______ _______ _____ _____    ______ ____
ROOT
ATOM      1  N   UNL     1      35.441 -22.909 -17.221  0.00  0.00    -0.290 N 
ATOM      2  N   UNL     1      33.408 -23.557 -16.230  0.00  0.00    -0.327 NA
ATOM      3  N   UNL     1      33.312 -24.153 -13.897  0.00  0.00    -0.342 NA
ATOM      4  C   UNL     1      35.404 -23.499 -14.868  0.00  0.00    +0.143 C 
ATOM      5  C   UNL     1      34.726 -23.335 -16.074  0.00  0.00    +0.184 C 
ATOM      6  C   UNL     1      34.631 -23.922 -13.776  0.00  0.00    +0.133 C 
ATOM      7  C   UNL     1      32.772 -23.958 -15.118  0.00  0.00    +0.165 C 
ATOM      8  C   UNL     1      36.783 -23.261 -14.730  0.00  0.00    -0.011 C 
ATOM      9  C   UNL     1      35.274 -24.098 -12.553  0.00  0.00    +0.029 C 
ATOM     10  C   UNL     1      37.400 -23.444 -13.497  0.00  0.00    -0.004 C 
ATOM     11  C   UNL     1      36.644 -23.863 -12.407  0.00  0.00    +0.002 C 
ATOM     12  H   UNL     1      36.385 -23.194 -17.230  0.00  0.00    +0.154 HD
ENDROOT
BRANCH   1  15
ATOM     13  N   UNL     1      34.242 -19.889 -21.668  0.00  0.00    -0.236 N 
ATOM     14  N   UNL     1      35.425 -19.370 -22.037  0.00  0.00    -0.180 NA
ATOM     15  C   UNL     1      35.066 -22.160 -18.347  0.00  0.00    +0.050 C 
ATOM     16  C   UNL     1      35.640 -20.690 -20.180  0.00  0.00    +0.037 C 
ATOM     17  C   UNL     1      34.303 -20.690 -20.561  0.00  0.00    +0.067 C 
ATOM     18  C   UNL     1      36.037 -21.434 -19.057  0.00  0.00    +0.018 C 
ATOM     19  C   UNL     1      33.727 -22.137 -18.757  0.00  0.00    +0.016 C 
ATOM     20  C   UNL     1      33.316 -21.402 -19.873  0.00  0.00    +0.017 C 
ATOM     21  C   UNL     1      36.273 -19.860 -21.130  0.00  0.00    +0.119 C 
ATOM     22  H   UNL     1      33.405 -19.708 -22.153  0.00  0.00    +0.174 HD
ENDBRANCH   1  15
BRANCH   7  24
ATOM     23  N   UNL     1      30.681 -23.309 -15.991  0.00  0.00    -0.398 NA
ATOM     24  C   UNL     1      31.359 -24.207 -15.240  0.00  0.00    +0.197 C 
ATOM     25  C   UNL     1      30.767 -25.298 -14.620  0.00  0.00    +0.098 C 
ATOM     26  C   UNL     1      29.351 -23.516 -16.124  0.00  0.00    +0.110 C 
ATOM     27  C   UNL     1      29.398 -25.477 -14.780  0.00  0.00    -0.016 C 
ATOM     28  C   UNL     1      28.669 -24.573 -15.545  0.00  0.00    +0.023 C 
ATOM     29  C   UNL     1      28.601 -22.526 -16.951  0.00  0.00    +0.066 C 
ENDBRANCH   7  24
TORSDOF 2
ENDMDL
MODEL 8
REMARK VINA RESULT:     -11.4      1.715      6.687
REMARK  Name = 9998128
REMARK  2 active torsions:
REMARK  status: ('A' for Active; 'I' for Inactive)
REMARK    1  A    between atoms: N_1  and  C_15
REMARK    2  A    between atoms: C_7  and  C_24
REMARK                            x       y       z     vdW  Elec       q    Type
REMARK                         _______ _______ _______ _____ _____    ______ ____
ROOT
ATOM      1  N   UNL     1      32.214 -22.354 -17.562  0.00  0.00    -0.290 N 
ATOM      2  N   UNL     1      33.471 -23.097 -15.717  0.00  0.00    -0.327 NA
ATOM      3  N   UNL     1      32.516 -24.619 -14.112  0.00  0.00    -0.342 NA
ATOM      4  C   UNL     1      31.201 -23.885 -15.978  0.00  0.00    +0.143 C 
ATOM      5  C   UNL     1      32.301 -23.134 -16.382  0.00  0.00    +0.184 C 
ATOM      6  C   UNL     1      31.361 -24.634 -14.801  0.00  0.00    +0.133 C 
ATOM      7  C   UNL     1      33.508 -23.851 -14.607  0.00  0.00    +0.165 C 
ATOM      8  C   UNL     1      29.989 -23.908 -16.690  0.00  0.00    -0.011 C 
ATOM      9  C   UNL     1      30.282 -25.398 -14.364  0.00  0.00    +0.029 C 
ATOM     10  C   UNL     1      28.927 -24.680 -16.232  0.00  0.00    -0.004 C 
ATOM     11  C   UNL     1      29.074 -25.426 -15.066  0.00  0.00    +0.002 C 
ATOM     12  H   UNL     1      31.305 -22.025 -17.755  0.00  0.00    +0.154 HD
ENDROOT
BRANCH   1  15
ATOM     13  N   UNL     1      35.772 -20.630 -21.396  0.00  0.00    -0.236 N 
ATOM     14  N   UNL     1      35.058 -19.766 -22.138  0.00  0.00    -0.180 NA
ATOM     15  C   UNL     1      33.172 -21.957 -18.508  0.00  0.00    +0.050 C 
ATOM     16  C   UNL     1      33.797 -20.646 -20.443  0.00  0.00    +0.037 C 
ATOM     17  C   UNL     1      35.074 -21.192 -20.364  0.00  0.00    +0.067 C 
ATOM     18  C   UNL     1      32.825 -21.029 -19.505  0.00  0.00    +0.018 C 
ATOM     19  C   UNL     1      34.467 -22.489 -18.458  0.00  0.00    +0.016 C 
ATOM     20  C   UNL     1      35.446 -22.117 -19.385  0.00  0.00    +0.017 C 
ATOM     21  C   UNL     1      33.857 -19.779 -21.555  0.00  0.00    +0.119 C 
ATOM     22  H   UNL     1      36.716 -20.839 -21.581  0.00  0.00    +0.174 HD
ENDBRANCH   1  15
BRANCH   7  24
ATOM     23  N   UNL     1      34.633 -24.206 -12.566  0.00  0.00    -0.398 NA
ATOM     24  C   UNL     1      34.741 -23.841 -13.864  0.00  0.00    +0.197 C 
ATOM     25  C   UNL     1      35.937 -23.475 -14.465  0.00  0.00    +0.098 C 
ATOM     26  C   UNL     1      35.774 -24.206 -11.841  0.00  0.00    +0.110 C 
ATOM     27  C   UNL     1      37.089 -23.487 -13.688  0.00  0.00    -0.016 C 
ATOM     28  C   UNL     1      37.015 -23.858 -12.349  0.00  0.00    +0.023 C 
ATOM     29  C   UNL     1      35.657 -24.609 -10.409  0.00  0.00    +0.066 C 
ENDBRANCH   7  24
TORSDOF 2
ENDMDL
MODEL 9
REMARK VINA RESULT:     -10.6      1.899      7.358
REMARK  Name = 9998128
REMARK  2 active torsions:
REMARK  status: ('A' for Active; 'I' for Inactive)
REMARK    1  A    between atoms: N_1  and  C_15
REMARK    2  A    between atoms: C_7  and  C_24
REMARK                            x       y       z     vdW  Elec       q    Type
REMARK                         _______ _______ _______ _____ _____    ______ ____
ROOT
ATOM      1  N   UNL     1      32.975 -23.026 -17.984  0.00  0.00    -0.290 N 
ATOM      2  N   UNL     1      34.803 -23.323 -16.532  0.00  0.00    -0.327 NA
ATOM      3  N   UNL     1      36.952 -22.364 -17.050  0.00  0.00    -0.342 NA
ATOM      4  C   UNL     1      35.115 -22.039 -18.556  0.00  0.00    +0.143 C 
ATOM      5  C   UNL     1      34.339 -22.792 -17.678  0.00  0.00    +0.184 C 
ATOM      6  C   UNL     1      36.456 -21.847 -18.187  0.00  0.00    +0.133 C 
ATOM      7  C   UNL     1      36.099 -23.075 -16.284  0.00  0.00    +0.165 C 
ATOM      8  C   UNL     1      34.607 -21.493 -19.748  0.00  0.00    -0.011 C 
ATOM      9  C   UNL     1      37.265 -21.099 -19.040  0.00  0.00    +0.029 C 
ATOM     10  C   UNL     1      35.436 -20.751 -20.582  0.00  0.00    -0.004 C 
ATOM     11  C   UNL     1      36.767 -20.553 -20.227  0.00  0.00    +0.002 C 
ATOM     12  H   UNL     1      32.784 -23.059 -18.950  0.00  0.00    +0.154 HD
ENDROOT
BRANCH   1  15
ATOM     13  N   UNL     1      28.381 -23.656 -15.011  0.00  0.00    -0.236 N 
ATOM     14  N   UNL     1      27.431 -23.058 -15.749  0.00  0.00    -0.180 NA
ATOM     15  C   UNL     1      31.844 -23.223 -17.176  0.00  0.00    +0.050 C 
ATOM     16  C   UNL     1      29.476 -22.939 -16.771  0.00  0.00    +0.037 C 
ATOM     17  C   UNL     1      29.630 -23.620 -15.569  0.00  0.00    +0.067 C 
ATOM     18  C   UNL     1      30.595 -22.733 -17.594  0.00  0.00    +0.018 C 
ATOM     19  C   UNL     1      31.964 -23.904 -15.958  0.00  0.00    +0.016 C 
ATOM     20  C   UNL     1      30.859 -24.118 -15.128  0.00  0.00    +0.017 C 
ATOM     21  C   UNL     1      28.101 -22.623 -16.819  0.00  0.00    +0.119 C 
ATOM     22  H   UNL     1      28.193 -24.084 -14.145  0.00  0.00    +0.174 HD
ENDBRANCH   1  15
BRANCH   7  24
ATOM     23  N   UNL     1      37.840 -24.231 -15.194  0.00  0.00    -0.398 NA
ATOM     24  C   UNL     1      36.637 -23.625 -15.068  0.00  0.00    +0.197 C 
ATOM     25  C   UNL     1      35.946 -23.526 -13.868  0.00  0.00    +0.098 C 
ATOM     26  C   UNL     1      38.372 -24.759 -14.069  0.00  0.00    +0.110 C 
ATOM     27  C   UNL     1      36.524 -24.081 -12.733  0.00  0.00    -0.016 C 
ATOM     28  C   UNL     1      37.761 -24.711 -12.826  0.00  0.00    +0.023 C 
ATOM     29  C   UNL     1      39.698 -25.427 -14.206  0.00  0.00    +0.066 C 
ENDBRANCH   7  24
TORSDOF 2
ENDMDL
