MODEL 1
REMARK VINA RESULT:     -13.2      0.000      0.000
REMARK  Name = 24871491
REMARK  6 active torsions:
REMARK  status: ('A' for Active; 'I' for Inactive)
REMARK    1  A    between atoms: N_1  and  C_11
REMARK    2  A    between atoms: N_2  and  C_18
REMARK    3  A    between atoms: C_6  and  C_31
REMARK    4  A    between atoms: C_19  and  C_24
REMARK    5  A    between atoms: C_24  and  C_26
REMARK    6  A    between atoms: C_26  and  O_27
REMARK                            x       y       z     vdW  Elec       q    Type
REMARK                         _______ _______ _______ _____ _____    ______ ____
ROOT
ATOM      1  N   UNL     1      33.045 -23.372 -17.297  0.00  0.00    -0.287 N 
ATOM      2  N   UNL     1      34.596 -24.730 -13.058  0.00  0.00    -0.247 N 
ATOM      3  N   UNL     1      33.838 -24.056 -15.170  0.00  0.00    -0.322 NA
ATOM      4  N   UNL     1      32.294 -24.406 -13.354  0.00  0.00    -0.169 NA
ATOM      5  C   UNL     1      32.787 -23.725 -15.950  0.00  0.00    +0.202 C 
ATOM      6  C   UNL     1      31.479 -23.712 -15.509  0.00  0.00    +0.118 C 
ATOM      7  C   UNL     1      33.523 -24.381 -13.902  0.00  0.00    +0.150 C 
ATOM      8  C   UNL     1      31.290 -24.066 -14.189  0.00  0.00    +0.120 C 
ATOM      9  H   UNL     1      32.310 -23.591 -17.913  0.00  0.00    +0.155 HD
ATOM     10  H   UNL     1      34.320 -24.959 -12.142  0.00  0.00    +0.165 HD
ENDROOT
BRANCH   1  11
ATOM     11  C   UNL     1      34.149 -22.771 -17.924  0.00  0.00    +0.050 C 
ATOM     12  C   UNL     1      35.296 -22.478 -17.187  0.00  0.00    +0.010 C 
ATOM     13  C   UNL     1      36.392 -21.881 -17.811  0.00  0.00    -0.021 C 
ATOM     14  C   UNL     1      34.098 -22.467 -19.285  0.00  0.00    +0.015 C 
ATOM     15  C   UNL     1      36.341 -21.577 -19.171  0.00  0.00    -0.004 C 
ATOM     16  C   UNL     1      35.193 -21.869 -19.908  0.00  0.00    +0.001 C 
ATOM     17  C   UNL     1      37.618 -21.566 -17.022  0.00  0.00    +0.031 C 
ENDBRANCH   1  11
BRANCH   2  18
ATOM     18  C   UNL     1      35.988 -24.817 -13.268  0.00  0.00    +0.058 C 
ATOM     19  C   UNL     1      38.741 -24.989 -13.682  0.00  0.00    -0.011 C 
ATOM     20  C   UNL     1      36.745 -25.740 -12.548  0.00  0.00    +0.015 C 
ATOM     21  C   UNL     1      36.607 -23.978 -14.195  0.00  0.00    +0.015 C 
ATOM     22  C   UNL     1      38.122 -25.827 -12.755  0.00  0.00    -0.002 C 
ATOM     23  C   UNL     1      37.983 -24.064 -14.402  0.00  0.00    -0.002 C 
BRANCH  19  24
ATOM     24  C   UNL     1      40.213 -25.081 -13.904  0.00  0.00    +0.136 C 
BRANCH  24  26
ATOM     25  O   UNL     1      41.182 -27.199 -14.613  0.00  0.00    -0.250 OA
ATOM     26  C   UNL     1      40.609 -26.156 -14.897  0.00  0.00    +0.318 C 
BRANCH  26  27
ATOM     27  O   UNL     1      40.252 -25.829 -16.167  0.00  0.00    -0.480 OA
ATOM     28  H   UNL     1      39.376 -25.552 -16.351  0.00  0.00    +0.295 HD
ENDBRANCH  26  27
ENDBRANCH  24  26
ENDBRANCH  19  24
ENDBRANCH   2  18
BRANCH   6  31
ATOM     29  O   UNL     1      30.406 -22.413 -17.156  0.00  0.00    -0.270 OA
ATOM     30  N   UNL     1      29.190 -24.124 -16.233  0.00  0.00    -0.325 N 
ATOM     31  C   UNL     1      30.346 -23.358 -16.348  0.00  0.00    +0.248 C 
ATOM     32  H   UNL     1      28.403 -23.914 -16.785  0.00  0.00    +0.145 HD
ATOM     33  H   UNL     1      29.160 -24.877 -15.600  0.00  0.00    +0.145 HD
ENDBRANCH   6  31
TORSDOF 6
ENDMDL
MODEL 2
REMARK VINA RESULT:     -13.1      0.395      1.302
REMARK  Name = 24871491
REMARK  6 active torsions:
REMARK  status: ('A' for Active; 'I' for Inactive)
REMARK    1  A    between atoms: N_1  and  C_11
REMARK    2  A    between atoms: N_2  and  C_18
REMARK    3  A    between atoms: C_6  and  C_31
REMARK    4  A    between atoms: C_19  and  C_24
REMARK    5  A    between atoms: C_24  and  C_26
REMARK    6  A    between atoms: C_26  and  O_27
REMARK                            x       y       z     vdW  Elec       q    Type
REMARK                         _______ _______ _______ _____ _____    ______ ____
ROOT
ATOM      1  N   UNL     1      33.037 -23.237 -17.343  0.00  0.00    -0.287 N 
ATOM      2  N   UNL     1      34.571 -24.699 -13.132  0.00  0.00    -0.247 N 
ATOM      3  N   UNL     1      33.821 -23.973 -15.231  0.00  0.00    -0.322 NA
ATOM      4  N   UNL     1      32.270 -24.379 -13.433  0.00  0.00    -0.169 NA
ATOM      5  C   UNL     1      32.773 -23.628 -16.008  0.00  0.00    +0.202 C 
ATOM      6  C   UNL     1      31.463 -23.633 -15.574  0.00  0.00    +0.118 C 
ATOM      7  C   UNL     1      33.501 -24.333 -13.973  0.00  0.00    +0.150 C 
ATOM      8  C   UNL     1      31.268 -24.023 -14.264  0.00  0.00    +0.120 C 
ATOM      9  H   UNL     1      32.306 -23.443 -17.969  0.00  0.00    +0.155 HD
ATOM     10  H   UNL     1      34.291 -24.953 -12.224  0.00  0.00    +0.165 HD
ENDROOT
BRANCH   1  11
ATOM     11  C   UNL     1      34.140 -22.613 -17.948  0.00  0.00    +0.050 C 
ATOM     12  C   UNL     1      33.974 -21.903 -19.137  0.00  0.00    +0.010 C 
ATOM     13  C   UNL     1      35.071 -21.283 -19.737  0.00  0.00    -0.021 C 
ATOM     14  C   UNL     1      35.401 -22.702 -17.359  0.00  0.00    +0.015 C 
ATOM     15  C   UNL     1      36.332 -21.372 -19.148  0.00  0.00    -0.004 C 
ATOM     16  C   UNL     1      36.497 -22.083 -17.960  0.00  0.00    +0.001 C 
ATOM     17  C   UNL     1      34.894 -20.525 -21.009  0.00  0.00    +0.031 C 
ENDBRANCH   1  11
BRANCH   2  18
ATOM     18  C   UNL     1      35.965 -24.772 -13.337  0.00  0.00    +0.058 C 
ATOM     19  C   UNL     1      38.721 -24.918 -13.740  0.00  0.00    -0.011 C 
ATOM     20  C   UNL     1      36.707 -25.778 -12.720  0.00  0.00    +0.015 C 
ATOM     21  C   UNL     1      36.600 -23.838 -14.155  0.00  0.00    +0.015 C 
ATOM     22  C   UNL     1      38.086 -25.851 -12.922  0.00  0.00    -0.002 C 
ATOM     23  C   UNL     1      37.978 -23.911 -14.356  0.00  0.00    -0.002 C 
BRANCH  19  24
ATOM     24  C   UNL     1      40.195 -24.996 -13.955  0.00  0.00    +0.136 C 
BRANCH  24  26
ATOM     25  O   UNL     1      41.173 -27.130 -14.602  0.00  0.00    -0.250 OA
ATOM     26  C   UNL     1      40.608 -26.092 -14.918  0.00  0.00    +0.318 C 
BRANCH  26  27
ATOM     27  O   UNL     1      40.277 -25.790 -16.201  0.00  0.00    -0.480 OA
ATOM     28  H   UNL     1      40.910 -25.894 -16.884  0.00  0.00    +0.295 HD
ENDBRANCH  26  27
ENDBRANCH  24  26
ENDBRANCH  19  24
ENDBRANCH   2  18
BRANCH   6  31
ATOM     29  O   UNL     1      30.407 -22.326 -17.225  0.00  0.00    -0.270 OA
ATOM     30  N   UNL     1      29.162 -24.005 -16.282  0.00  0.00    -0.325 N 
ATOM     31  C   UNL     1      30.332 -23.263 -16.410  0.00  0.00    +0.248 C 
ATOM     32  H   UNL     1      28.376 -23.783 -16.831  0.00  0.00    +0.145 HD
ATOM     33  H   UNL     1      29.120 -24.752 -15.642  0.00  0.00    +0.145 HD
ENDBRANCH   6  31
TORSDOF 6
ENDMDL
MODEL 3
REMARK VINA RESULT:     -12.3      2.163      7.473
REMARK  Name = 24871491
REMARK  6 active torsions:
REMARK  status: ('A' for Active; 'I' for Inactive)
REMARK    1  A    between atoms: N_1  and  C_11
REMARK    2  A    between atoms: N_2  and  C_18
REMARK    3  A    between atoms: C_6  and  C_31
REMARK    4  A    between atoms: C_19  and  C_24
REMARK    5  A    between atoms: C_24  and  C_26
REMARK    6  A    between atoms: C_26  and  O_27
REMARK                            x       y       z     vdW  Elec       q    Type
REMARK                         _______ _______ _______ _____ _____    ______ ____
ROOT
ATOM      1  N   UNL     1      35.692 -22.613 -15.759  0.00  0.00    -0.287 N 
ATOM      2  N   UNL     1      31.938 -24.559 -13.674  0.00  0.00    -0.247 N 
ATOM      3  N   UNL     1      33.796 -23.587 -14.720  0.00  0.00    -0.322 NA
ATOM      4  N   UNL     1      34.032 -24.796 -12.649  0.00  0.00    -0.169 NA
ATOM      5  C   UNL     1      35.126 -23.359 -14.695  0.00  0.00    +0.202 C 
ATOM      6  C   UNL     1      35.963 -23.811 -13.695  0.00  0.00    +0.118 C 
ATOM      7  C   UNL     1      33.323 -24.301 -13.681  0.00  0.00    +0.150 C 
ATOM      8  C   UNL     1      35.355 -24.531 -12.687  0.00  0.00    +0.120 C 
ATOM      9  H   UNL     1      36.486 -22.093 -15.500  0.00  0.00    +0.155 HD
ATOM     10  H   UNL     1      31.638 -25.084 -12.898  0.00  0.00    +0.165 HD
ENDROOT
BRANCH   1  11
ATOM     11  C   UNL     1      35.338 -22.473 -17.110  0.00  0.00    +0.050 C 
ATOM     12  C   UNL     1      36.183 -21.787 -17.985  0.00  0.00    +0.010 C 
ATOM     13  C   UNL     1      35.831 -21.648 -19.327  0.00  0.00    -0.021 C 
ATOM     14  C   UNL     1      34.144 -23.019 -17.580  0.00  0.00    +0.015 C 
ATOM     15  C   UNL     1      34.637 -22.194 -19.797  0.00  0.00    -0.004 C 
ATOM     16  C   UNL     1      33.792 -22.879 -18.923  0.00  0.00    +0.001 C 
ATOM     17  C   UNL     1      36.733 -20.914 -20.262  0.00  0.00    +0.031 C 
ENDBRANCH   1  11
BRANCH   2  18
ATOM     18  C   UNL     1      30.897 -24.213 -14.561  0.00  0.00    +0.058 C 
ATOM     19  C   UNL     1      28.839 -23.528 -16.313  0.00  0.00    -0.011 C 
ATOM     20  C   UNL     1      30.671 -22.876 -14.881  0.00  0.00    +0.015 C 
ATOM     21  C   UNL     1      30.094 -25.210 -15.116  0.00  0.00    +0.015 C 
ATOM     22  C   UNL     1      29.641 -22.533 -15.758  0.00  0.00    -0.002 C 
ATOM     23  C   UNL     1      29.065 -24.867 -15.993  0.00  0.00    -0.002 C 
BRANCH  19  24
ATOM     24  C   UNL     1      27.738 -23.162 -17.251  0.00  0.00    +0.136 C 
BRANCH  24  26
ATOM     25  O   UNL     1      26.144 -22.305 -15.622  0.00  0.00    -0.250 OA
ATOM     26  C   UNL     1      26.757 -22.163 -16.671  0.00  0.00    +0.318 C 
BRANCH  26  27
ATOM     27  O   UNL     1      26.626 -21.064 -17.461  0.00  0.00    -0.480 OA
ATOM     28  H   UNL     1      27.031 -21.044 -18.306  0.00  0.00    +0.295 HD
ENDBRANCH  26  27
ENDBRANCH  24  26
ENDBRANCH  19  24
ENDBRANCH   2  18
BRANCH   6  31
ATOM     29  O   UNL     1      38.085 -23.625 -14.700  0.00  0.00    -0.270 OA
ATOM     30  N   UNL     1      37.973 -23.242 -12.442  0.00  0.00    -0.325 N 
ATOM     31  C   UNL     1      37.396 -23.566 -13.666  0.00  0.00    +0.248 C 
ATOM     32  H   UNL     1      38.940 -23.070 -12.384  0.00  0.00    +0.145 HD
ATOM     33  H   UNL     1      37.413 -23.186 -11.634  0.00  0.00    +0.145 HD
ENDBRANCH   6  31
TORSDOF 6
ENDMDL
MODEL 4
REMARK VINA RESULT:     -11.9      3.066      6.535
REMARK  Name = 24871491
REMARK  6 active torsions:
REMARK  status: ('A' for Active; 'I' for Inactive)
REMARK    1  A    between atoms: N_1  and  C_11
REMARK    2  A    between atoms: N_2  and  C_18
REMARK    3  A    between atoms: C_6  and  C_31
REMARK    4  A    between atoms: C_19  and  C_24
REMARK    5  A    between atoms: C_24  and  C_26
REMARK    6  A    between atoms: C_26  and  O_27
REMARK                            x       y       z     vdW  Elec       q    Type
REMARK                         _______ _______ _______ _____ _____    ______ ____
ROOT
ATOM      1  N   UNL     1      34.377 -23.612 -14.591  0.00  0.00    -0.287 N 
ATOM      2  N   UNL     1      32.376 -22.271 -18.643  0.00  0.00    -0.247 N 
ATOM      3  N   UNL     1      33.382 -22.932 -16.632  0.00  0.00    -0.322 NA
ATOM      4  N   UNL     1      31.061 -23.406 -17.071  0.00  0.00    -0.169 NA
ATOM      5  C   UNL     1      33.243 -23.542 -15.436  0.00  0.00    +0.202 C 
ATOM      6  C   UNL     1      32.060 -24.101 -14.995  0.00  0.00    +0.118 C 
ATOM      7  C   UNL     1      32.267 -22.900 -17.387  0.00  0.00    +0.150 C 
ATOM      8  C   UNL     1      30.991 -24.001 -15.861  0.00  0.00    +0.120 C 
ATOM      9  H   UNL     1      34.157 -23.619 -13.632  0.00  0.00    +0.155 HD
ATOM     10  H   UNL     1      31.539 -22.272 -19.159  0.00  0.00    +0.165 HD
ENDROOT
BRANCH   1  11
ATOM     11  C   UNL     1      35.754 -23.674 -14.856  0.00  0.00    +0.050 C 
ATOM     12  C   UNL     1      36.547 -24.621 -14.207  0.00  0.00    +0.010 C 
ATOM     13  C   UNL     1      37.916 -24.682 -14.471  0.00  0.00    -0.021 C 
ATOM     14  C   UNL     1      36.330 -22.790 -15.768  0.00  0.00    +0.015 C 
ATOM     15  C   UNL     1      38.491 -23.798 -15.383  0.00  0.00    -0.004 C 
ATOM     16  C   UNL     1      37.698 -22.851 -16.031  0.00  0.00    +0.001 C 
ATOM     17  C   UNL     1      38.764 -25.693 -13.776  0.00  0.00    +0.031 C 
ENDBRANCH   1  11
BRANCH   2  18
ATOM     18  C   UNL     1      33.449 -21.640 -19.306  0.00  0.00    +0.058 C 
ATOM     19  C   UNL     1      35.572 -20.392 -20.615  0.00  0.00    -0.011 C 
ATOM     20  C   UNL     1      34.761 -22.022 -19.028  0.00  0.00    +0.015 C 
ATOM     21  C   UNL     1      33.198 -20.633 -20.238  0.00  0.00    +0.015 C 
ATOM     22  C   UNL     1      35.823 -21.397 -19.683  0.00  0.00    -0.002 C 
ATOM     23  C   UNL     1      34.259 -20.009 -20.893  0.00  0.00    -0.002 C 
BRANCH  19  24
ATOM     24  C   UNL     1      36.707 -19.724 -21.316  0.00  0.00    +0.136 C 
BRANCH  24  26
ATOM     25  O   UNL     1      35.882 -17.434 -21.368  0.00  0.00    -0.250 OA
ATOM     26  C   UNL     1      36.328 -18.406 -21.962  0.00  0.00    +0.318 C 
BRANCH  26  27
ATOM     27  O   UNL     1      36.541 -18.420 -23.304  0.00  0.00    -0.480 OA
ATOM     28  H   UNL     1      35.983 -17.926 -23.872  0.00  0.00    +0.295 HD
ENDBRANCH  26  27
ENDBRANCH  24  26
ENDBRANCH  19  24
ENDBRANCH   2  18
BRANCH   6  31
ATOM     29  O   UNL     1      32.891 -25.022 -12.992  0.00  0.00    -0.270 OA
ATOM     30  N   UNL     1      30.618 -25.066 -13.286  0.00  0.00    -0.325 N 
ATOM     31  C   UNL     1      31.908 -24.758 -13.706  0.00  0.00    +0.248 C 
ATOM     32  H   UNL     1      30.476 -25.512 -12.419  0.00  0.00    +0.145 HD
ATOM     33  H   UNL     1      29.847 -24.840 -13.855  0.00  0.00    +0.145 HD
ENDBRANCH   6  31
TORSDOF 6
ENDMDL
MODEL 5
REMARK VINA RESULT:     -11.8      2.070      7.095
REMARK  Name = 24871491
REMARK  6 active torsions:
REMARK  status: ('A' for Active; 'I' for Inactive)
REMARK    1  A    between atoms: N_1  and  C_11
REMARK    2  A    between atoms: N_2  and  C_18
REMARK    3  A    between atoms: C_6  and  C_31
REMARK    4  A    between atoms: C_19  and  C_24
REMARK    5  A    between atoms: C_24  and  C_26
REMARK    6  A    between atoms: C_26  and  O_27
REMARK                            x       y       z     vdW  Elec       q    Type
REMARK                         _______ _______ _______ _____ _____    ______ ____
ROOT
ATOM      1  N   UNL     1      36.206 -22.703 -16.762  0.00  0.00    -0.287 N 
ATOM      2  N   UNL     1      33.084 -24.910 -14.005  0.00  0.00    -0.247 N 
ATOM      3  N   UNL     1      34.626 -23.806 -15.381  0.00  0.00    -0.322 NA
ATOM      4  N   UNL     1      35.357 -25.416 -13.745  0.00  0.00    -0.169 NA
ATOM      5  C   UNL     1      35.918 -23.630 -15.731  0.00  0.00    +0.202 C 
ATOM      6  C   UNL     1      36.970 -24.302 -15.142  0.00  0.00    +0.118 C 
ATOM      7  C   UNL     1      34.422 -24.700 -14.395  0.00  0.00    +0.150 C 
ATOM      8  C   UNL     1      36.627 -25.191 -14.144  0.00  0.00    +0.120 C 
ATOM      9  H   UNL     1      37.086 -22.271 -16.674  0.00  0.00    +0.155 HD
ATOM     10  H   UNL     1      32.982 -25.572 -13.283  0.00  0.00    +0.165 HD
ENDROOT
BRANCH   1  11
ATOM     11  C   UNL     1      35.479 -22.280 -17.887  0.00  0.00    +0.050 C 
ATOM     12  C   UNL     1      36.097 -21.497 -18.862  0.00  0.00    +0.010 C 
ATOM     13  C   UNL     1      35.374 -21.077 -19.979  0.00  0.00    -0.021 C 
ATOM     14  C   UNL     1      34.140 -22.644 -18.029  0.00  0.00    +0.015 C 
ATOM     15  C   UNL     1      34.035 -21.441 -20.122  0.00  0.00    -0.004 C 
ATOM     16  C   UNL     1      33.418 -22.223 -19.146  0.00  0.00    +0.001 C 
ATOM     17  C   UNL     1      36.034 -20.239 -21.022  0.00  0.00    +0.031 C 
ENDBRANCH   1  11
BRANCH   2  18
ATOM     18  C   UNL     1      31.863 -24.359 -14.443  0.00  0.00    +0.058 C 
ATOM     19  C   UNL     1      29.447 -23.269 -15.312  0.00  0.00    -0.011 C 
ATOM     20  C   UNL     1      30.753 -25.182 -14.628  0.00  0.00    +0.015 C 
ATOM     21  C   UNL     1      31.766 -22.990 -14.694  0.00  0.00    +0.015 C 
ATOM     22  C   UNL     1      29.544 -24.637 -15.063  0.00  0.00    -0.002 C 
ATOM     23  C   UNL     1      30.558 -22.445 -15.129  0.00  0.00    -0.002 C 
BRANCH  19  24
ATOM     24  C   UNL     1      28.155 -22.685 -15.777  0.00  0.00    +0.136 C 
BRANCH  24  26
ATOM     25  O   UNL     1      28.567 -23.614 -17.990  0.00  0.00    -0.250 OA
ATOM     26  C   UNL     1      27.870 -22.940 -17.244  0.00  0.00    +0.318 C 
BRANCH  26  27
ATOM     27  O   UNL     1      26.729 -22.323 -17.652  0.00  0.00    -0.480 OA
ATOM     28  H   UNL     1      25.929 -22.807 -17.708  0.00  0.00    +0.295 HD
ENDBRANCH  26  27
ENDBRANCH  24  26
ENDBRANCH  19  24
ENDBRANCH   2  18
BRANCH   6  31
ATOM     29  O   UNL     1      38.780 -23.018 -15.931  0.00  0.00    -0.270 OA
ATOM     30  N   UNL     1      39.222 -25.198 -15.378  0.00  0.00    -0.325 N 
ATOM     31  C   UNL     1      38.362 -24.114 -15.516  0.00  0.00    +0.248 C 
ATOM     32  H   UNL     1      40.172 -25.108 -15.623  0.00  0.00    +0.145 HD
ATOM     33  H   UNL     1      38.881 -26.057 -15.037  0.00  0.00    +0.145 HD
ENDBRANCH   6  31
TORSDOF 6
ENDMDL
MODEL 6
REMARK VINA RESULT:     -11.3      2.970      7.312
REMARK  Name = 24871491
REMARK  6 active torsions:
REMARK  status: ('A' for Active; 'I' for Inactive)
REMARK    1  A    between atoms: N_1  and  C_11
REMARK    2  A    between atoms: N_2  and  C_18
REMARK    3  A    between atoms: C_6  and  C_31
REMARK    4  A    between atoms: C_19  and  C_24
REMARK    5  A    between atoms: C_24  and  C_26
REMARK    6  A    between atoms: C_26  and  O_27
REMARK                            x       y       z     vdW  Elec       q    Type
REMARK                         _______ _______ _______ _____ _____    ______ ____
ROOT
ATOM      1  N   UNL     1      34.546 -24.877 -14.339  0.00  0.00    -0.287 N 
ATOM      2  N   UNL     1      37.448 -22.493 -17.188  0.00  0.00    -0.247 N 
ATOM      3  N   UNL     1      35.995 -23.676 -15.779  0.00  0.00    -0.322 NA
ATOM      4  N   UNL     1      38.364 -23.617 -15.346  0.00  0.00    -0.169 NA
ATOM      5  C   UNL     1      35.851 -24.448 -14.682  0.00  0.00    +0.202 C 
ATOM      6  C   UNL     1      36.902 -24.840 -13.878  0.00  0.00    +0.118 C 
ATOM      7  C   UNL     1      37.261 -23.302 -16.049  0.00  0.00    +0.150 C 
ATOM      8  C   UNL     1      38.149 -24.391 -14.262  0.00  0.00    +0.120 C 
ATOM      9  H   UNL     1      34.522 -25.746 -13.877  0.00  0.00    +0.155 HD
ATOM     10  H   UNL     1      38.387 -22.245 -17.345  0.00  0.00    +0.165 HD
ENDROOT
BRANCH   1  11
ATOM     11  C   UNL     1      33.278 -24.304 -14.531  0.00  0.00    +0.050 C 
ATOM     12  C   UNL     1      32.928 -23.787 -15.779  0.00  0.00    +0.010 C 
ATOM     13  C   UNL     1      31.669 -23.218 -15.969  0.00  0.00    -0.021 C 
ATOM     14  C   UNL     1      32.369 -24.252 -13.475  0.00  0.00    +0.015 C 
ATOM     15  C   UNL     1      30.760 -23.166 -14.913  0.00  0.00    -0.004 C 
ATOM     16  C   UNL     1      31.110 -23.682 -13.665  0.00  0.00    +0.001 C 
ATOM     17  C   UNL     1      31.295 -22.665 -17.302  0.00  0.00    +0.031 C 
ENDBRANCH   1  11
BRANCH   2  18
ATOM     18  C   UNL     1      36.556 -21.971 -18.146  0.00  0.00    +0.058 C 
ATOM     19  C   UNL     1      34.790 -20.939 -20.043  0.00  0.00    -0.011 C 
ATOM     20  C   UNL     1      35.203 -22.304 -18.093  0.00  0.00    +0.015 C 
ATOM     21  C   UNL     1      37.027 -21.123 -19.148  0.00  0.00    +0.015 C 
ATOM     22  C   UNL     1      34.320 -21.788 -19.042  0.00  0.00    -0.002 C 
ATOM     23  C   UNL     1      36.144 -20.607 -20.097  0.00  0.00    -0.002 C 
BRANCH  19  24
ATOM     24  C   UNL     1      33.846 -20.387 -21.057  0.00  0.00    +0.136 C 
BRANCH  24  26
ATOM     25  O   UNL     1      34.821 -19.623 -23.154  0.00  0.00    -0.250 OA
ATOM     26  C   UNL     1      34.487 -19.389 -22.000  0.00  0.00    +0.318 C 
BRANCH  26  27
ATOM     27  O   UNL     1      34.659 -18.175 -21.413  0.00  0.00    -0.480 OA
ATOM     28  H   UNL     1      35.461 -17.978 -20.971  0.00  0.00    +0.295 HD
ENDBRANCH  26  27
ENDBRANCH  24  26
ENDBRANCH  19  24
ENDBRANCH   2  18
BRANCH   6  31
ATOM     29  O   UNL     1      36.258 -25.224 -11.645  0.00  0.00    -0.270 OA
ATOM     30  N   UNL     1      37.155 -27.001 -12.782  0.00  0.00    -0.325 N 
ATOM     31  C   UNL     1      36.749 -25.673 -12.696  0.00  0.00    +0.248 C 
ATOM     32  H   UNL     1      37.068 -27.594 -12.002  0.00  0.00    +0.145 HD
ATOM     33  H   UNL     1      37.531 -27.347 -13.624  0.00  0.00    +0.145 HD
ENDBRANCH   6  31
TORSDOF 6
ENDMDL
MODEL 7
REMARK VINA RESULT:     -10.6      2.984      7.130
REMARK  Name = 24871491
REMARK  6 active torsions:
REMARK  status: ('A' for Active; 'I' for Inactive)
REMARK    1  A    between atoms: N_1  and  C_11
REMARK    2  A    between atoms: N_2  and  C_18
REMARK    3  A    between atoms: C_6  and  C_31
REMARK    4  A    between atoms: C_19  and  C_24
REMARK    5  A    between atoms: C_24  and  C_26
REMARK    6  A    between atoms: C_26  and  O_27
REMARK                            x       y       z     vdW  Elec       q    Type
REMARK                         _______ _______ _______ _____ _____    ______ ____
ROOT
ATOM      1  N   UNL     1      34.025 -24.497 -13.093  0.00  0.00    -0.287 N 
ATOM      2  N   UNL     1      37.267 -22.388 -15.789  0.00  0.00    -0.247 N 
ATOM      3  N   UNL     1      35.647 -23.436 -14.459  0.00  0.00    -0.322 NA
ATOM      4  N   UNL     1      37.846 -22.969 -13.594  0.00  0.00    -0.169 NA
ATOM      5  C   UNL     1      35.331 -23.976 -13.262  0.00  0.00    +0.202 C 
ATOM      6  C   UNL     1      36.208 -24.046 -12.199  0.00  0.00    +0.118 C 
ATOM      7  C   UNL     1      36.903 -22.959 -14.554  0.00  0.00    +0.150 C 
ATOM      8  C   UNL     1      37.465 -23.523 -12.424  0.00  0.00    +0.120 C 
ATOM      9  H   UNL     1      33.976 -25.245 -12.456  0.00  0.00    +0.155 HD
ATOM     10  H   UNL     1      38.191 -22.052 -15.812  0.00  0.00    +0.165 HD
ENDROOT
BRANCH   1  11
ATOM     11  C   UNL     1      32.787 -24.152 -13.658  0.00  0.00    +0.050 C 
ATOM     12  C   UNL     1      31.808 -25.130 -13.842  0.00  0.00    +0.010 C 
ATOM     13  C   UNL     1      30.578 -24.787 -14.403  0.00  0.00    -0.021 C 
ATOM     14  C   UNL     1      32.534 -22.833 -14.034  0.00  0.00    +0.015 C 
ATOM     15  C   UNL     1      30.325 -23.468 -14.779  0.00  0.00    -0.004 C 
ATOM     16  C   UNL     1      31.304 -22.491 -14.596  0.00  0.00    +0.001 C 
ATOM     17  C   UNL     1      29.533 -25.832 -14.602  0.00  0.00    +0.031 C 
ENDBRANCH   1  11
BRANCH   2  18
ATOM     18  C   UNL     1      36.567 -22.202 -16.999  0.00  0.00    +0.058 C 
ATOM     19  C   UNL     1      35.182 -21.835 -19.392  0.00  0.00    -0.011 C 
ATOM     20  C   UNL     1      35.269 -22.693 -17.136  0.00  0.00    +0.015 C 
ATOM     21  C   UNL     1      37.173 -21.527 -18.059  0.00  0.00    +0.015 C 
ATOM     22  C   UNL     1      34.576 -22.510 -18.333  0.00  0.00    -0.002 C 
ATOM     23  C   UNL     1      36.481 -21.344 -19.255  0.00  0.00    -0.002 C 
BRANCH  19  24
ATOM     24  C   UNL     1      34.441 -21.639 -20.672  0.00  0.00    +0.136 C 
BRANCH  24  26
ATOM     25  O   UNL     1      34.235 -19.275 -21.218  0.00  0.00    -0.250 OA
ATOM     26  C   UNL     1      33.740 -20.298 -20.765  0.00  0.00    +0.318 C 
BRANCH  26  27
ATOM     27  O   UNL     1      32.472 -20.355 -20.279  0.00  0.00    -0.480 OA
ATOM     28  H   UNL     1      31.884 -21.019 -20.581  0.00  0.00    +0.295 HD
ENDBRANCH  26  27
ENDBRANCH  24  26
ENDBRANCH  19  24
ENDBRANCH   2  18
BRANCH   6  31
ATOM     29  O   UNL     1      35.215 -25.681 -10.825  0.00  0.00    -0.270 OA
ATOM     30  N   UNL     1      36.324 -23.976  -9.767  0.00  0.00    -0.325 N 
ATOM     31  C   UNL     1      35.871 -24.628 -10.909  0.00  0.00    +0.248 C 
ATOM     32  H   UNL     1      36.114 -24.340  -8.876  0.00  0.00    +0.145 HD
ATOM     33  H   UNL     1      36.853 -23.150  -9.848  0.00  0.00    +0.145 HD
ENDBRANCH   6  31
TORSDOF 6
ENDMDL
MODEL 8
REMARK VINA RESULT:     -10.2     13.946     16.880
REMARK  Name = 24871491
REMARK  6 active torsions:
REMARK  status: ('A' for Active; 'I' for Inactive)
REMARK    1  A    between atoms: N_1  and  C_11
REMARK    2  A    between atoms: N_2  and  C_18
REMARK    3  A    between atoms: C_6  and  C_31
REMARK    4  A    between atoms: C_19  and  C_24
REMARK    5  A    between atoms: C_24  and  C_26
REMARK    6  A    between atoms: C_26  and  O_27
REMARK                            x       y       z     vdW  Elec       q    Type
REMARK                         _______ _______ _______ _____ _____    ______ ____
ROOT
ATOM      1  N   UNL     1      32.642  -6.888 -22.275  0.00  0.00    -0.287 N 
ATOM      2  N   UNL     1      32.294 -11.489 -21.312  0.00  0.00    -0.247 N 
ATOM      3  N   UNL     1      32.470  -9.204 -21.804  0.00  0.00    -0.322 NA
ATOM      4  N   UNL     1      31.798  -9.952 -19.614  0.00  0.00    -0.169 NA
ATOM      5  C   UNL     1      32.353  -7.933 -21.365  0.00  0.00    +0.202 C 
ATOM      6  C   UNL     1      31.969  -7.598 -20.082  0.00  0.00    +0.118 C 
ATOM      7  C   UNL     1      32.181 -10.150 -20.889  0.00  0.00    +0.150 C 
ATOM      8  C   UNL     1      31.701  -8.659 -19.242  0.00  0.00    +0.120 C 
ATOM      9  H   UNL     1      32.132  -6.063 -22.108  0.00  0.00    +0.155 HD
ATOM     10  H   UNL     1      32.075 -12.145 -20.612  0.00  0.00    +0.165 HD
ENDROOT
BRANCH   1  11
ATOM     11  C   UNL     1      33.515  -6.800 -23.371  0.00  0.00    +0.050 C 
ATOM     12  C   UNL     1      33.230  -5.927 -24.422  0.00  0.00    +0.010 C 
ATOM     13  C   UNL     1      34.099  -5.840 -25.510  0.00  0.00    -0.021 C 
ATOM     14  C   UNL     1      34.669  -7.583 -23.409  0.00  0.00    +0.015 C 
ATOM     15  C   UNL     1      35.252  -6.623 -25.548  0.00  0.00    -0.004 C 
ATOM     16  C   UNL     1      35.537  -7.496 -24.497  0.00  0.00    +0.001 C 
ATOM     17  C   UNL     1      33.793  -4.909 -26.635  0.00  0.00    +0.031 C 
ENDBRANCH   1  11
BRANCH   2  18
ATOM     18  C   UNL     1      32.659 -12.075 -22.542  0.00  0.00    +0.058 C 
ATOM     19  C   UNL     1      33.382 -13.235 -24.973  0.00  0.00    -0.011 C 
ATOM     20  C   UNL     1      32.311 -13.397 -22.814  0.00  0.00    +0.015 C 
ATOM     21  C   UNL     1      33.370 -11.332 -23.484  0.00  0.00    +0.015 C 
ATOM     22  C   UNL     1      32.672 -13.978 -24.030  0.00  0.00    -0.002 C 
ATOM     23  C   UNL     1      33.731 -11.912 -24.700  0.00  0.00    -0.002 C 
BRANCH  19  24
ATOM     24  C   UNL     1      33.768 -13.855 -26.274  0.00  0.00    +0.136 C 
BRANCH  24  26
ATOM     25  O   UNL     1      34.720 -16.073 -25.949  0.00  0.00    -0.250 OA
ATOM     26  C   UNL     1      33.763 -15.371 -26.246  0.00  0.00    +0.318 C 
BRANCH  26  27
ATOM     27  O   UNL     1      32.552 -15.880 -26.597  0.00  0.00    -0.480 OA
ATOM     28  H   UNL     1      32.068 -15.494 -27.300  0.00  0.00    +0.295 HD
ENDBRANCH  26  27
ENDBRANCH  24  26
ENDBRANCH  19  24
ENDBRANCH   2  18
BRANCH   6  31
ATOM     29  O   UNL     1      32.659  -5.741 -18.808  0.00  0.00    -0.270 OA
ATOM     30  N   UNL     1      30.780  -5.472 -20.094  0.00  0.00    -0.325 N 
ATOM     31  C   UNL     1      31.841  -6.229 -19.608  0.00  0.00    +0.248 C 
ATOM     32  H   UNL     1      30.661  -4.542 -19.795  0.00  0.00    +0.145 HD
ATOM     33  H   UNL     1      30.147  -5.867 -20.737  0.00  0.00    +0.145 HD
ENDBRANCH   6  31
TORSDOF 6
ENDMDL
