MODEL 1
REMARK VINA RESULT:     -12.4      0.000      0.000
REMARK  Name = 46937091
REMARK  8 active torsions:
REMARK  status: ('A' for Active; 'I' for Inactive)
REMARK    1  A    between atoms: C_1  and  C_4
REMARK    2  A    between atoms: C_1  and  C_18
REMARK    3  A    between atoms: C_10  and  C_12
REMARK    4  A    between atoms: C_18  and  C_19
REMARK    5  A    between atoms: C_19  and  N_20
REMARK    6  A    between atoms: C_19  and  C_30
REMARK    7  A    between atoms: C_24  and  C_27
REMARK    8  A    between atoms: C_30  and  O_32
REMARK                            x       y       z     vdW  Elec       q    Type
REMARK                         _______ _______ _______ _____ _____    ______ ____
ROOT
ATOM      1  C   UNL     1      34.719 -24.639 -14.608  0.00  0.00    +0.031 C 
ENDROOT
BRANCH   1   4
ATOM      2  O   UNL     1      33.833 -23.040 -17.059  0.00  0.00    -0.425 OA
ATOM      3  N   UNL     1      31.718 -22.603 -17.744  0.00  0.00    -0.368 NA
ATOM      4  C   UNL     1      33.302 -24.365 -15.042  0.00  0.00    +0.014 C 
ATOM      5  C   UNL     1      32.975 -23.625 -16.173  0.00  0.00    +0.170 C 
ATOM      6  C   UNL     1      32.217 -24.854 -14.306  0.00  0.00    -0.005 C 
ATOM      7  C   UNL     1      31.682 -23.357 -16.596  0.00  0.00    +0.151 C 
ATOM      8  C   UNL     1      30.896 -24.605 -14.698  0.00  0.00    -0.019 C 
ATOM      9  C   UNL     1      30.606 -23.854 -15.847  0.00  0.00    +0.088 C 
ATOM     10  C   UNL     1      33.005 -22.451 -17.966  0.00  0.00    +0.282 C 
BRANCH  10  12
ATOM     11 CL   UNL     1      35.742 -19.544 -22.374  0.00  0.00    -0.082 Cl
ATOM     12  C   UNL     1      33.667 -21.749 -19.031  0.00  0.00    +0.066 C 
ATOM     13  C   UNL     1      32.934 -20.917 -19.878  0.00  0.00    +0.007 C 
ATOM     14  C   UNL     1      35.040 -21.898 -19.217  0.00  0.00    +0.007 C 
ATOM     15  C   UNL     1      33.576 -20.236 -20.912  0.00  0.00    +0.012 C 
ATOM     16  C   UNL     1      35.682 -21.217 -20.251  0.00  0.00    +0.012 C 
ATOM     17  C   UNL     1      34.950 -20.385 -21.098  0.00  0.00    +0.058 C 
ENDBRANCH  10  12
ENDBRANCH   1   4
BRANCH   1  18
ATOM     18  C   UNL     1      35.015 -24.280 -13.142  0.00  0.00    +0.023 C 
BRANCH  18  19
ATOM     19  C   UNL     1      36.346 -23.518 -12.906  0.00  0.00    +0.087 C 
BRANCH  19  20
ATOM     20  N   UNL     1      37.440 -23.927 -13.885  0.00  0.00    -0.246 NA
ATOM     21  N   UNL     1      38.747 -23.886 -15.679  0.00  0.00    -0.251 NA
ATOM     22  C   UNL     1      38.284 -24.992 -13.756  0.00  0.00    +0.125 C 
ATOM     23  C   UNL     1      37.755 -23.292 -15.054  0.00  0.00    +0.201 C 
ATOM     24  C   UNL     1      39.083 -24.947 -14.875  0.00  0.00    +0.124 C 
BRANCH  24  27
ATOM     25  O   UNL     1      40.619 -25.941 -16.357  0.00  0.00    -0.269 OA
ATOM     26  N   UNL     1      40.649 -26.681 -14.187  0.00  0.00    -0.324 N 
ATOM     27  C   UNL     1      40.133 -25.860 -15.201  0.00  0.00    +0.257 C 
ATOM     28  H   UNL     1      41.373 -27.317 -14.388  0.00  0.00    +0.145 HD
ATOM     29  H   UNL     1      40.288 -26.620 -13.274  0.00  0.00    +0.145 HD
ENDBRANCH  24  27
ENDBRANCH  19  20
BRANCH  19  30
ATOM     30  C   UNL     1      36.786 -23.638 -11.422  0.00  0.00    +0.125 C 
ATOM     31  C   UNL     1      35.718 -24.231 -10.509  0.00  0.00    +0.033 C 
BRANCH  30  32
ATOM     32  O   UNL     1      37.191 -22.370 -10.910  0.00  0.00    -0.383 OA
ATOM     33  H   UNL     1      38.001 -22.083 -11.361  0.00  0.00    +0.210 HD
ENDBRANCH  30  32
ENDBRANCH  19  30
ENDBRANCH  18  19
ENDBRANCH   1  18
TORSDOF 8
ENDMDL
MODEL 2
REMARK VINA RESULT:     -12.3      3.556      7.456
REMARK  Name = 46937091
REMARK  8 active torsions:
REMARK  status: ('A' for Active; 'I' for Inactive)
REMARK    1  A    between atoms: C_1  and  C_4
REMARK    2  A    between atoms: C_1  and  C_18
REMARK    3  A    between atoms: C_10  and  C_12
REMARK    4  A    between atoms: C_18  and  C_19
REMARK    5  A    between atoms: C_19  and  N_20
REMARK    6  A    between atoms: C_19  and  C_30
REMARK    7  A    between atoms: C_24  and  C_27
REMARK    8  A    between atoms: C_30  and  O_32
REMARK                            x       y       z     vdW  Elec       q    Type
REMARK                         _______ _______ _______ _____ _____    ______ ____
ROOT
ATOM      1  C   UNL     1      32.964 -23.446 -17.375  0.00  0.00    +0.031 C 
ENDROOT
BRANCH   1   4
ATOM      2  O   UNL     1      34.782 -21.651 -19.055  0.00  0.00    -0.425 OA
ATOM      3  N   UNL     1      36.964 -21.156 -18.695  0.00  0.00    -0.368 NA
ATOM      4  C   UNL     1      34.414 -23.132 -17.112  0.00  0.00    +0.014 C 
ATOM      5  C   UNL     1      35.180 -22.304 -17.924  0.00  0.00    +0.170 C 
ATOM      6  C   UNL     1      35.078 -23.677 -16.007  0.00  0.00    -0.005 C 
ATOM      7  C   UNL     1      36.515 -21.999 -17.707  0.00  0.00    +0.151 C 
ATOM      8  C   UNL     1      36.425 -23.395 -15.752  0.00  0.00    -0.019 C 
ATOM      9  C   UNL     1      37.165 -22.552 -16.595  0.00  0.00    +0.088 C 
ATOM     10  C   UNL     1      35.903 -20.989 -19.454  0.00  0.00    +0.282 C 
BRANCH  10  12
ATOM     11 CL   UNL     1      35.296 -17.744 -24.401  0.00  0.00    -0.082 Cl
ATOM     12  C   UNL     1      35.756 -20.205 -20.649  0.00  0.00    +0.066 C 
ATOM     13  C   UNL     1      36.825 -19.442 -21.119  0.00  0.00    +0.007 C 
ATOM     14  C   UNL     1      34.545 -20.207 -21.340  0.00  0.00    +0.007 C 
ATOM     15  C   UNL     1      36.682 -18.681 -22.279  0.00  0.00    +0.012 C 
ATOM     16  C   UNL     1      34.402 -19.446 -22.500  0.00  0.00    +0.012 C 
ATOM     17  C   UNL     1      35.471 -18.683 -22.970  0.00  0.00    +0.058 C 
ENDBRANCH  10  12
ENDBRANCH   1   4
BRANCH   1  18
ATOM     18  C   UNL     1      31.989 -22.862 -16.338  0.00  0.00    +0.023 C 
BRANCH  18  19
ATOM     19  C   UNL     1      30.978 -23.877 -15.740  0.00  0.00    +0.087 C 
BRANCH  19  20
ATOM     20  N   UNL     1      29.561 -23.674 -16.262  0.00  0.00    -0.246 NA
ATOM     21  N   UNL     1      27.682 -24.058 -17.381  0.00  0.00    -0.251 NA
ATOM     22  C   UNL     1      28.731 -22.631 -15.966  0.00  0.00    +0.125 C 
ATOM     23  C   UNL     1      28.889 -24.506 -17.114  0.00  0.00    +0.201 C 
ATOM     24  C   UNL     1      27.577 -22.890 -16.667  0.00  0.00    +0.124 C 
BRANCH  24  27
ATOM     25  O   UNL     1      25.569 -22.079 -15.740  0.00  0.00    -0.269 OA
ATOM     26  N   UNL     1      26.174 -21.244 -17.788  0.00  0.00    -0.324 N 
ATOM     27  C   UNL     1      26.398 -22.080 -16.684  0.00  0.00    +0.257 C 
ATOM     28  H   UNL     1      25.369 -20.677 -17.822  0.00  0.00    +0.145 HD
ATOM     29  H   UNL     1      26.821 -21.224 -18.530  0.00  0.00    +0.145 HD
ENDBRANCH  24  27
ENDBRANCH  19  20
BRANCH  19  30
ATOM     30  C   UNL     1      31.058 -23.873 -14.189  0.00  0.00    +0.125 C 
ATOM     31  C   UNL     1      32.478 -23.757 -13.645  0.00  0.00    +0.033 C 
BRANCH  30  32
ATOM     32  O   UNL     1      30.441 -25.039 -13.648  0.00  0.00    -0.383 OA
ATOM     33  H   UNL     1      29.563 -25.153 -14.044  0.00  0.00    +0.210 HD
ENDBRANCH  30  32
ENDBRANCH  19  30
ENDBRANCH  18  19
ENDBRANCH   1  18
TORSDOF 8
ENDMDL
MODEL 3
REMARK VINA RESULT:     -12.1     10.987     14.777
REMARK  Name = 46937091
REMARK  8 active torsions:
REMARK  status: ('A' for Active; 'I' for Inactive)
REMARK    1  A    between atoms: C_1  and  C_4
REMARK    2  A    between atoms: C_1  and  C_18
REMARK    3  A    between atoms: C_10  and  C_12
REMARK    4  A    between atoms: C_18  and  C_19
REMARK    5  A    between atoms: C_19  and  N_20
REMARK    6  A    between atoms: C_19  and  C_30
REMARK    7  A    between atoms: C_24  and  C_27
REMARK    8  A    between atoms: C_30  and  O_32
REMARK                            x       y       z     vdW  Elec       q    Type
REMARK                         _______ _______ _______ _____ _____    ______ ____
ROOT
ATOM      1  C   UNL     1      31.922 -12.005 -22.702  0.00  0.00    +0.031 C 
ENDROOT
BRANCH   1   4
ATOM      2  O   UNL     1      32.783  -9.089 -23.027  0.00  0.00    -0.425 OA
ATOM      3  N   UNL     1      32.946  -7.500 -21.420  0.00  0.00    -0.368 NA
ATOM      4  C   UNL     1      32.020 -10.967 -21.614  0.00  0.00    +0.014 C 
ATOM      5  C   UNL     1      32.422  -9.655 -21.839  0.00  0.00    +0.170 C 
ATOM      6  C   UNL     1      31.705 -11.284 -20.288  0.00  0.00    -0.005 C 
ATOM      7  C   UNL     1      32.523  -8.680 -20.857  0.00  0.00    +0.151 C 
ATOM      8  C   UNL     1      31.793 -10.329 -19.267  0.00  0.00    -0.019 C 
ATOM      9  C   UNL     1      32.202  -9.014 -19.534  0.00  0.00    +0.088 C 
ATOM     10  C   UNL     1      33.081  -7.803 -22.692  0.00  0.00    +0.282 C 
BRANCH  10  12
ATOM     11 CL   UNL     1      34.817  -4.353 -27.214  0.00  0.00    -0.082 Cl
ATOM     12  C   UNL     1      33.500  -6.969 -23.785  0.00  0.00    +0.066 C 
ATOM     13  C   UNL     1      34.825  -7.004 -24.220  0.00  0.00    +0.007 C 
ATOM     14  C   UNL     1      32.583  -6.126 -24.411  0.00  0.00    +0.007 C 
ATOM     15  C   UNL     1      35.232  -6.195 -25.280  0.00  0.00    +0.012 C 
ATOM     16  C   UNL     1      32.990  -5.317 -25.471  0.00  0.00    +0.012 C 
ATOM     17  C   UNL     1      34.315  -5.351 -25.906  0.00  0.00    +0.058 C 
ENDBRANCH  10  12
ENDBRANCH   1   4
BRANCH   1  18
ATOM     18  C   UNL     1      33.267 -12.630 -23.108  0.00  0.00    +0.023 C 
BRANCH  18  19
ATOM     19  C   UNL     1      33.189 -14.101 -23.599  0.00  0.00    +0.087 C 
BRANCH  19  20
ATOM     20  N   UNL     1      33.948 -15.065 -22.696  0.00  0.00    -0.246 NA
ATOM     21  N   UNL     1      34.850 -15.918 -20.855  0.00  0.00    -0.251 NA
ATOM     22  C   UNL     1      34.544 -16.232 -23.079  0.00  0.00    +0.125 C 
ATOM     23  C   UNL     1      34.158 -14.917 -21.353  0.00  0.00    +0.201 C 
ATOM     24  C   UNL     1      35.094 -16.742 -21.926  0.00  0.00    +0.124 C 
BRANCH  24  27
ATOM     25  O   UNL     1      35.622 -18.787 -20.883  0.00  0.00    -0.269 OA
ATOM     26  N   UNL     1      36.808 -18.252 -22.771  0.00  0.00    -0.324 N 
ATOM     27  C   UNL     1      35.831 -17.962 -21.808  0.00  0.00    +0.257 C 
ATOM     28  H   UNL     1      37.328 -19.086 -22.710  0.00  0.00    +0.145 HD
ATOM     29  H   UNL     1      36.974 -17.621 -23.509  0.00  0.00    +0.145 HD
ENDBRANCH  24  27
ENDBRANCH  19  20
BRANCH  19  30
ATOM     30  C   UNL     1      33.618 -14.200 -25.087  0.00  0.00    +0.125 C 
ATOM     31  C   UNL     1      33.808 -12.847 -25.765  0.00  0.00    +0.033 C 
BRANCH  30  32
ATOM     32  O   UNL     1      32.681 -14.972 -25.834  0.00  0.00    -0.383 OA
ATOM     33  H   UNL     1      33.115 -15.772 -26.169  0.00  0.00    +0.210 HD
ENDBRANCH  30  32
ENDBRANCH  19  30
ENDBRANCH  18  19
ENDBRANCH   1  18
TORSDOF 8
ENDMDL
MODEL 4
REMARK VINA RESULT:     -12.0     10.484     14.403
REMARK  Name = 46937091
REMARK  8 active torsions:
REMARK  status: ('A' for Active; 'I' for Inactive)
REMARK    1  A    between atoms: C_1  and  C_4
REMARK    2  A    between atoms: C_1  and  C_18
REMARK    3  A    between atoms: C_10  and  C_12
REMARK    4  A    between atoms: C_18  and  C_19
REMARK    5  A    between atoms: C_19  and  N_20
REMARK    6  A    between atoms: C_19  and  C_30
REMARK    7  A    between atoms: C_24  and  C_27
REMARK    8  A    between atoms: C_30  and  O_32
REMARK                            x       y       z     vdW  Elec       q    Type
REMARK                         _______ _______ _______ _____ _____    ______ ____
ROOT
ATOM      1  C   UNL     1      33.315 -12.747 -24.255  0.00  0.00    +0.031 C 
ENDROOT
BRANCH   1   4
ATOM      2  O   UNL     1      32.742  -9.821 -23.574  0.00  0.00    -0.425 OA
ATOM      3  N   UNL     1      31.974  -8.974 -21.618  0.00  0.00    -0.368 NA
ATOM      4  C   UNL     1      32.803 -12.210 -22.943  0.00  0.00    +0.014 C 
ATOM      5  C   UNL     1      32.566 -10.861 -22.707  0.00  0.00    +0.170 C 
ATOM      6  C   UNL     1      32.535 -13.068 -21.871  0.00  0.00    -0.005 C 
ATOM      7  C   UNL     1      32.095 -10.339 -21.510  0.00  0.00    +0.151 C 
ATOM      8  C   UNL     1      32.060 -12.582 -20.647  0.00  0.00    -0.019 C 
ATOM      9  C   UNL     1      31.832 -11.212 -20.446  0.00  0.00    +0.088 C 
ATOM     10  C   UNL     1      32.367  -8.732 -22.849  0.00  0.00    +0.282 C 
BRANCH  10  12
ATOM     11 CL   UNL     1      32.746  -3.537 -25.719  0.00  0.00    -0.082 Cl
ATOM     12  C   UNL     1      32.459  -7.476 -23.542  0.00  0.00    +0.066 C 
ATOM     13  C   UNL     1      31.327  -6.674 -23.684  0.00  0.00    +0.007 C 
ATOM     14  C   UNL     1      33.680  -7.060 -24.073  0.00  0.00    +0.007 C 
ATOM     15  C   UNL     1      31.416  -5.456 -24.357  0.00  0.00    +0.012 C 
ATOM     16  C   UNL     1      33.768  -5.842 -24.747  0.00  0.00    +0.012 C 
ATOM     17  C   UNL     1      32.636  -5.039 -24.888  0.00  0.00    +0.058 C 
ENDBRANCH  10  12
ENDBRANCH   1   4
BRANCH   1  18
ATOM     18  C   UNL     1      34.289 -13.930 -24.120  0.00  0.00    +0.023 C 
BRANCH  18  19
ATOM     19  C   UNL     1      33.742 -15.294 -24.620  0.00  0.00    +0.087 C 
BRANCH  19  20
ATOM     20  N   UNL     1      34.545 -16.478 -24.098  0.00  0.00    -0.246 NA
ATOM     21  N   UNL     1      35.427 -18.514 -24.002  0.00  0.00    -0.251 NA
ATOM     22  C   UNL     1      35.277 -16.515 -22.945  0.00  0.00    +0.125 C 
ATOM     23  C   UNL     1      34.665 -17.700 -24.699  0.00  0.00    +0.201 C 
ATOM     24  C   UNL     1      35.812 -17.781 -22.908  0.00  0.00    +0.124 C 
BRANCH  24  27
ATOM     25  O   UNL     1      36.261 -18.497 -20.709  0.00  0.00    -0.269 OA
ATOM     26  N   UNL     1      37.981 -18.648 -22.217  0.00  0.00    -0.324 N 
ATOM     27  C   UNL     1      36.661 -18.310 -21.886  0.00  0.00    +0.257 C 
ATOM     28  H   UNL     1      38.584 -19.014 -21.529  0.00  0.00    +0.145 HD
ATOM     29  H   UNL     1      38.306 -18.519 -23.137  0.00  0.00    +0.145 HD
ENDBRANCH  24  27
ENDBRANCH  19  20
BRANCH  19  30
ATOM     30  C   UNL     1      33.605 -15.290 -26.167  0.00  0.00    +0.125 C 
ATOM     31  C   UNL     1      33.511 -13.894 -26.774  0.00  0.00    +0.033 C 
BRANCH  30  32
ATOM     32  O   UNL     1      32.476 -16.059 -26.577  0.00  0.00    -0.383 OA
ATOM     33  H   UNL     1      31.904 -16.225 -25.812  0.00  0.00    +0.210 HD
ENDBRANCH  30  32
ENDBRANCH  19  30
ENDBRANCH  18  19
ENDBRANCH   1  18
TORSDOF 8
ENDMDL
MODEL 5
REMARK VINA RESULT:     -11.9     11.785     15.649
REMARK  Name = 46937091
REMARK  8 active torsions:
REMARK  status: ('A' for Active; 'I' for Inactive)
REMARK    1  A    between atoms: C_1  and  C_4
REMARK    2  A    between atoms: C_1  and  C_18
REMARK    3  A    between atoms: C_10  and  C_12
REMARK    4  A    between atoms: C_18  and  C_19
REMARK    5  A    between atoms: C_19  and  N_20
REMARK    6  A    between atoms: C_19  and  C_30
REMARK    7  A    between atoms: C_24  and  C_27
REMARK    8  A    between atoms: C_30  and  O_32
REMARK                            x       y       z     vdW  Elec       q    Type
REMARK                         _______ _______ _______ _____ _____    ______ ____
ROOT
ATOM      1  C   UNL     1      31.932 -11.626 -22.431  0.00  0.00    +0.031 C 
ENDROOT
BRANCH   1   4
ATOM      2  O   UNL     1      32.766  -8.737 -22.990  0.00  0.00    -0.425 OA
ATOM      3  N   UNL     1      32.817  -6.999 -21.537  0.00  0.00    -0.368 NA
ATOM      4  C   UNL     1      31.955 -10.486 -21.444  0.00  0.00    +0.014 C 
ATOM      5  C   UNL     1      32.349  -9.194 -21.773  0.00  0.00    +0.170 C 
ATOM      6  C   UNL     1      31.572 -10.681 -20.113  0.00  0.00    -0.005 C 
ATOM      7  C   UNL     1      32.381  -8.128 -20.886  0.00  0.00    +0.151 C 
ATOM      8  C   UNL     1      31.590  -9.632 -19.186  0.00  0.00    -0.019 C 
ATOM      9  C   UNL     1      31.993  -8.340 -19.556  0.00  0.00    +0.088 C 
ATOM     10  C   UNL     1      33.026  -7.420 -22.765  0.00  0.00    +0.282 C 
BRANCH  10  12
ATOM     11 CL   UNL     1      34.950  -4.382 -27.502  0.00  0.00    -0.082 Cl
ATOM     12  C   UNL     1      33.492  -6.686 -23.909  0.00  0.00    +0.066 C 
ATOM     13  C   UNL     1      32.619  -5.846 -24.601  0.00  0.00    +0.007 C 
ATOM     14  C   UNL     1      34.815  -6.813 -24.329  0.00  0.00    +0.007 C 
ATOM     15  C   UNL     1      33.070  -5.133 -25.712  0.00  0.00    +0.012 C 
ATOM     16  C   UNL     1      35.267  -6.101 -25.440  0.00  0.00    +0.012 C 
ATOM     17  C   UNL     1      34.394  -5.261 -26.131  0.00  0.00    +0.058 C 
ENDBRANCH  10  12
ENDBRANCH   1   4
BRANCH   1  18
ATOM     18  C   UNL     1      32.099 -13.018 -21.798  0.00  0.00    +0.023 C 
BRANCH  18  19
ATOM     19  C   UNL     1      33.426 -13.744 -22.144  0.00  0.00    +0.087 C 
BRANCH  19  20
ATOM     20  N   UNL     1      33.531 -14.109 -23.619  0.00  0.00    -0.246 NA
ATOM     21  N   UNL     1      33.831 -15.343 -25.440  0.00  0.00    -0.251 NA
ATOM     22  C   UNL     1      33.366 -13.261 -24.676  0.00  0.00    +0.125 C 
ATOM     23  C   UNL     1      33.809 -15.348 -24.126  0.00  0.00    +0.201 C 
ATOM     24  C   UNL     1      33.555 -14.045 -25.790  0.00  0.00    +0.124 C 
BRANCH  24  27
ATOM     25  O   UNL     1      34.435 -13.773 -27.958  0.00  0.00    -0.269 OA
ATOM     26  N   UNL     1      32.306 -13.000 -27.601  0.00  0.00    -0.324 N 
ATOM     27  C   UNL     1      33.485 -13.611 -27.151  0.00  0.00    +0.257 C 
ATOM     28  H   UNL     1      32.235 -12.693 -28.535  0.00  0.00    +0.145 HD
ATOM     29  H   UNL     1      31.549 -12.877 -26.985  0.00  0.00    +0.145 HD
ENDBRANCH  24  27
ENDBRANCH  19  20
BRANCH  19  30
ATOM     30  C   UNL     1      33.642 -14.960 -21.203  0.00  0.00    +0.125 C 
ATOM     31  C   UNL     1      32.550 -15.126 -20.151  0.00  0.00    +0.033 C 
BRANCH  30  32
ATOM     32  O   UNL     1      34.910 -14.881 -20.555  0.00  0.00    -0.383 OA
ATOM     33  H   UNL     1      34.831 -14.340 -19.755  0.00  0.00    +0.210 HD
ENDBRANCH  30  32
ENDBRANCH  19  30
ENDBRANCH  18  19
ENDBRANCH   1  18
TORSDOF 8
ENDMDL
MODEL 6
REMARK VINA RESULT:     -11.6      6.617     10.395
REMARK  Name = 46937091
REMARK  8 active torsions:
REMARK  status: ('A' for Active; 'I' for Inactive)
REMARK    1  A    between atoms: C_1  and  C_4
REMARK    2  A    between atoms: C_1  and  C_18
REMARK    3  A    between atoms: C_10  and  C_12
REMARK    4  A    between atoms: C_18  and  C_19
REMARK    5  A    between atoms: C_19  and  N_20
REMARK    6  A    between atoms: C_19  and  C_30
REMARK    7  A    between atoms: C_24  and  C_27
REMARK    8  A    between atoms: C_30  and  O_32
REMARK                            x       y       z     vdW  Elec       q    Type
REMARK                         _______ _______ _______ _____ _____    ______ ____
ROOT
ATOM      1  C   UNL     1      34.940 -16.901 -21.756  0.00  0.00    +0.031 C 
ENDROOT
BRANCH   1   4
ATOM      2  O   UNL     1      33.705 -14.240 -22.620  0.00  0.00    -0.425 OA
ATOM      3  N   UNL     1      33.110 -13.598 -24.710  0.00  0.00    -0.368 NA
ATOM      4  C   UNL     1      34.554 -16.499 -23.156  0.00  0.00    +0.014 C 
ATOM      5  C   UNL     1      33.994 -15.266 -23.474  0.00  0.00    +0.170 C 
ATOM      6  C   UNL     1      34.744 -17.371 -24.233  0.00  0.00    -0.005 C 
ATOM      7  C   UNL     1      33.629 -14.870 -24.752  0.00  0.00    +0.151 C 
ATOM      8  C   UNL     1      34.389 -17.010 -25.538  0.00  0.00    -0.019 C 
ATOM      9  C   UNL     1      33.827 -15.756 -25.820  0.00  0.00    +0.088 C 
ATOM     10  C   UNL     1      33.181 -13.284 -23.436  0.00  0.00    +0.282 C 
BRANCH  10  12
ATOM     11 CL   UNL     1      31.539  -8.262 -20.705  0.00  0.00    -0.082 Cl
ATOM     12  C   UNL     1      32.784 -12.070 -22.775  0.00  0.00    +0.066 C 
ATOM     13  C   UNL     1      33.086 -10.835 -23.348  0.00  0.00    +0.007 C 
ATOM     14  C   UNL     1      32.097 -12.128 -21.563  0.00  0.00    +0.007 C 
ATOM     15  C   UNL     1      32.701  -9.657 -22.708  0.00  0.00    +0.012 C 
ATOM     16  C   UNL     1      31.712 -10.950 -20.923  0.00  0.00    +0.012 C 
ATOM     17  C   UNL     1      32.014  -9.715 -21.496  0.00  0.00    +0.058 C 
ENDBRANCH  10  12
ENDBRANCH   1   4
BRANCH   1  18
ATOM     18  C   UNL     1      34.558 -18.344 -21.381  0.00  0.00    +0.023 C 
BRANCH  18  19
ATOM     19  C   UNL     1      35.741 -19.348 -21.341  0.00  0.00    +0.087 C 
BRANCH  19  20
ATOM     20  N   UNL     1      35.497 -20.506 -20.381  0.00  0.00    -0.246 NA
ATOM     21  N   UNL     1      35.930 -22.214 -19.029  0.00  0.00    -0.251 NA
ATOM     22  C   UNL     1      34.284 -20.941 -19.929  0.00  0.00    +0.125 C 
ATOM     23  C   UNL     1      36.455 -21.299 -19.814  0.00  0.00    +0.201 C 
ATOM     24  C   UNL     1      34.576 -21.996 -19.096  0.00  0.00    +0.124 C 
BRANCH  24  27
ATOM     25  O   UNL     1      33.957 -23.846 -17.777  0.00  0.00    -0.269 OA
ATOM     26  N   UNL     1      32.296 -22.362 -18.321  0.00  0.00    -0.324 N 
ATOM     27  C   UNL     1      33.631 -22.790 -18.375  0.00  0.00    +0.257 C 
ATOM     28  H   UNL     1      31.627 -22.893 -17.830  0.00  0.00    +0.145 HD
ATOM     29  H   UNL     1      32.027 -21.531 -18.774  0.00  0.00    +0.145 HD
ENDBRANCH  24  27
ENDBRANCH  19  20
BRANCH  19  30
ATOM     30  C   UNL     1      37.076 -18.605 -21.066  0.00  0.00    +0.125 C 
ATOM     31  C   UNL     1      38.098 -18.738 -22.189  0.00  0.00    +0.033 C 
BRANCH  30  32
ATOM     32  O   UNL     1      37.660 -19.049 -19.843  0.00  0.00    -0.383 OA
ATOM     33  H   UNL     1      37.110 -18.760 -19.099  0.00  0.00    +0.210 HD
ENDBRANCH  30  32
ENDBRANCH  19  30
ENDBRANCH  18  19
ENDBRANCH   1  18
TORSDOF 8
ENDMDL
MODEL 7
REMARK VINA RESULT:     -11.3     10.661     15.594
REMARK  Name = 46937091
REMARK  8 active torsions:
REMARK  status: ('A' for Active; 'I' for Inactive)
REMARK    1  A    between atoms: C_1  and  C_4
REMARK    2  A    between atoms: C_1  and  C_18
REMARK    3  A    between atoms: C_10  and  C_12
REMARK    4  A    between atoms: C_18  and  C_19
REMARK    5  A    between atoms: C_19  and  N_20
REMARK    6  A    between atoms: C_19  and  C_30
REMARK    7  A    between atoms: C_24  and  C_27
REMARK    8  A    between atoms: C_30  and  O_32
REMARK                            x       y       z     vdW  Elec       q    Type
REMARK                         _______ _______ _______ _____ _____    ______ ____
ROOT
ATOM      1  C   UNL     1      33.849 -12.132 -23.468  0.00  0.00    +0.031 C 
ENDROOT
BRANCH   1   4
ATOM      2  O   UNL     1      34.347 -15.144 -23.639  0.00  0.00    -0.425 OA
ATOM      3  N   UNL     1      34.152 -16.484 -25.456  0.00  0.00    -0.368 NA
ATOM      4  C   UNL     1      33.710 -13.001 -24.692  0.00  0.00    +0.014 C 
ATOM      5  C   UNL     1      33.956 -14.370 -24.693  0.00  0.00    +0.170 C 
ATOM      6  C   UNL     1      33.319 -12.456 -25.920  0.00  0.00    -0.005 C 
ATOM      7  C   UNL     1      33.837 -15.193 -25.803  0.00  0.00    +0.151 C 
ATOM      8  C   UNL     1      33.187 -13.252 -27.064  0.00  0.00    -0.019 C 
ATOM      9  C   UNL     1      33.443 -14.631 -27.026  0.00  0.00    +0.088 C 
ATOM     10  C   UNL     1      34.441 -16.392 -24.177  0.00  0.00    +0.282 C 
BRANCH  10  12
ATOM     11 CL   UNL     1      36.116 -20.653 -20.382  0.00  0.00    -0.082 Cl
ATOM     12  C   UNL     1      34.846 -17.422 -23.260  0.00  0.00    +0.066 C 
ATOM     13  C   UNL     1      35.337 -17.080 -22.000  0.00  0.00    +0.007 C 
ATOM     14  C   UNL     1      34.748 -18.763 -23.630  0.00  0.00    +0.007 C 
ATOM     15  C   UNL     1      35.729 -18.079 -21.110  0.00  0.00    +0.012 C 
ATOM     16  C   UNL     1      35.141 -19.762 -22.740  0.00  0.00    +0.012 C 
ATOM     17  C   UNL     1      35.631 -19.420 -21.480  0.00  0.00    +0.058 C 
ENDBRANCH  10  12
ENDBRANCH   1   4
BRANCH   1  18
ATOM     18  C   UNL     1      33.690 -10.626 -23.737  0.00  0.00    +0.023 C 
BRANCH  18  19
ATOM     19  C   UNL     1      32.421  -9.977 -23.123  0.00  0.00    +0.087 C 
BRANCH  19  20
ATOM     20  N   UNL     1      32.453  -8.454 -23.178  0.00  0.00    -0.246 NA
ATOM     21  N   UNL     1      33.273  -6.393 -23.269  0.00  0.00    -0.251 NA
ATOM     22  C   UNL     1      31.370  -7.622 -23.185  0.00  0.00    +0.125 C 
ATOM     23  C   UNL     1      33.573  -7.672 -23.230  0.00  0.00    +0.201 C 
ATOM     24  C   UNL     1      31.900  -6.355 -23.242  0.00  0.00    +0.124 C 
BRANCH  24  27
ATOM     25  O   UNL     1      30.748  -4.619 -24.339  0.00  0.00    -0.269 OA
ATOM     26  N   UNL     1      30.878  -4.490 -22.054  0.00  0.00    -0.324 N 
ATOM     27  C   UNL     1      31.163  -5.130 -23.269  0.00  0.00    +0.257 C 
ATOM     28  H   UNL     1      30.371  -3.645 -22.048  0.00  0.00    +0.145 HD
ATOM     29  H   UNL     1      31.185  -4.885 -21.206  0.00  0.00    +0.145 HD
ENDBRANCH  24  27
ENDBRANCH  19  20
BRANCH  19  30
ATOM     30  C   UNL     1      32.169 -10.525 -21.693  0.00  0.00    +0.125 C 
ATOM     31  C   UNL     1      30.769 -11.096 -21.490  0.00  0.00    +0.033 C 
BRANCH  30  32
ATOM     32  O   UNL     1      32.412  -9.518 -20.714  0.00  0.00    -0.383 OA
ATOM     33  H   UNL     1      31.780  -8.791 -20.835  0.00  0.00    +0.210 HD
ENDBRANCH  30  32
ENDBRANCH  19  30
ENDBRANCH  18  19
ENDBRANCH   1  18
TORSDOF 8
ENDMDL
MODEL 8
REMARK VINA RESULT:     -11.3      7.817     13.073
REMARK  Name = 46937091
REMARK  8 active torsions:
REMARK  status: ('A' for Active; 'I' for Inactive)
REMARK    1  A    between atoms: C_1  and  C_4
REMARK    2  A    between atoms: C_1  and  C_18
REMARK    3  A    between atoms: C_10  and  C_12
REMARK    4  A    between atoms: C_18  and  C_19
REMARK    5  A    between atoms: C_19  and  N_20
REMARK    6  A    between atoms: C_19  and  C_30
REMARK    7  A    between atoms: C_24  and  C_27
REMARK    8  A    between atoms: C_30  and  O_32
REMARK                            x       y       z     vdW  Elec       q    Type
REMARK                         _______ _______ _______ _____ _____    ______ ____
ROOT
ATOM      1  C   UNL     1      34.854 -15.233 -21.897  0.00  0.00    +0.031 C 
ENDROOT
BRANCH   1   4
ATOM      2  O   UNL     1      34.761 -18.265 -21.516  0.00  0.00    -0.425 OA
ATOM      3  N   UNL     1      34.817 -19.869 -23.116  0.00  0.00    -0.368 NA
ATOM      4  C   UNL     1      34.891 -16.279 -22.981  0.00  0.00    +0.014 C 
ATOM      5  C   UNL     1      34.846 -17.646 -22.729  0.00  0.00    +0.170 C 
ATOM      6  C   UNL     1      34.977 -15.914 -24.328  0.00  0.00    -0.005 C 
ATOM      7  C   UNL     1      34.879 -18.630 -23.706  0.00  0.00    +0.151 C 
ATOM      8  C   UNL     1      35.014 -16.877 -25.345  0.00  0.00    -0.019 C 
ATOM      9  C   UNL     1      34.965 -18.248 -25.052  0.00  0.00    +0.088 C 
ATOM     10  C   UNL     1      34.749 -19.590 -21.833  0.00  0.00    +0.282 C 
BRANCH  10  12
ATOM     11 CL   UNL     1      34.395 -23.291 -17.192  0.00  0.00    -0.082 Cl
ATOM     12  C   UNL     1      34.664 -20.484 -20.711  0.00  0.00    +0.066 C 
ATOM     13  C   UNL     1      33.417 -20.860 -20.213  0.00  0.00    +0.007 C 
ATOM     14  C   UNL     1      35.828 -20.977 -20.122  0.00  0.00    +0.007 C 
ATOM     15  C   UNL     1      33.334 -21.728 -19.124  0.00  0.00    +0.012 C 
ATOM     16  C   UNL     1      35.745 -21.845 -19.033  0.00  0.00    +0.012 C 
ATOM     17  C   UNL     1      34.497 -22.221 -18.535  0.00  0.00    +0.058 C 
ENDBRANCH  10  12
ENDBRANCH   1   4
BRANCH   1  18
ATOM     18  C   UNL     1      33.560 -14.401 -21.860  0.00  0.00    +0.023 C 
BRANCH  18  19
ATOM     19  C   UNL     1      33.522 -13.198 -22.840  0.00  0.00    +0.087 C 
BRANCH  19  20
ATOM     20  N   UNL     1      32.736 -12.015 -22.289  0.00  0.00    -0.246 NA
ATOM     21  N   UNL     1      31.306 -10.870 -21.034  0.00  0.00    -0.251 NA
ATOM     22  C   UNL     1      32.825 -10.719 -22.710  0.00  0.00    +0.125 C 
ATOM     23  C   UNL     1      31.813 -12.058 -21.282  0.00  0.00    +0.201 C 
ATOM     24  C   UNL     1      31.933 -10.030 -21.920  0.00  0.00    +0.124 C 
BRANCH  24  27
ATOM     25  O   UNL     1      31.870  -7.861 -21.006  0.00  0.00    -0.269 OA
ATOM     26  N   UNL     1      31.156  -8.091 -23.172  0.00  0.00    -0.324 N 
ATOM     27  C   UNL     1      31.660  -8.628 -21.979  0.00  0.00    +0.257 C 
ATOM     28  H   UNL     1      30.961  -7.128 -23.236  0.00  0.00    +0.145 HD
ATOM     29  H   UNL     1      30.998  -8.677 -23.947  0.00  0.00    +0.145 HD
ENDBRANCH  24  27
ENDBRANCH  19  20
BRANCH  19  30
ATOM     30  C   UNL     1      33.029 -13.653 -24.240  0.00  0.00    +0.125 C 
ATOM     31  C   UNL     1      33.646 -12.870 -25.395  0.00  0.00    +0.033 C 
BRANCH  30  32
ATOM     32  O   UNL     1      31.608 -13.576 -24.326  0.00  0.00    -0.383 OA
ATOM     33  H   UNL     1      31.299 -14.125 -25.064  0.00  0.00    +0.210 HD
ENDBRANCH  30  32
ENDBRANCH  19  30
ENDBRANCH  18  19
ENDBRANCH   1  18
TORSDOF 8
ENDMDL
MODEL 9
REMARK VINA RESULT:     -11.2     10.811     14.426
REMARK  Name = 46937091
REMARK  8 active torsions:
REMARK  status: ('A' for Active; 'I' for Inactive)
REMARK    1  A    between atoms: C_1  and  C_4
REMARK    2  A    between atoms: C_1  and  C_18
REMARK    3  A    between atoms: C_10  and  C_12
REMARK    4  A    between atoms: C_18  and  C_19
REMARK    5  A    between atoms: C_19  and  N_20
REMARK    6  A    between atoms: C_19  and  C_30
REMARK    7  A    between atoms: C_24  and  C_27
REMARK    8  A    between atoms: C_30  and  O_32
REMARK                            x       y       z     vdW  Elec       q    Type
REMARK                         _______ _______ _______ _____ _____    ______ ____
ROOT
ATOM      1  C   UNL     1      32.964 -12.314 -23.463  0.00  0.00    +0.031 C 
ENDROOT
BRANCH   1   4
ATOM      2  O   UNL     1      33.092  -9.261 -23.557  0.00  0.00    -0.425 OA
ATOM      3  N   UNL     1      32.401  -7.791 -21.977  0.00  0.00    -0.368 NA
ATOM      4  C   UNL     1      32.495 -11.359 -22.396  0.00  0.00    +0.014 C 
ATOM      5  C   UNL     1      32.587  -9.976 -22.510  0.00  0.00    +0.170 C 
ATOM      6  C   UNL     1      31.930 -11.831 -21.206  0.00  0.00    -0.005 C 
ATOM      7  C   UNL     1      32.164  -9.074 -21.545  0.00  0.00    +0.151 C 
ATOM      8  C   UNL     1      31.491 -10.954 -20.207  0.00  0.00    -0.019 C 
ATOM      9  C   UNL     1      31.600  -9.564 -20.359  0.00  0.00    +0.088 C 
ATOM     10  C   UNL     1      32.944  -7.966 -23.161  0.00  0.00    +0.282 C 
BRANCH  10  12
ATOM     11 CL   UNL     1      34.862  -3.900 -27.055  0.00  0.00    -0.082 Cl
ATOM     12  C   UNL     1      33.408  -6.984 -24.102  0.00  0.00    +0.066 C 
ATOM     13  C   UNL     1      32.512  -6.067 -24.652  0.00  0.00    +0.007 C 
ATOM     14  C   UNL     1      34.754  -6.946 -24.465  0.00  0.00    +0.007 C 
ATOM     15  C   UNL     1      32.962  -5.114 -25.565  0.00  0.00    +0.012 C 
ATOM     16  C   UNL     1      35.204  -5.993 -25.379  0.00  0.00    +0.012 C 
ATOM     17  C   UNL     1      34.307  -5.076 -25.928  0.00  0.00    +0.058 C 
ENDBRANCH  10  12
ENDBRANCH   1   4
BRANCH   1  18
ATOM     18  C   UNL     1      32.798 -13.801 -23.102  0.00  0.00    +0.023 C 
BRANCH  18  19
ATOM     19  C   UNL     1      34.112 -14.538 -22.729  0.00  0.00    +0.087 C 
BRANCH  19  20
ATOM     20  N   UNL     1      34.309 -15.826 -23.518  0.00  0.00    -0.246 NA
ATOM     21  N   UNL     1      34.434 -17.203 -25.256  0.00  0.00    -0.251 NA
ATOM     22  C   UNL     1      34.616 -17.052 -23.001  0.00  0.00    +0.125 C 
ATOM     23  C   UNL     1      34.210 -15.965 -24.874  0.00  0.00    +0.201 C 
ATOM     24  C   UNL     1      34.689 -17.886 -24.092  0.00  0.00    +0.124 C 
BRANCH  24  27
ATOM     25  O   UNL     1      35.055 -19.975 -25.117  0.00  0.00    -0.269 OA
ATOM     26  N   UNL     1      35.223 -19.901 -22.831  0.00  0.00    -0.324 N 
ATOM     27  C   UNL     1      34.985 -19.285 -24.069  0.00  0.00    +0.257 C 
ATOM     28  H   UNL     1      35.429 -20.863 -22.791  0.00  0.00    +0.145 HD
ATOM     29  H   UNL     1      35.184 -19.371 -22.003  0.00  0.00    +0.145 HD
ENDBRANCH  24  27
ENDBRANCH  19  20
BRANCH  19  30
ATOM     30  C   UNL     1      34.199 -14.749 -21.193  0.00  0.00    +0.125 C 
ATOM     31  C   UNL     1      32.842 -14.898 -20.514  0.00  0.00    +0.033 C 
BRANCH  30  32
ATOM     32  O   UNL     1      34.920 -13.685 -20.576  0.00  0.00    -0.383 OA
ATOM     33  H   UNL     1      34.294 -13.065 -20.170  0.00  0.00    +0.210 HD
ENDBRANCH  30  32
ENDBRANCH  19  30
ENDBRANCH  18  19
ENDBRANCH   1  18
TORSDOF 8
ENDMDL
