MODEL 1
REMARK VINA RESULT:     -13.5      0.000      0.000
REMARK  Name = 6450813
REMARK  4 active torsions:
REMARK  status: ('A' for Active; 'I' for Inactive)
REMARK    1  A    between atoms: C_4  and  C_10
REMARK    2  A    between atoms: C_6  and  C_22
REMARK    3  A    between atoms: C_12  and  N_17
REMARK    4  A    between atoms: C_22  and  C_24
REMARK                            x       y       z     vdW  Elec       q    Type
REMARK                         _______ _______ _______ _____ _____    ______ ____
ROOT
ATOM      1  N   UNL     1      34.806 -16.101 -22.831  0.00  0.00    -0.191 N 
ATOM      2  N   UNL     1      34.897 -15.532 -21.596  0.00  0.00    -0.179 NA
ATOM      3  N   UNL     1      34.189 -15.507 -25.086  0.00  0.00    -0.231 NA
ATOM      4  C   UNL     1      35.085 -17.429 -23.194  0.00  0.00    +0.143 C 
ATOM      5  C   UNL     1      34.365 -15.171 -23.777  0.00  0.00    +0.141 C 
ATOM      6  C   UNL     1      34.186 -13.982 -23.106  0.00  0.00    +0.161 C 
ATOM      7  C   UNL     1      34.924 -17.804 -24.474  0.00  0.00    +0.020 C 
ATOM      8  C   UNL     1      34.526 -14.265 -21.778  0.00  0.00    +0.106 C 
ATOM      9  C   UNL     1      34.451 -16.739 -25.393  0.00  0.00    +0.097 C 
ENDROOT
BRANCH   4  10
ATOM     10  C   UNL     1      35.563 -18.418 -22.210  0.00  0.00    +0.003 C 
ATOM     11  C   UNL     1      34.658 -19.279 -21.588  0.00  0.00    +0.013 C 
ATOM     12  C   UNL     1      35.109 -20.215 -20.658  0.00  0.00    +0.054 C 
ATOM     13  C   UNL     1      36.920 -18.493 -21.900  0.00  0.00    -0.002 C 
ATOM     14  C   UNL     1      36.467 -20.289 -20.348  0.00  0.00    +0.015 C 
ATOM     15  C   UNL     1      37.374 -19.428 -20.969  0.00  0.00    +0.001 C 
BRANCH  12  17
ATOM     16  O   UNL     1      35.776 -22.345 -18.815  0.00  0.00    -0.275 OA
ATOM     17  N   UNL     1      34.205 -21.076 -20.036  0.00  0.00    -0.257 N 
ATOM     18  C   UNL     1      32.744 -20.875 -20.284  0.00  0.00    +0.120 C 
ATOM     19  C   UNL     1      34.603 -22.091 -19.099  0.00  0.00    +0.230 C 
ATOM     20  C   UNL     1      33.520 -22.871 -18.389  0.00  0.00    +0.095 C 
ENDBRANCH  12  17
ENDBRANCH   4  10
BRANCH   6  22
ATOM     21  O   UNL     1      34.132 -12.363 -24.800  0.00  0.00    -0.290 OA
ATOM     22  C   UNL     1      33.743 -12.748 -23.681  0.00  0.00    +0.191 C 
BRANCH  22  24
ATOM     23  S   UNL     1      32.784 -10.259 -23.200  0.00  0.00    -0.084 S 
ATOM     24  C   UNL     1      32.788 -11.920 -22.906  0.00  0.00    +0.065 C 
ATOM     25  C   UNL     1      31.910 -12.346 -21.982  0.00  0.00    +0.010 C 
ATOM     26  C   UNL     1      31.169 -11.246 -21.463  0.00  0.00    +0.008 C 
ATOM     27  C   UNL     1      31.543 -10.052 -22.038  0.00  0.00    +0.036 C 
ENDBRANCH  22  24
ENDBRANCH   6  22
TORSDOF 4
ENDMDL
MODEL 2
REMARK VINA RESULT:     -12.8      3.049      7.823
REMARK  Name = 6450813
REMARK  4 active torsions:
REMARK  status: ('A' for Active; 'I' for Inactive)
REMARK    1  A    between atoms: C_4  and  C_10
REMARK    2  A    between atoms: C_6  and  C_22
REMARK    3  A    between atoms: C_12  and  N_17
REMARK    4  A    between atoms: C_22  and  C_24
REMARK                            x       y       z     vdW  Elec       q    Type
REMARK                         _______ _______ _______ _____ _____    ______ ____
ROOT
ATOM      1  N   UNL     1      34.802 -17.180 -23.113  0.00  0.00    -0.191 N 
ATOM      2  N   UNL     1      34.907 -16.365 -22.026  0.00  0.00    -0.179 NA
ATOM      3  N   UNL     1      35.191 -19.479 -23.730  0.00  0.00    -0.231 NA
ATOM      4  C   UNL     1      34.371 -16.843 -24.407  0.00  0.00    +0.143 C 
ATOM      5  C   UNL     1      35.201 -18.483 -22.801  0.00  0.00    +0.141 C 
ATOM      6  C   UNL     1      35.559 -18.475 -21.471  0.00  0.00    +0.161 C 
ATOM      7  C   UNL     1      34.346 -17.794 -25.355  0.00  0.00    +0.020 C 
ATOM      8  C   UNL     1      35.359 -17.155 -21.053  0.00  0.00    +0.106 C 
ATOM      9  C   UNL     1      34.791 -19.140 -24.917  0.00  0.00    +0.097 C 
ENDROOT
BRANCH   4  10
ATOM     10  C   UNL     1      33.934 -15.476 -24.748  0.00  0.00    +0.003 C 
ATOM     11  C   UNL     1      33.579 -14.583 -23.736  0.00  0.00    +0.013 C 
ATOM     12  C   UNL     1      33.166 -13.291 -24.058  0.00  0.00    +0.054 C 
ATOM     13  C   UNL     1      33.876 -15.075 -26.083  0.00  0.00    -0.002 C 
ATOM     14  C   UNL     1      33.108 -12.890 -25.393  0.00  0.00    +0.015 C 
ATOM     15  C   UNL     1      33.463 -13.783 -26.406  0.00  0.00    +0.001 C 
BRANCH  12  17
ATOM     16  O   UNL     1      32.069 -13.992 -21.473  0.00  0.00    -0.275 OA
ATOM     17  N   UNL     1      32.809 -12.398 -23.047  0.00  0.00    -0.257 N 
ATOM     18  C   UNL     1      33.049 -10.939 -23.269  0.00  0.00    +0.120 C 
ATOM     19  C   UNL     1      32.304 -12.818 -21.769  0.00  0.00    +0.230 C 
ATOM     20  C   UNL     1      32.081 -11.765 -20.708  0.00  0.00    +0.095 C 
ENDBRANCH  12  17
ENDBRANCH   4  10
BRANCH   6  22
ATOM     21  O   UNL     1      37.242 -19.768 -20.475  0.00  0.00    -0.290 OA
ATOM     22  C   UNL     1      36.031 -19.598 -20.720  0.00  0.00    +0.191 C 
BRANCH  22  24
ATOM     23  S   UNL     1      35.605 -21.865 -19.297  0.00  0.00    -0.084 S 
ATOM     24  C   UNL     1      35.035 -20.577 -20.224  0.00  0.00    +0.065 C 
ATOM     25  C   UNL     1      33.707 -20.555 -20.430  0.00  0.00    +0.010 C 
ATOM     26  C   UNL     1      33.091 -21.669 -19.790  0.00  0.00    +0.008 C 
ATOM     27  C   UNL     1      34.007 -22.463 -19.137  0.00  0.00    +0.036 C 
ENDBRANCH  22  24
ENDBRANCH   6  22
TORSDOF 4
ENDMDL
MODEL 3
REMARK VINA RESULT:     -12.7      3.252      8.930
REMARK  Name = 6450813
REMARK  4 active torsions:
REMARK  status: ('A' for Active; 'I' for Inactive)
REMARK    1  A    between atoms: C_4  and  C_10
REMARK    2  A    between atoms: C_6  and  C_22
REMARK    3  A    between atoms: C_12  and  N_17
REMARK    4  A    between atoms: C_22  and  C_24
REMARK                            x       y       z     vdW  Elec       q    Type
REMARK                         _______ _______ _______ _____ _____    ______ ____
ROOT
ATOM      1  N   UNL     1      34.071 -15.127 -22.579  0.00  0.00    -0.191 N 
ATOM      2  N   UNL     1      34.284 -15.117 -21.234  0.00  0.00    -0.179 NA
ATOM      3  N   UNL     1      34.482 -16.535 -24.494  0.00  0.00    -0.231 NA
ATOM      4  C   UNL     1      33.453 -14.138 -23.364  0.00  0.00    +0.143 C 
ATOM      5  C   UNL     1      34.571 -16.299 -23.155  0.00  0.00    +0.141 C 
ATOM      6  C   UNL     1      35.104 -17.044 -22.127  0.00  0.00    +0.161 C 
ATOM      7  C   UNL     1      33.344 -14.331 -24.689  0.00  0.00    +0.020 C 
ATOM      8  C   UNL     1      34.900 -16.270 -20.979  0.00  0.00    +0.106 C 
ATOM      9  C   UNL     1      33.909 -15.606 -25.195  0.00  0.00    +0.097 C 
ENDROOT
BRANCH   4  10
ATOM     10  C   UNL     1      32.909 -12.904 -22.769  0.00  0.00    +0.003 C 
ATOM     11  C   UNL     1      33.205 -11.664 -23.339  0.00  0.00    +0.013 C 
ATOM     12  C   UNL     1      32.690 -10.497 -22.777  0.00  0.00    +0.054 C 
ATOM     13  C   UNL     1      32.097 -12.973 -21.638  0.00  0.00    -0.002 C 
ATOM     14  C   UNL     1      31.879 -10.567 -21.645  0.00  0.00    +0.015 C 
ATOM     15  C   UNL     1      31.582 -11.805 -21.074  0.00  0.00    +0.001 C 
BRANCH  12  17
ATOM     16  O   UNL     1      30.784  -8.413 -23.412  0.00  0.00    -0.275 OA
ATOM     17  N   UNL     1      32.987  -9.257 -23.346  0.00  0.00    -0.257 N 
ATOM     18  C   UNL     1      34.418  -8.923 -23.619  0.00  0.00    +0.120 C 
ATOM     19  C   UNL     1      31.992  -8.251 -23.600  0.00  0.00    +0.230 C 
ATOM     20  C   UNL     1      32.455  -6.899 -24.093  0.00  0.00    +0.095 C 
ENDBRANCH  12  17
ENDBRANCH   4  10
BRANCH   6  22
ATOM     21  O   UNL     1      36.641 -18.540 -23.074  0.00  0.00    -0.290 OA
ATOM     22  C   UNL     1      35.728 -18.326 -22.253  0.00  0.00    +0.191 C 
BRANCH  22  24
ATOM     23  S   UNL     1      36.432 -20.292 -20.524  0.00  0.00    -0.084 S 
ATOM     24  C   UNL     1      35.261 -19.420 -21.368  0.00  0.00    +0.065 C 
ATOM     25  C   UNL     1      33.990 -19.803 -21.156  0.00  0.00    +0.010 C 
ATOM     26  C   UNL     1      33.951 -20.891 -20.238  0.00  0.00    +0.008 C 
ATOM     27  C   UNL     1      35.209 -21.258 -19.815  0.00  0.00    +0.036 C 
ENDBRANCH  22  24
ENDBRANCH   6  22
TORSDOF 4
ENDMDL
MODEL 4
REMARK VINA RESULT:     -12.3      2.548      4.134
REMARK  Name = 6450813
REMARK  4 active torsions:
REMARK  status: ('A' for Active; 'I' for Inactive)
REMARK    1  A    between atoms: C_4  and  C_10
REMARK    2  A    between atoms: C_6  and  C_22
REMARK    3  A    between atoms: C_12  and  N_17
REMARK    4  A    between atoms: C_22  and  C_24
REMARK                            x       y       z     vdW  Elec       q    Type
REMARK                         _______ _______ _______ _____ _____    ______ ____
ROOT
ATOM      1  N   UNL     1      33.502 -13.322 -22.936  0.00  0.00    -0.191 N 
ATOM      2  N   UNL     1      34.071 -13.007 -24.133  0.00  0.00    -0.179 NA
ATOM      3  N   UNL     1      32.185 -12.288 -21.200  0.00  0.00    -0.231 NA
ATOM      4  C   UNL     1      33.544 -14.550 -22.255  0.00  0.00    +0.143 C 
ATOM      5  C   UNL     1      32.829 -12.221 -22.399  0.00  0.00    +0.141 C 
ATOM      6  C   UNL     1      32.978 -11.191 -23.301  0.00  0.00    +0.161 C 
ATOM      7  C   UNL     1      32.922 -14.661 -21.069  0.00  0.00    +0.020 C 
ATOM      8  C   UNL     1      33.747 -11.731 -24.338  0.00  0.00    +0.106 C 
ATOM      9  C   UNL     1      32.240 -13.432 -20.592  0.00  0.00    +0.097 C 
ENDROOT
BRANCH   4  10
ATOM     10  C   UNL     1      34.239 -15.724 -22.815  0.00  0.00    +0.003 C 
ATOM     11  C   UNL     1      34.770 -16.694 -21.963  0.00  0.00    +0.013 C 
ATOM     12  C   UNL     1      35.427 -17.804 -22.491  0.00  0.00    +0.054 C 
ATOM     13  C   UNL     1      34.367 -15.866 -24.196  0.00  0.00    -0.002 C 
ATOM     14  C   UNL     1      35.554 -17.946 -23.873  0.00  0.00    +0.015 C 
ATOM     15  C   UNL     1      35.024 -16.977 -24.726  0.00  0.00    +0.001 C 
BRANCH  12  17
ATOM     16  O   UNL     1      33.961 -19.969 -21.247  0.00  0.00    -0.275 OA
ATOM     17  N   UNL     1      35.958 -18.774 -21.640  0.00  0.00    -0.257 N 
ATOM     18  C   UNL     1      37.427 -18.751 -21.364  0.00  0.00    +0.120 C 
ATOM     19  C   UNL     1      35.178 -19.847 -21.086  0.00  0.00    +0.230 C 
ATOM     20  C   UNL     1      35.894 -20.911 -20.287  0.00  0.00    +0.095 C 
ENDBRANCH  12  17
ENDBRANCH   4  10
BRANCH   6  22
ATOM     21  O   UNL     1      31.278  -9.660 -22.792  0.00  0.00    -0.290 OA
ATOM     22  C   UNL     1      32.449  -9.868 -23.165  0.00  0.00    +0.191 C 
BRANCH  22  24
ATOM     23  S   UNL     1      32.616  -7.217 -23.701  0.00  0.00    -0.084 S 
ATOM     24  C   UNL     1      33.338  -8.724 -23.477  0.00  0.00    +0.065 C 
ATOM     25  C   UNL     1      34.676  -8.749 -23.603  0.00  0.00    +0.010 C 
ATOM     26  C   UNL     1      35.166  -7.447 -23.907  0.00  0.00    +0.008 C 
ATOM     27  C   UNL     1      34.152  -6.518 -23.990  0.00  0.00    +0.036 C 
ENDBRANCH  22  24
ENDBRANCH   6  22
TORSDOF 4
ENDMDL
MODEL 5
REMARK VINA RESULT:     -12.1      4.829     10.218
REMARK  Name = 6450813
REMARK  4 active torsions:
REMARK  status: ('A' for Active; 'I' for Inactive)
REMARK    1  A    between atoms: C_4  and  C_10
REMARK    2  A    between atoms: C_6  and  C_22
REMARK    3  A    between atoms: C_12  and  N_17
REMARK    4  A    between atoms: C_22  and  C_24
REMARK                            x       y       z     vdW  Elec       q    Type
REMARK                         _______ _______ _______ _____ _____    ______ ____
ROOT
ATOM      1  N   UNL     1      35.864 -21.612 -18.510  0.00  0.00    -0.191 N 
ATOM      2  N   UNL     1      37.079 -21.206 -18.045  0.00  0.00    -0.179 NA
ATOM      3  N   UNL     1      34.051 -23.071 -17.878  0.00  0.00    -0.231 NA
ATOM      4  C   UNL     1      35.224 -21.234 -19.702  0.00  0.00    +0.143 C 
ATOM      5  C   UNL     1      35.270 -22.518 -17.626  0.00  0.00    +0.141 C 
ATOM      6  C   UNL     1      36.145 -22.670 -16.574  0.00  0.00    +0.161 C 
ATOM      7  C   UNL     1      34.020 -21.756 -19.991  0.00  0.00    +0.020 C 
ATOM      8  C   UNL     1      37.231 -21.845 -16.887  0.00  0.00    +0.106 C 
ATOM      9  C   UNL     1      33.483 -22.707 -18.986  0.00  0.00    +0.097 C 
ENDROOT
BRANCH   4  10
ATOM     10  C   UNL     1      35.832 -20.269 -20.637  0.00  0.00    +0.003 C 
ATOM     11  C   UNL     1      35.106 -19.808 -21.736  0.00  0.00    +0.013 C 
ATOM     12  C   UNL     1      35.680 -18.896 -22.620  0.00  0.00    +0.054 C 
ATOM     13  C   UNL     1      37.134 -19.816 -20.424  0.00  0.00    -0.002 C 
ATOM     14  C   UNL     1      36.983 -18.444 -22.406  0.00  0.00    +0.015 C 
ATOM     15  C   UNL     1      37.710 -18.904 -21.308  0.00  0.00    +0.001 C 
BRANCH  12  17
ATOM     16  O   UNL     1      34.991 -16.140 -23.174  0.00  0.00    -0.275 OA
ATOM     17  N   UNL     1      34.955 -18.435 -23.720  0.00  0.00    -0.257 N 
ATOM     18  C   UNL     1      34.522 -19.426 -24.752  0.00  0.00    +0.120 C 
ATOM     19  C   UNL     1      34.680 -17.044 -23.954  0.00  0.00    +0.230 C 
ATOM     20  C   UNL     1      34.003 -16.658 -25.249  0.00  0.00    +0.095 C 
ENDBRANCH  12  17
ENDBRANCH   4  10
BRANCH   6  22
ATOM     21  O   UNL     1      34.981 -23.353 -14.657  0.00  0.00    -0.290 OA
ATOM     22  C   UNL     1      35.947 -23.507 -15.429  0.00  0.00    +0.191 C 
BRANCH  22  24
ATOM     23  S   UNL     1      36.373 -26.176 -15.230  0.00  0.00    -0.084 S 
ATOM     24  C   UNL     1      36.931 -24.586 -15.174  0.00  0.00    +0.065 C 
ATOM     25  C   UNL     1      38.238 -24.441 -14.899  0.00  0.00    +0.010 C 
ATOM     26  C   UNL     1      38.847 -25.715 -14.716  0.00  0.00    +0.008 C 
ATOM     27  C   UNL     1      37.947 -26.746 -14.868  0.00  0.00    +0.036 C 
ENDBRANCH  22  24
ENDBRANCH   6  22
TORSDOF 4
ENDMDL
MODEL 6
REMARK VINA RESULT:     -12.0      3.971      9.538
REMARK  Name = 6450813
REMARK  4 active torsions:
REMARK  status: ('A' for Active; 'I' for Inactive)
REMARK    1  A    between atoms: C_4  and  C_10
REMARK    2  A    between atoms: C_6  and  C_22
REMARK    3  A    between atoms: C_12  and  N_17
REMARK    4  A    between atoms: C_22  and  C_24
REMARK                            x       y       z     vdW  Elec       q    Type
REMARK                         _______ _______ _______ _____ _____    ______ ____
ROOT
ATOM      1  N   UNL     1      33.113 -12.417 -23.160  0.00  0.00    -0.191 N 
ATOM      2  N   UNL     1      33.579 -11.738 -24.246  0.00  0.00    -0.179 NA
ATOM      3  N   UNL     1      32.789 -14.687 -22.412  0.00  0.00    -0.231 NA
ATOM      4  C   UNL     1      32.589 -11.886 -21.969  0.00  0.00    +0.143 C 
ATOM      5  C   UNL     1      33.202 -13.797 -23.358  0.00  0.00    +0.141 C 
ATOM      6  C   UNL     1      33.751 -13.980 -24.608  0.00  0.00    +0.161 C 
ATOM      7  C   UNL     1      32.169 -12.727 -21.009  0.00  0.00    +0.020 C 
ATOM      8  C   UNL     1      33.958 -12.686 -25.101  0.00  0.00    +0.106 C 
ATOM      9  C   UNL     1      32.308 -14.171 -21.324  0.00  0.00    +0.097 C 
ENDROOT
BRANCH   4  10
ATOM     10  C   UNL     1      32.502 -10.432 -21.739  0.00  0.00    +0.003 C 
ATOM     11  C   UNL     1      32.876  -9.542 -22.747  0.00  0.00    +0.013 C 
ATOM     12  C   UNL     1      32.793  -8.167 -22.530  0.00  0.00    +0.054 C 
ATOM     13  C   UNL     1      32.044  -9.946 -20.515  0.00  0.00    -0.002 C 
ATOM     14  C   UNL     1      32.335  -7.681 -21.305  0.00  0.00    +0.015 C 
ATOM     15  C   UNL     1      31.960  -8.570 -20.297  0.00  0.00    +0.001 C 
BRANCH  12  17
ATOM     16  O   UNL     1      35.503  -7.564 -23.351  0.00  0.00    -0.275 OA
ATOM     17  N   UNL     1      33.168  -7.276 -23.537  0.00  0.00    -0.257 N 
ATOM     18  C   UNL     1      32.093  -6.590 -24.317  0.00  0.00    +0.120 C 
ATOM     19  C   UNL     1      34.535  -7.052 -23.919  0.00  0.00    +0.230 C 
ATOM     20  C   UNL     1      34.806  -6.166 -25.113  0.00  0.00    +0.095 C 
ENDBRANCH  12  17
ENDBRANCH   4  10
BRANCH   6  22
ATOM     21  O   UNL     1      33.774 -15.451 -26.433  0.00  0.00    -0.290 OA
ATOM     22  C   UNL     1      34.027 -15.238 -25.231  0.00  0.00    +0.191 C 
BRANCH  22  24
ATOM     23  S   UNL     1      34.408 -17.902 -24.905  0.00  0.00    -0.084 S 
ATOM     24  C   UNL     1      34.637 -16.308 -24.405  0.00  0.00    +0.065 C 
ATOM     25  C   UNL     1      35.363 -16.152 -23.285  0.00  0.00    +0.010 C 
ATOM     26  C   UNL     1      35.773 -17.419 -22.783  0.00  0.00    +0.008 C 
ATOM     27  C   UNL     1      35.322 -18.458 -23.567  0.00  0.00    +0.036 C 
ENDBRANCH  22  24
ENDBRANCH   6  22
TORSDOF 4
ENDMDL
MODEL 7
REMARK VINA RESULT:     -11.9      3.504      8.977
REMARK  Name = 6450813
REMARK  4 active torsions:
REMARK  status: ('A' for Active; 'I' for Inactive)
REMARK    1  A    between atoms: C_4  and  C_10
REMARK    2  A    between atoms: C_6  and  C_22
REMARK    3  A    between atoms: C_12  and  N_17
REMARK    4  A    between atoms: C_22  and  C_24
REMARK                            x       y       z     vdW  Elec       q    Type
REMARK                         _______ _______ _______ _____ _____    ______ ____
ROOT
ATOM      1  N   UNL     1      34.467 -20.996 -19.998  0.00  0.00    -0.191 N 
ATOM      2  N   UNL     1      33.125 -20.929 -20.225  0.00  0.00    -0.179 NA
ATOM      3  N   UNL     1      36.030 -22.110 -18.537  0.00  0.00    -0.231 NA
ATOM      4  C   UNL     1      35.492 -20.302 -20.663  0.00  0.00    +0.143 C 
ATOM      5  C   UNL     1      34.753 -21.881 -18.954  0.00  0.00    +0.141 C 
ATOM      6  C   UNL     1      33.546 -22.385 -18.526  0.00  0.00    +0.161 C 
ATOM      7  C   UNL     1      36.766 -20.498 -20.284  0.00  0.00    +0.020 C 
ATOM      8  C   UNL     1      32.589 -21.767 -19.338  0.00  0.00    +0.106 C 
ATOM      9  C   UNL     1      36.956 -21.456 -19.166  0.00  0.00    +0.097 C 
ENDROOT
BRANCH   4  10
ATOM     10  C   UNL     1      35.207 -19.376 -21.775  0.00  0.00    +0.003 C 
ATOM     11  C   UNL     1      35.055 -18.011 -21.526  0.00  0.00    +0.013 C 
ATOM     12  C   UNL     1      34.786 -17.135 -22.577  0.00  0.00    +0.054 C 
ATOM     13  C   UNL     1      35.091 -19.863 -23.076  0.00  0.00    -0.002 C 
ATOM     14  C   UNL     1      34.669 -17.624 -23.878  0.00  0.00    +0.015 C 
ATOM     15  C   UNL     1      34.822 -18.988 -24.129  0.00  0.00    +0.001 C 
BRANCH  12  17
ATOM     16  O   UNL     1      34.491 -15.062 -24.575  0.00  0.00    -0.275 OA
ATOM     17  N   UNL     1      34.632 -15.771 -22.328  0.00  0.00    -0.257 N 
ATOM     18  C   UNL     1      34.559 -15.309 -20.908  0.00  0.00    +0.120 C 
ATOM     19  C   UNL     1      34.452 -14.797 -23.371  0.00  0.00    +0.230 C 
ATOM     20  C   UNL     1      34.160 -13.369 -22.971  0.00  0.00    +0.095 C 
ENDBRANCH  12  17
ENDBRANCH   4  10
BRANCH   6  22
ATOM     21  O   UNL     1      34.137 -24.289 -17.291  0.00  0.00    -0.290 OA
ATOM     22  C   UNL     1      33.356 -23.333 -17.470  0.00  0.00    +0.191 C 
BRANCH  22  24
ATOM     23  S   UNL     1      32.472 -23.236 -14.910  0.00  0.00    -0.084 S 
ATOM     24  C   UNL     1      32.191 -23.154 -16.570  0.00  0.00    +0.065 C 
ATOM     25  C   UNL     1      30.916 -22.930 -16.932  0.00  0.00    +0.010 C 
ATOM     26  C   UNL     1      30.091 -22.814 -15.777  0.00  0.00    +0.008 C 
ATOM     27  C   UNL     1      30.808 -22.960 -14.611  0.00  0.00    +0.036 C 
ENDBRANCH  22  24
ENDBRANCH   6  22
TORSDOF 4
ENDMDL
MODEL 8
REMARK VINA RESULT:     -11.8      3.249      8.630
REMARK  Name = 6450813
REMARK  4 active torsions:
REMARK  status: ('A' for Active; 'I' for Inactive)
REMARK    1  A    between atoms: C_4  and  C_10
REMARK    2  A    between atoms: C_6  and  C_22
REMARK    3  A    between atoms: C_12  and  N_17
REMARK    4  A    between atoms: C_22  and  C_24
REMARK                            x       y       z     vdW  Elec       q    Type
REMARK                         _______ _______ _______ _____ _____    ______ ____
ROOT
ATOM      1  N   UNL     1      34.652 -19.846 -20.783  0.00  0.00    -0.191 N 
ATOM      2  N   UNL     1      33.303 -19.821 -20.976  0.00  0.00    -0.179 NA
ATOM      3  N   UNL     1      36.338 -21.250 -19.782  0.00  0.00    -0.231 NA
ATOM      4  C   UNL     1      35.599 -18.884 -21.173  0.00  0.00    +0.143 C 
ATOM      5  C   UNL     1      35.036 -21.003 -20.099  0.00  0.00    +0.141 C 
ATOM      6  C   UNL     1      33.885 -21.723 -19.868  0.00  0.00    +0.161 C 
ATOM      7  C   UNL     1      36.894 -19.088 -20.880  0.00  0.00    +0.020 C 
ATOM      8  C   UNL     1      32.860 -20.950 -20.425  0.00  0.00    +0.106 C 
ATOM      9  C   UNL     1      37.191 -20.346 -20.152  0.00  0.00    +0.097 C 
ENDROOT
BRANCH   4  10
ATOM     10  C   UNL     1      35.210 -17.666 -21.907  0.00  0.00    +0.003 C 
ATOM     11  C   UNL     1      34.409 -16.704 -21.290  0.00  0.00    +0.013 C 
ATOM     12  C   UNL     1      34.042 -15.552 -21.984  0.00  0.00    +0.054 C 
ATOM     13  C   UNL     1      35.645 -17.473 -23.218  0.00  0.00    -0.002 C 
ATOM     14  C   UNL     1      34.476 -15.360 -23.295  0.00  0.00    +0.015 C 
ATOM     15  C   UNL     1      35.278 -16.320 -23.913  0.00  0.00    +0.001 C 
BRANCH  12  17
ATOM     16  O   UNL     1      33.518 -12.881 -22.972  0.00  0.00    -0.275 OA
ATOM     17  N   UNL     1      33.239 -14.590 -21.368  0.00  0.00    -0.257 N 
ATOM     18  C   UNL     1      32.529 -14.958 -20.105  0.00  0.00    +0.120 C 
ATOM     19  C   UNL     1      32.991 -13.293 -21.935  0.00  0.00    +0.230 C 
ATOM     20  C   UNL     1      31.997 -12.389 -21.243  0.00  0.00    +0.095 C 
ENDBRANCH  12  17
ENDBRANCH   4  10
BRANCH   6  22
ATOM     21  O   UNL     1      34.081 -24.056 -19.764  0.00  0.00    -0.290 OA
ATOM     22  C   UNL     1      33.801 -22.983 -19.195  0.00  0.00    +0.191 C 
BRANCH  22  24
ATOM     23  S   UNL     1      34.564 -23.174 -16.601  0.00  0.00    -0.084 S 
ATOM     24  C   UNL     1      33.369 -22.991 -17.777  0.00  0.00    +0.065 C 
ATOM     25  C   UNL     1      32.114 -22.867 -17.312  0.00  0.00    +0.010 C 
ATOM     26  C   UNL     1      32.109 -22.923 -15.889  0.00  0.00    +0.008 C 
ATOM     27  C   UNL     1      33.374 -23.088 -15.372  0.00  0.00    +0.036 C 
ENDBRANCH  22  24
ENDBRANCH   6  22
TORSDOF 4
ENDMDL
MODEL 9
REMARK VINA RESULT:     -11.7      2.268      3.790
REMARK  Name = 6450813
REMARK  4 active torsions:
REMARK  status: ('A' for Active; 'I' for Inactive)
REMARK    1  A    between atoms: C_4  and  C_10
REMARK    2  A    between atoms: C_6  and  C_22
REMARK    3  A    between atoms: C_12  and  N_17
REMARK    4  A    between atoms: C_22  and  C_24
REMARK                            x       y       z     vdW  Elec       q    Type
REMARK                         _______ _______ _______ _____ _____    ______ ____
ROOT
ATOM      1  N   UNL     1      33.334 -13.932 -22.674  0.00  0.00    -0.191 N 
ATOM      2  N   UNL     1      32.856 -14.646 -21.617  0.00  0.00    -0.179 NA
ATOM      3  N   UNL     1      33.472 -11.647 -23.435  0.00  0.00    -0.231 NA
ATOM      4  C   UNL     1      33.984 -14.416 -23.822  0.00  0.00    +0.143 C 
ATOM      5  C   UNL     1      33.091 -12.566 -22.503  0.00  0.00    +0.141 C 
ATOM      6  C   UNL     1      32.448 -12.430 -21.294  0.00  0.00    +0.161 C 
ATOM      7  C   UNL     1      34.376 -13.545 -24.767  0.00  0.00    +0.020 C 
ATOM      8  C   UNL     1      32.332 -13.734 -20.800  0.00  0.00    +0.106 C 
ATOM      9  C   UNL     1      34.067 -12.121 -24.485  0.00  0.00    +0.097 C 
ENDROOT
BRANCH   4  10
ATOM     10  C   UNL     1      34.259 -15.853 -24.010  0.00  0.00    +0.003 C 
ATOM     11  C   UNL     1      34.910 -16.576 -23.010  0.00  0.00    +0.013 C 
ATOM     12  C   UNL     1      35.170 -17.935 -23.187  0.00  0.00    +0.054 C 
ATOM     13  C   UNL     1      33.867 -16.490 -25.187  0.00  0.00    -0.002 C 
ATOM     14  C   UNL     1      34.779 -18.571 -24.365  0.00  0.00    +0.015 C 
ATOM     15  C   UNL     1      34.127 -17.849 -25.366  0.00  0.00    +0.001 C 
BRANCH  12  17
ATOM     16  O   UNL     1      33.947 -19.854 -21.398  0.00  0.00    -0.275 OA
ATOM     17  N   UNL     1      35.822 -18.659 -22.188  0.00  0.00    -0.257 N 
ATOM     18  C   UNL     1      37.299 -18.487 -22.033  0.00  0.00    +0.120 C 
ATOM     19  C   UNL     1      35.159 -19.627 -21.358  0.00  0.00    +0.230 C 
ATOM     20  C   UNL     1      35.999 -20.444 -20.404  0.00  0.00    +0.095 C 
ENDBRANCH  12  17
ENDBRANCH   4  10
BRANCH   6  22
ATOM     21  O   UNL     1      31.803 -11.087 -19.483  0.00  0.00    -0.290 OA
ATOM     22  C   UNL     1      32.007 -11.200 -20.708  0.00  0.00    +0.191 C 
BRANCH  22  24
ATOM     23  S   UNL     1      32.724  -8.658 -21.315  0.00  0.00    -0.084 S 
ATOM     24  C   UNL     1      31.796 -10.036 -21.601  0.00  0.00    +0.065 C 
ATOM     25  C   UNL     1      30.936  -9.952 -22.631  0.00  0.00    +0.010 C 
ATOM     26  C   UNL     1      31.027  -8.670 -23.244  0.00  0.00    +0.008 C 
ATOM     27  C   UNL     1      31.961  -7.867 -22.629  0.00  0.00    +0.036 C 
ENDBRANCH  22  24
ENDBRANCH   6  22
TORSDOF 4
ENDMDL
