MODEL 1
REMARK VINA RESULT:     -13.6      0.000      0.000
REMARK  Name = 23629645
REMARK  6 active torsions:
REMARK  status: ('A' for Active; 'I' for Inactive)
REMARK    1  A    between atoms: N_1  and  C_6
REMARK    2  A    between atoms: N_1  and  C_21
REMARK    3  A    between atoms: C_3  and  C_16
REMARK    4  A    between atoms: C_11  and  C_18
REMARK    5  A    between atoms: C_18  and  O_19
REMARK    6  A    between atoms: C_21  and  C_28
REMARK                            x       y       z     vdW  Elec       q    Type
REMARK                         _______ _______ _______ _____ _____    ______ ____
ROOT
ATOM      1  N   UNL     1      35.287 -18.949 -22.741  0.00  0.00    -0.300 N 
ATOM      2  C   UNL     1      34.919 -19.286 -24.101  0.00  0.00    +0.113 C 
ENDROOT
BRANCH   1   6
ATOM      3  C   UNL     1      34.261 -21.493 -19.567  0.00  0.00    +0.054 C 
ATOM      4  C   UNL     1      33.267 -20.785 -20.237  0.00  0.00    +0.006 C 
ATOM      5  C   UNL     1      35.595 -21.361 -19.945  0.00  0.00    +0.006 C 
ATOM      6  C   UNL     1      34.942 -19.805 -21.674  0.00  0.00    +0.048 C 
ATOM      7  C   UNL     1      33.607 -19.939 -21.292  0.00  0.00    +0.015 C 
ATOM      8  C   UNL     1      35.936 -20.515 -21.000  0.00  0.00    +0.015 C 
BRANCH   3  16
ATOM      9  O   UNL     1      32.717 -22.701 -18.376  0.00  0.00    -0.270 OA
ATOM     10  N   UNL     1      34.913 -22.785 -17.580  0.00  0.00    -0.276 N 
ATOM     11  C   UNL     1      36.453 -22.575 -15.130  0.00  0.00    +0.102 C 
ATOM     12  C   UNL     1      35.001 -23.067 -15.141  0.00  0.00    +0.033 C 
ATOM     13  C   UNL     1      36.795 -21.747 -16.375  0.00  0.00    +0.033 C 
ATOM     14  C   UNL     1      34.600 -23.691 -16.478  0.00  0.00    +0.094 C 
ATOM     15  C   UNL     1      36.328 -22.406 -17.672  0.00  0.00    +0.094 C 
ATOM     16  C   UNL     1      33.902 -22.383 -18.455  0.00  0.00    +0.249 C 
BRANCH  11  18
ATOM     17  O   UNL     1      38.536 -23.752 -15.409  0.00  0.00    -0.250 OA
ATOM     18  C   UNL     1      37.392 -23.736 -14.977  0.00  0.00    +0.317 C 
BRANCH  18  19
ATOM     19  O   UNL     1      36.769 -24.739 -14.295  0.00  0.00    -0.444 OA
ATOM     20  C   UNL     1      37.152 -26.066 -14.669  0.00  0.00    +0.256 C 
ENDBRANCH  18  19
ENDBRANCH  11  18
ENDBRANCH   3  16
ENDBRANCH   1   6
BRANCH   1  21
ATOM     21  C   UNL     1      36.003 -17.714 -22.488  0.00  0.00    +0.148 C 
BRANCH  21  28
ATOM     22  N   UNL     1      34.596 -15.842 -23.116  0.00  0.00    -0.392 NA
ATOM     23  N   UNL     1      33.913 -15.365 -20.477  0.00  0.00    -0.200 NA
ATOM     24  N   UNL     1      32.582 -13.585 -21.128  0.00  0.00    -0.271 NA
ATOM     25  N   UNL     1      32.373 -12.983 -23.439  0.00  0.00    -0.310 NA
ATOM     26  N   UNL     1      33.540 -14.220 -25.079  0.00  0.00    -0.329 N 
ATOM     27  N   UNL     1      31.231 -11.781 -21.784  0.00  0.00    -0.283 N 
ATOM     28  C   UNL     1      35.071 -16.590 -22.120  0.00  0.00    +0.133 C 
ATOM     29  C   UNL     1      34.746 -16.367 -20.820  0.00  0.00    +0.193 C 
ATOM     30  C   UNL     1      33.764 -14.840 -22.772  0.00  0.00    +0.248 C 
ATOM     31  C   UNL     1      33.411 -14.587 -21.444  0.00  0.00    +0.131 C 
ATOM     32  C   UNL     1      33.208 -14.000 -23.717  0.00  0.00    +0.231 C 
ATOM     33  C   UNL     1      32.104 -12.833 -22.137  0.00  0.00    +0.207 C 
ATOM     34  H   UNL     1      33.161 -13.639 -25.778  0.00  0.00    +0.145 HD
ATOM     35  H   UNL     1      34.148 -14.953 -25.325  0.00  0.00    +0.145 HD
ATOM     36  H   UNL     1      31.002 -11.629 -20.839  0.00  0.00    +0.156 HD
ATOM     37  H   UNL     1      30.854 -11.200 -22.483  0.00  0.00    +0.156 HD
ENDBRANCH  21  28
ENDBRANCH   1  21
TORSDOF 6
ENDMDL
MODEL 2
REMARK VINA RESULT:     -13.2      1.331      2.421
REMARK  Name = 23629645
REMARK  6 active torsions:
REMARK  status: ('A' for Active; 'I' for Inactive)
REMARK    1  A    between atoms: N_1  and  C_6
REMARK    2  A    between atoms: N_1  and  C_21
REMARK    3  A    between atoms: C_3  and  C_16
REMARK    4  A    between atoms: C_11  and  C_18
REMARK    5  A    between atoms: C_18  and  O_19
REMARK    6  A    between atoms: C_21  and  C_28
REMARK                            x       y       z     vdW  Elec       q    Type
REMARK                         _______ _______ _______ _____ _____    ______ ____
ROOT
ATOM      1  N   UNL     1      35.777 -19.351 -22.347  0.00  0.00    -0.300 N 
ATOM      2  C   UNL     1      37.001 -18.601 -22.151  0.00  0.00    +0.113 C 
ENDROOT
BRANCH   1   6
ATOM      3  C   UNL     1      34.228 -21.736 -19.261  0.00  0.00    +0.054 C 
ATOM      4  C   UNL     1      35.595 -21.746 -19.526  0.00  0.00    +0.006 C 
ATOM      5  C   UNL     1      33.372 -20.938 -20.017  0.00  0.00    +0.006 C 
ATOM      6  C   UNL     1      35.256 -20.153 -21.309  0.00  0.00    +0.048 C 
ATOM      7  C   UNL     1      36.111 -20.954 -20.551  0.00  0.00    +0.015 C 
ATOM      8  C   UNL     1      33.887 -20.145 -21.042  0.00  0.00    +0.015 C 
BRANCH   3  16
ATOM      9  O   UNL     1      32.474 -22.775 -18.211  0.00  0.00    -0.270 OA
ATOM     10  N   UNL     1      34.570 -23.054 -17.215  0.00  0.00    -0.276 N 
ATOM     11  C   UNL     1      35.891 -22.953 -14.634  0.00  0.00    +0.102 C 
ATOM     12  C   UNL     1      34.407 -23.306 -14.777  0.00  0.00    +0.033 C 
ATOM     13  C   UNL     1      36.423 -22.180 -15.848  0.00  0.00    +0.033 C 
ATOM     14  C   UNL     1      34.072 -23.909 -16.141  0.00  0.00    +0.094 C 
ATOM     15  C   UNL     1      36.016 -22.811 -17.178  0.00  0.00    +0.094 C 
ATOM     16  C   UNL     1      33.686 -22.571 -18.182  0.00  0.00    +0.249 C 
BRANCH  11  18
ATOM     17  O   UNL     1      36.216 -25.270 -14.059  0.00  0.00    -0.250 OA
ATOM     18  C   UNL     1      36.698 -24.195 -14.388  0.00  0.00    +0.317 C 
BRANCH  18  19
ATOM     19  O   UNL     1      38.019 -23.927 -14.588  0.00  0.00    -0.444 OA
ATOM     20  C   UNL     1      38.883 -25.068 -14.599  0.00  0.00    +0.256 C 
ENDBRANCH  18  19
ENDBRANCH  11  18
ENDBRANCH   3  16
ENDBRANCH   1   6
BRANCH   1  21
ATOM     21  C   UNL     1      35.101 -19.279 -23.627  0.00  0.00    +0.148 C 
BRANCH  21  28
ATOM     22  N   UNL     1      34.750 -16.948 -23.059  0.00  0.00    -0.392 NA
ATOM     23  N   UNL     1      34.385 -16.271 -25.717  0.00  0.00    -0.200 NA
ATOM     24  N   UNL     1      34.056 -14.057 -25.123  0.00  0.00    -0.271 NA
ATOM     25  N   UNL     1      34.152 -13.369 -22.828  0.00  0.00    -0.310 NA
ATOM     26  N   UNL     1      34.588 -14.970 -21.146  0.00  0.00    -0.329 N 
ATOM     27  N   UNL     1      33.724 -11.811 -24.524  0.00  0.00    -0.283 N 
ATOM     28  C   UNL     1      34.817 -17.857 -24.033  0.00  0.00    +0.133 C 
ATOM     29  C   UNL     1      34.639 -17.539 -25.341  0.00  0.00    +0.193 C 
ATOM     30  C   UNL     1      34.496 -15.680 -23.436  0.00  0.00    +0.248 C 
ATOM     31  C   UNL     1      34.309 -15.324 -24.773  0.00  0.00    +0.131 C 
ATOM     32  C   UNL     1      34.405 -14.653 -22.517  0.00  0.00    +0.231 C 
ATOM     33  C   UNL     1      33.991 -13.143 -24.136  0.00  0.00    +0.207 C 
ATOM     34  H   UNL     1      34.529 -14.261 -20.465  0.00  0.00    +0.145 HD
ATOM     35  H   UNL     1      34.774 -15.898 -20.876  0.00  0.00    +0.145 HD
ATOM     36  H   UNL     1      33.597 -11.592 -25.475  0.00  0.00    +0.156 HD
ATOM     37  H   UNL     1      33.665 -11.104 -23.843  0.00  0.00    +0.156 HD
ENDBRANCH  21  28
ENDBRANCH   1  21
TORSDOF 6
ENDMDL
MODEL 3
REMARK VINA RESULT:     -13.0      1.260      1.751
REMARK  Name = 23629645
REMARK  6 active torsions:
REMARK  status: ('A' for Active; 'I' for Inactive)
REMARK    1  A    between atoms: N_1  and  C_6
REMARK    2  A    between atoms: N_1  and  C_21
REMARK    3  A    between atoms: C_3  and  C_16
REMARK    4  A    between atoms: C_11  and  C_18
REMARK    5  A    between atoms: C_18  and  O_19
REMARK    6  A    between atoms: C_21  and  C_28
REMARK                            x       y       z     vdW  Elec       q    Type
REMARK                         _______ _______ _______ _____ _____    ______ ____
ROOT
ATOM      1  N   UNL     1      35.922 -19.155 -22.064  0.00  0.00    -0.300 N 
ATOM      2  C   UNL     1      37.308 -18.737 -22.008  0.00  0.00    +0.113 C 
ENDROOT
BRANCH   1   6
ATOM      3  C   UNL     1      34.367 -21.753 -19.161  0.00  0.00    +0.054 C 
ATOM      4  C   UNL     1      35.744 -21.672 -19.351  0.00  0.00    +0.006 C 
ATOM      5  C   UNL     1      33.503 -20.978 -19.929  0.00  0.00    +0.006 C 
ATOM      6  C   UNL     1      35.399 -20.029 -21.087  0.00  0.00    +0.048 C 
ATOM      7  C   UNL     1      36.261 -20.807 -20.316  0.00  0.00    +0.015 C 
ATOM      8  C   UNL     1      34.020 -20.113 -20.895  0.00  0.00    +0.015 C 
BRANCH   3  16
ATOM      9  O   UNL     1      32.628 -22.938 -18.247  0.00  0.00    -0.270 OA
ATOM     10  N   UNL     1      34.683 -23.133 -17.151  0.00  0.00    -0.276 N 
ATOM     11  C   UNL     1      35.863 -23.062 -14.502  0.00  0.00    +0.102 C 
ATOM     12  C   UNL     1      34.412 -23.497 -14.737  0.00  0.00    +0.033 C 
ATOM     13  C   UNL     1      36.408 -22.209 -15.654  0.00  0.00    +0.033 C 
ATOM     14  C   UNL     1      34.185 -24.061 -16.139  0.00  0.00    +0.094 C 
ATOM     15  C   UNL     1      36.109 -22.807 -17.028  0.00  0.00    +0.094 C 
ATOM     16  C   UNL     1      33.822 -22.664 -18.145  0.00  0.00    +0.249 C 
BRANCH  11  18
ATOM     17  O   UNL     1      36.306 -25.354 -13.906  0.00  0.00    -0.250 OA
ATOM     18  C   UNL     1      36.730 -24.263 -14.261  0.00  0.00    +0.317 C 
BRANCH  18  19
ATOM     19  O   UNL     1      38.033 -23.940 -14.499  0.00  0.00    -0.444 OA
ATOM     20  C   UNL     1      38.942 -25.045 -14.548  0.00  0.00    +0.256 C 
ENDBRANCH  18  19
ENDBRANCH  11  18
ENDBRANCH   3  16
ENDBRANCH   1   6
BRANCH   1  21
ATOM     21  C   UNL     1      35.082 -18.675 -23.144  0.00  0.00    +0.148 C 
BRANCH  21  28
ATOM     22  N   UNL     1      34.420 -16.568 -24.144  0.00  0.00    -0.392 NA
ATOM     23  N   UNL     1      34.767 -15.229 -21.746  0.00  0.00    -0.200 NA
ATOM     24  N   UNL     1      34.127 -13.241 -22.748  0.00  0.00    -0.271 NA
ATOM     25  N   UNL     1      33.525 -13.167 -25.068  0.00  0.00    -0.310 NA
ATOM     26  N   UNL     1      33.583 -15.148 -26.354  0.00  0.00    -0.329 N 
ATOM     27  N   UNL     1      33.478 -11.225 -23.760  0.00  0.00    -0.283 N 
ATOM     28  C   UNL     1      34.821 -17.196 -23.038  0.00  0.00    +0.133 C 
ATOM     29  C   UNL     1      34.997 -16.551 -21.855  0.00  0.00    +0.193 C 
ATOM     30  C   UNL     1      34.190 -15.245 -24.034  0.00  0.00    +0.248 C 
ATOM     31  C   UNL     1      34.361 -14.556 -22.831  0.00  0.00    +0.131 C 
ATOM     32  C   UNL     1      33.770 -14.488 -25.111  0.00  0.00    +0.231 C 
ATOM     33  C   UNL     1      33.721 -12.611 -23.866  0.00  0.00    +0.207 C 
ATOM     34  H   UNL     1      33.284 -14.638 -27.141  0.00  0.00    +0.145 HD
ATOM     35  H   UNL     1      33.751 -16.115 -26.428  0.00  0.00    +0.145 HD
ATOM     36  H   UNL     1      33.608 -10.768 -22.897  0.00  0.00    +0.156 HD
ATOM     37  H   UNL     1      33.181 -10.715 -24.547  0.00  0.00    +0.156 HD
ENDBRANCH  21  28
ENDBRANCH   1  21
TORSDOF 6
ENDMDL
MODEL 4
REMARK VINA RESULT:     -12.4      3.564     10.705
REMARK  Name = 23629645
REMARK  6 active torsions:
REMARK  status: ('A' for Active; 'I' for Inactive)
REMARK    1  A    between atoms: N_1  and  C_6
REMARK    2  A    between atoms: N_1  and  C_21
REMARK    3  A    between atoms: C_3  and  C_16
REMARK    4  A    between atoms: C_11  and  C_18
REMARK    5  A    between atoms: C_18  and  O_19
REMARK    6  A    between atoms: C_21  and  C_28
REMARK                            x       y       z     vdW  Elec       q    Type
REMARK                         _______ _______ _______ _____ _____    ______ ____
ROOT
ATOM      1  N   UNL     1      34.289 -22.756 -17.892  0.00  0.00    -0.300 N 
ATOM      2  C   UNL     1      33.677 -24.062 -18.035  0.00  0.00    +0.113 C 
ENDROOT
BRANCH   1   6
ATOM      3  C   UNL     1      34.821 -20.281 -21.238  0.00  0.00    +0.054 C 
ATOM      4  C   UNL     1      33.537 -20.534 -20.760  0.00  0.00    +0.006 C 
ATOM      5  C   UNL     1      35.928 -20.845 -20.611  0.00  0.00    +0.006 C 
ATOM      6  C   UNL     1      34.468 -21.923 -19.017  0.00  0.00    +0.048 C 
ATOM      7  C   UNL     1      33.360 -21.357 -19.647  0.00  0.00    +0.015 C 
ATOM      8  C   UNL     1      35.752 -21.668 -19.498  0.00  0.00    +0.015 C 
BRANCH   3  16
ATOM      9  O   UNL     1      35.572 -19.924 -23.375  0.00  0.00    -0.270 OA
ATOM     10  N   UNL     1      34.545 -18.099 -22.337  0.00  0.00    -0.276 N 
ATOM     11  C   UNL     1      34.890 -15.256 -21.874  0.00  0.00    +0.102 C 
ATOM     12  C   UNL     1      35.468 -15.958 -23.109  0.00  0.00    +0.033 C 
ATOM     13  C   UNL     1      34.612 -16.235 -20.727  0.00  0.00    +0.033 C 
ATOM     14  C   UNL     1      34.689 -17.216 -23.491  0.00  0.00    +0.094 C 
ATOM     15  C   UNL     1      33.870 -17.490 -21.185  0.00  0.00    +0.094 C 
ATOM     16  C   UNL     1      35.007 -19.415 -22.409  0.00  0.00    +0.249 C 
BRANCH  11  18
ATOM     17  O   UNL     1      33.332 -14.223 -23.395  0.00  0.00    -0.250 OA
ATOM     18  C   UNL     1      33.653 -14.491 -22.245  0.00  0.00    +0.317 C 
BRANCH  18  19
ATOM     19  O   UNL     1      32.968 -14.157 -21.115  0.00  0.00    -0.444 OA
ATOM     20  C   UNL     1      32.177 -12.967 -21.204  0.00  0.00    +0.256 C 
ENDBRANCH  18  19
ENDBRANCH  11  18
ENDBRANCH   3  16
ENDBRANCH   1   6
BRANCH   1  21
ATOM     21  C   UNL     1      34.727 -22.321 -16.580  0.00  0.00    +0.148 C 
BRANCH  21  28
ATOM     22  N   UNL     1      35.981 -24.251 -15.817  0.00  0.00    -0.392 NA
ATOM     23  N   UNL     1      38.350 -22.820 -15.836  0.00  0.00    -0.200 NA
ATOM     24  N   UNL     1      39.502 -24.692 -15.105  0.00  0.00    -0.271 NA
ATOM     25  N   UNL     1      38.361 -26.761 -14.699  0.00  0.00    -0.310 NA
ATOM     26  N   UNL     1      36.028 -26.898 -15.048  0.00  0.00    -0.329 N 
ATOM     27  N   UNL     1      40.673 -26.587 -14.366  0.00  0.00    -0.283 N 
ATOM     28  C   UNL     1      36.026 -22.968 -16.179  0.00  0.00    +0.133 C 
ATOM     29  C   UNL     1      37.181 -22.254 -16.192  0.00  0.00    +0.193 C 
ATOM     30  C   UNL     1      37.150 -24.816 -15.460  0.00  0.00    +0.248 C 
ATOM     31  C   UNL     1      38.353 -24.107 -15.464  0.00  0.00    +0.131 C 
ATOM     32  C   UNL     1      37.228 -26.139 -15.067  0.00  0.00    +0.231 C 
ATOM     33  C   UNL     1      39.451 -25.987 -14.741  0.00  0.00    +0.207 C 
ATOM     34  H   UNL     1      36.049 -27.843 -14.773  0.00  0.00    +0.145 HD
ATOM     35  H   UNL     1      35.177 -26.479 -15.310  0.00  0.00    +0.145 HD
ATOM     36  H   UNL     1      41.504 -26.060 -14.380  0.00  0.00    +0.156 HD
ATOM     37  H   UNL     1      40.693 -27.532 -14.090  0.00  0.00    +0.156 HD
ENDBRANCH  21  28
ENDBRANCH   1  21
TORSDOF 6
ENDMDL
MODEL 5
REMARK VINA RESULT:     -12.2      3.766     10.868
REMARK  Name = 23629645
REMARK  6 active torsions:
REMARK  status: ('A' for Active; 'I' for Inactive)
REMARK    1  A    between atoms: N_1  and  C_6
REMARK    2  A    between atoms: N_1  and  C_21
REMARK    3  A    between atoms: C_3  and  C_16
REMARK    4  A    between atoms: C_11  and  C_18
REMARK    5  A    between atoms: C_18  and  O_19
REMARK    6  A    between atoms: C_21  and  C_28
REMARK                            x       y       z     vdW  Elec       q    Type
REMARK                         _______ _______ _______ _____ _____    ______ ____
ROOT
ATOM      1  N   UNL     1      35.839 -21.748 -18.665  0.00  0.00    -0.300 N 
ATOM      2  C   UNL     1      34.871 -22.798 -18.427  0.00  0.00    +0.113 C 
ENDROOT
BRANCH   1   6
ATOM      3  C   UNL     1      35.374 -19.124 -21.906  0.00  0.00    +0.054 C 
ATOM      4  C   UNL     1      34.283 -19.856 -21.445  0.00  0.00    +0.006 C 
ATOM      5  C   UNL     1      36.619 -19.259 -21.298  0.00  0.00    +0.006 C 
ATOM      6  C   UNL     1      35.683 -20.865 -19.755  0.00  0.00    +0.048 C 
ATOM      7  C   UNL     1      34.437 -20.728 -20.367  0.00  0.00    +0.015 C 
ATOM      8  C   UNL     1      36.774 -20.131 -20.220  0.00  0.00    +0.015 C 
BRANCH   3  16
ATOM      9  O   UNL     1      35.691 -18.577 -24.111  0.00  0.00    -0.270 OA
ATOM     10  N   UNL     1      34.547 -16.998 -22.822  0.00  0.00    -0.276 N 
ATOM     11  C   UNL     1      34.464 -14.153 -22.258  0.00  0.00    +0.102 C 
ATOM     12  C   UNL     1      34.943 -14.704 -23.606  0.00  0.00    +0.033 C 
ATOM     13  C   UNL     1      34.553 -15.199 -21.139  0.00  0.00    +0.033 C 
ATOM     14  C   UNL     1      34.343 -16.071 -23.932  0.00  0.00    +0.094 C 
ATOM     15  C   UNL     1      33.975 -16.554 -21.546  0.00  0.00    +0.094 C 
ATOM     16  C   UNL     1      35.212 -18.206 -23.041  0.00  0.00    +0.249 C 
BRANCH  11  18
ATOM     17  O   UNL     1      32.513 -13.399 -23.454  0.00  0.00    -0.250 OA
ATOM     18  C   UNL     1      33.068 -13.615 -22.386  0.00  0.00    +0.317 C 
BRANCH  18  19
ATOM     19  O   UNL     1      32.542 -13.414 -21.145  0.00  0.00    -0.444 OA
ATOM     20  C   UNL     1      31.919 -12.142 -20.939  0.00  0.00    +0.256 C 
ENDBRANCH  18  19
ENDBRANCH  11  18
ENDBRANCH   3  16
ENDBRANCH   1   6
BRANCH   1  21
ATOM     21  C   UNL     1      36.979 -21.623 -17.778  0.00  0.00    +0.148 C 
BRANCH  21  28
ATOM     22  N   UNL     1      37.823 -23.341 -16.290  0.00  0.00    -0.392 NA
ATOM     23  N   UNL     1      35.591 -23.143 -14.665  0.00  0.00    -0.200 NA
ATOM     24  N   UNL     1      36.440 -24.789 -13.275  0.00  0.00    -0.271 NA
ATOM     25  N   UNL     1      38.555 -25.821 -13.735  0.00  0.00    -0.310 NA
ATOM     26  N   UNL     1      39.794 -25.152 -15.632  0.00  0.00    -0.329 N 
ATOM     27  N   UNL     1      37.298 -26.457 -11.863  0.00  0.00    -0.283 N 
ATOM     28  C   UNL     1      36.834 -22.485 -16.552  0.00  0.00    +0.133 C 
ATOM     29  C   UNL     1      35.733 -22.378 -15.764  0.00  0.00    +0.193 C 
ATOM     30  C   UNL     1      37.679 -24.106 -15.191  0.00  0.00    +0.248 C 
ATOM     31  C   UNL     1      36.559 -24.017 -14.362  0.00  0.00    +0.131 C 
ATOM     32  C   UNL     1      38.638 -25.028 -14.817  0.00  0.00    +0.231 C 
ATOM     33  C   UNL     1      37.440 -25.651 -13.014  0.00  0.00    +0.207 C 
ATOM     34  H   UNL     1      40.496 -25.800 -15.394  0.00  0.00    +0.145 HD
ATOM     35  H   UNL     1      39.894 -24.590 -16.433  0.00  0.00    +0.145 HD
ATOM     36  H   UNL     1      36.496 -26.370 -11.299  0.00  0.00    +0.156 HD
ATOM     37  H   UNL     1      38.000 -27.105 -11.627  0.00  0.00    +0.156 HD
ENDBRANCH  21  28
ENDBRANCH   1  21
TORSDOF 6
ENDMDL
MODEL 6
REMARK VINA RESULT:     -12.2      3.627     10.652
REMARK  Name = 23629645
REMARK  6 active torsions:
REMARK  status: ('A' for Active; 'I' for Inactive)
REMARK    1  A    between atoms: N_1  and  C_6
REMARK    2  A    between atoms: N_1  and  C_21
REMARK    3  A    between atoms: C_3  and  C_16
REMARK    4  A    between atoms: C_11  and  C_18
REMARK    5  A    between atoms: C_18  and  O_19
REMARK    6  A    between atoms: C_21  and  C_28
REMARK                            x       y       z     vdW  Elec       q    Type
REMARK                         _______ _______ _______ _____ _____    ______ ____
ROOT
ATOM      1  N   UNL     1      35.618 -22.000 -18.476  0.00  0.00    -0.300 N 
ATOM      2  C   UNL     1      36.816 -21.998 -17.662  0.00  0.00    +0.113 C 
ENDROOT
BRANCH   1   6
ATOM      3  C   UNL     1      35.281 -19.414 -21.764  0.00  0.00    +0.054 C 
ATOM      4  C   UNL     1      36.523 -19.619 -21.167  0.00  0.00    +0.006 C 
ATOM      5  C   UNL     1      34.151 -20.063 -21.274  0.00  0.00    +0.006 C 
ATOM      6  C   UNL     1      35.505 -21.130 -19.582  0.00  0.00    +0.048 C 
ATOM      7  C   UNL     1      36.635 -20.478 -20.075  0.00  0.00    +0.015 C 
ATOM      8  C   UNL     1      34.262 -20.923 -20.181  0.00  0.00    +0.015 C 
BRANCH   3  16
ATOM      9  O   UNL     1      35.626 -18.918 -23.977  0.00  0.00    -0.270 OA
ATOM     10  N   UNL     1      34.554 -17.267 -22.715  0.00  0.00    -0.276 N 
ATOM     11  C   UNL     1      34.602 -14.414 -22.197  0.00  0.00    +0.102 C 
ATOM     12  C   UNL     1      35.057 -15.007 -23.535  0.00  0.00    +0.033 C 
ATOM     13  C   UNL     1      34.641 -15.444 -21.061  0.00  0.00    +0.033 C 
ATOM     14  C   UNL     1      34.395 -16.350 -23.840  0.00  0.00    +0.094 C 
ATOM     15  C   UNL     1      34.001 -16.777 -21.447  0.00  0.00    +0.094 C 
ATOM     16  C   UNL     1      35.163 -18.509 -22.914  0.00  0.00    +0.249 C 
BRANCH  11  18
ATOM     17  O   UNL     1      32.697 -13.573 -23.409  0.00  0.00    -0.250 OA
ATOM     18  C   UNL     1      33.233 -13.813 -22.336  0.00  0.00    +0.317 C 
BRANCH  18  19
ATOM     19  O   UNL     1      32.706 -13.588 -21.099  0.00  0.00    -0.444 OA
ATOM     20  C   UNL     1      32.029 -12.338 -20.938  0.00  0.00    +0.256 C 
ENDBRANCH  18  19
ENDBRANCH  11  18
ENDBRANCH   3  16
ENDBRANCH   1   6
BRANCH   1  21
ATOM     21  C   UNL     1      34.531 -22.896 -18.134  0.00  0.00    +0.148 C 
BRANCH  21  28
ATOM     22  N   UNL     1      35.677 -23.758 -16.179  0.00  0.00    -0.392 NA
ATOM     23  N   UNL     1      33.428 -23.403 -14.604  0.00  0.00    -0.200 NA
ATOM     24  N   UNL     1      34.567 -24.233 -12.766  0.00  0.00    -0.271 NA
ATOM     25  N   UNL     1      36.850 -24.943 -12.947  0.00  0.00    -0.310 NA
ATOM     26  N   UNL     1      37.958 -24.795 -15.029  0.00  0.00    -0.329 N 
ATOM     27  N   UNL     1      35.718 -25.073 -10.901  0.00  0.00    -0.283 N 
ATOM     28  C   UNL     1      34.543 -23.260 -16.673  0.00  0.00    +0.133 C 
ATOM     29  C   UNL     1      33.432 -23.081 -15.912  0.00  0.00    +0.193 C 
ATOM     30  C   UNL     1      35.673 -24.079 -14.870  0.00  0.00    +0.248 C 
ATOM     31  C   UNL     1      34.546 -23.906 -14.064  0.00  0.00    +0.131 C 
ATOM     32  C   UNL     1      36.789 -24.601 -14.247  0.00  0.00    +0.231 C 
ATOM     33  C   UNL     1      35.714 -24.734 -12.272  0.00  0.00    +0.207 C 
ATOM     34  H   UNL     1      38.771 -25.166 -14.615  0.00  0.00    +0.145 HD
ATOM     35  H   UNL     1      37.956 -24.558 -15.984  0.00  0.00    +0.145 HD
ATOM     36  H   UNL     1      34.907 -24.939 -10.359  0.00  0.00    +0.156 HD
ATOM     37  H   UNL     1      36.530 -25.445 -10.489  0.00  0.00    +0.156 HD
ENDBRANCH  21  28
ENDBRANCH   1  21
TORSDOF 6
ENDMDL
MODEL 7
REMARK VINA RESULT:     -12.2      3.913     10.136
REMARK  Name = 23629645
REMARK  6 active torsions:
REMARK  status: ('A' for Active; 'I' for Inactive)
REMARK    1  A    between atoms: N_1  and  C_6
REMARK    2  A    between atoms: N_1  and  C_21
REMARK    3  A    between atoms: C_3  and  C_16
REMARK    4  A    between atoms: C_11  and  C_18
REMARK    5  A    between atoms: C_18  and  O_19
REMARK    6  A    between atoms: C_21  and  C_28
REMARK                            x       y       z     vdW  Elec       q    Type
REMARK                         _______ _______ _______ _____ _____    ______ ____
ROOT
ATOM      1  N   UNL     1      35.888 -21.518 -19.444  0.00  0.00    -0.300 N 
ATOM      2  C   UNL     1      36.832 -21.308 -18.366  0.00  0.00    +0.113 C 
ENDROOT
BRANCH   1   6
ATOM      3  C   UNL     1      35.264 -18.537 -22.331  0.00  0.00    +0.054 C 
ATOM      4  C   UNL     1      36.512 -18.666 -21.726  0.00  0.00    +0.006 C 
ATOM      5  C   UNL     1      34.222 -19.392 -21.982  0.00  0.00    +0.006 C 
ATOM      6  C   UNL     1      35.679 -20.516 -20.415  0.00  0.00    +0.048 C 
ATOM      7  C   UNL     1      36.720 -19.657 -20.767  0.00  0.00    +0.015 C 
ATOM      8  C   UNL     1      34.429 -20.384 -21.022  0.00  0.00    +0.015 C 
BRANCH   3  16
ATOM      9  O   UNL     1      35.501 -17.718 -24.460  0.00  0.00    -0.270 OA
ATOM     10  N   UNL     1      34.358 -16.340 -22.957  0.00  0.00    -0.276 N 
ATOM     11  C   UNL     1      34.224 -13.588 -22.047  0.00  0.00    +0.102 C 
ATOM     12  C   UNL     1      34.676 -13.957 -23.465  0.00  0.00    +0.033 C 
ATOM     13  C   UNL     1      34.371 -14.759 -21.068  0.00  0.00    +0.033 C 
ATOM     14  C   UNL     1      34.099 -15.291 -23.939  0.00  0.00    +0.094 C 
ATOM     15  C   UNL     1      33.815 -16.070 -21.621  0.00  0.00    +0.094 C 
ATOM     16  C   UNL     1      35.045 -17.493 -23.340  0.00  0.00    +0.249 C 
BRANCH  11  18
ATOM     17  O   UNL     1      32.132 -12.991 -23.083  0.00  0.00    -0.250 OA
ATOM     18  C   UNL     1      32.813 -13.077 -22.071  0.00  0.00    +0.317 C 
BRANCH  18  19
ATOM     19  O   UNL     1      32.431 -12.735 -20.807  0.00  0.00    -0.444 OA
ATOM     20  C   UNL     1      31.730 -11.493 -20.691  0.00  0.00    +0.256 C 
ENDBRANCH  18  19
ENDBRANCH  11  18
ENDBRANCH   3  16
ENDBRANCH   1   6
BRANCH   1  21
ATOM     21  C   UNL     1      35.151 -22.765 -19.506  0.00  0.00    +0.148 C 
BRANCH  21  28
ATOM     22  N   UNL     1      34.548 -23.487 -17.272  0.00  0.00    -0.392 NA
ATOM     23  N   UNL     1      31.986 -22.477 -17.550  0.00  0.00    -0.200 NA
ATOM     24  N   UNL     1      31.459 -23.187 -15.410  0.00  0.00    -0.271 NA
ATOM     25  N   UNL     1      33.079 -24.319 -14.052  0.00  0.00    -0.310 NA
ATOM     26  N   UNL     1      35.245 -24.718 -14.906  0.00  0.00    -0.329 N 
ATOM     27  N   UNL     1      30.921 -23.904 -13.240  0.00  0.00    -0.283 N 
ATOM     28  C   UNL     1      34.147 -22.880 -18.390  0.00  0.00    +0.133 C 
ATOM     29  C   UNL     1      32.893 -22.380 -18.541  0.00  0.00    +0.193 C 
ATOM     30  C   UNL     1      33.639 -23.583 -16.282  0.00  0.00    +0.248 C 
ATOM     31  C   UNL     1      32.343 -23.078 -16.408  0.00  0.00    +0.131 C 
ATOM     32  C   UNL     1      33.939 -24.190 -15.077  0.00  0.00    +0.231 C 
ATOM     33  C   UNL     1      31.867 -23.800 -14.283  0.00  0.00    +0.207 C 
ATOM     34  H   UNL     1      35.491 -25.156 -14.059  0.00  0.00    +0.145 HD
ATOM     35  H   UNL     1      35.905 -24.644 -15.632  0.00  0.00    +0.145 HD
ATOM     36  H   UNL     1      30.015 -23.538 -13.360  0.00  0.00    +0.156 HD
ATOM     37  H   UNL     1      31.167 -24.344 -12.395  0.00  0.00    +0.156 HD
ENDBRANCH  21  28
ENDBRANCH   1  21
TORSDOF 6
ENDMDL
MODEL 8
REMARK VINA RESULT:     -12.1      4.693      8.476
REMARK  Name = 23629645
REMARK  6 active torsions:
REMARK  status: ('A' for Active; 'I' for Inactive)
REMARK    1  A    between atoms: N_1  and  C_6
REMARK    2  A    between atoms: N_1  and  C_21
REMARK    3  A    between atoms: C_3  and  C_16
REMARK    4  A    between atoms: C_11  and  C_18
REMARK    5  A    between atoms: C_18  and  O_19
REMARK    6  A    between atoms: C_21  and  C_28
REMARK                            x       y       z     vdW  Elec       q    Type
REMARK                         _______ _______ _______ _____ _____    ______ ____
ROOT
ATOM      1  N   UNL     1      31.893 -11.149 -21.758  0.00  0.00    -0.300 N 
ATOM      2  C   UNL     1      30.477 -11.115 -21.454  0.00  0.00    +0.113 C 
ENDROOT
BRANCH   1   6
ATOM      3  C   UNL     1      33.608 -14.553 -23.512  0.00  0.00    +0.054 C 
ATOM      4  C   UNL     1      33.673 -13.328 -24.170  0.00  0.00    +0.006 C 
ATOM      5  C   UNL     1      32.977 -14.655 -22.275  0.00  0.00    +0.006 C 
ATOM      6  C   UNL     1      32.470 -12.294 -22.348  0.00  0.00    +0.048 C 
ATOM      7  C   UNL     1      33.103 -12.196 -23.587  0.00  0.00    +0.015 C 
ATOM      8  C   UNL     1      32.407 -13.523 -21.691  0.00  0.00    +0.015 C 
BRANCH   3  16
ATOM      9  O   UNL     1      33.955 -15.927 -25.315  0.00  0.00    -0.270 OA
ATOM     10  N   UNL     1      34.997 -16.573 -23.325  0.00  0.00    -0.276 N 
ATOM     11  C   UNL     1      35.432 -18.890 -21.635  0.00  0.00    +0.102 C 
ATOM     12  C   UNL     1      35.216 -19.013 -23.148  0.00  0.00    +0.033 C 
ATOM     13  C   UNL     1      34.884 -17.571 -21.076  0.00  0.00    +0.033 C 
ATOM     14  C   UNL     1      35.631 -17.753 -23.907  0.00  0.00    +0.094 C 
ATOM     15  C   UNL     1      35.300 -16.357 -21.906  0.00  0.00    +0.094 C 
ATOM     16  C   UNL     1      34.208 -15.745 -24.126  0.00  0.00    +0.249 C 
BRANCH  11  18
ATOM     17  O   UNL     1      37.800 -18.681 -22.026  0.00  0.00    -0.250 OA
ATOM     18  C   UNL     1      36.886 -19.056 -21.304  0.00  0.00    +0.317 C 
BRANCH  18  19
ATOM     19  O   UNL     1      37.011 -19.678 -20.097  0.00  0.00    -0.444 OA
ATOM     20  C   UNL     1      36.316 -20.922 -19.971  0.00  0.00    +0.256 C 
ENDBRANCH  18  19
ENDBRANCH  11  18
ENDBRANCH   3  16
ENDBRANCH   1   6
BRANCH   1  21
ATOM     21  C   UNL     1      32.713  -9.998 -21.437  0.00  0.00    +0.148 C 
BRANCH  21  28
ATOM     22  N   UNL     1      31.971  -7.693 -21.567  0.00  0.00    -0.392 NA
ATOM     23  N   UNL     1      31.989  -7.759 -24.334  0.00  0.00    -0.200 NA
ATOM     24  N   UNL     1      31.278  -5.556 -24.405  0.00  0.00    -0.271 NA
ATOM     25  N   UNL     1      30.884  -4.322 -22.388  0.00  0.00    -0.310 NA
ATOM     26  N   UNL     1      31.224  -5.364 -20.295  0.00  0.00    -0.329 N 
ATOM     27  N   UNL     1      30.560  -3.323 -24.481  0.00  0.00    -0.283 N 
ATOM     28  C   UNL     1      32.323  -8.787 -22.243  0.00  0.00    +0.133 C 
ATOM     29  C   UNL     1      32.335  -8.834 -23.601  0.00  0.00    +0.193 C 
ATOM     30  C   UNL     1      31.624  -6.618 -22.302  0.00  0.00    +0.248 C 
ATOM     31  C   UNL     1      31.628  -6.637 -23.698  0.00  0.00    +0.131 C 
ATOM     32  C   UNL     1      31.243  -5.428 -21.713  0.00  0.00    +0.231 C 
ATOM     33  C   UNL     1      30.925  -4.454 -23.719  0.00  0.00    +0.207 C 
ATOM     34  H   UNL     1      30.956  -4.531 -19.844  0.00  0.00    +0.145 HD
ATOM     35  H   UNL     1      31.479  -6.152 -19.763  0.00  0.00    +0.145 HD
ATOM     36  H   UNL     1      30.573  -3.368 -25.465  0.00  0.00    +0.156 HD
ATOM     37  H   UNL     1      30.292  -2.491 -24.029  0.00  0.00    +0.156 HD
ENDBRANCH  21  28
ENDBRANCH   1  21
TORSDOF 6
ENDMDL
MODEL 9
REMARK VINA RESULT:     -12.0      4.931     10.327
REMARK  Name = 23629645
REMARK  6 active torsions:
REMARK  status: ('A' for Active; 'I' for Inactive)
REMARK    1  A    between atoms: N_1  and  C_6
REMARK    2  A    between atoms: N_1  and  C_21
REMARK    3  A    between atoms: C_3  and  C_16
REMARK    4  A    between atoms: C_11  and  C_18
REMARK    5  A    between atoms: C_18  and  O_19
REMARK    6  A    between atoms: C_21  and  C_28
REMARK                            x       y       z     vdW  Elec       q    Type
REMARK                         _______ _______ _______ _____ _____    ______ ____
ROOT
ATOM      1  N   UNL     1      35.263 -18.612 -23.379  0.00  0.00    -0.300 N 
ATOM      2  C   UNL     1      34.959 -19.616 -24.377  0.00  0.00    +0.113 C 
ENDROOT
BRANCH   1   6
ATOM      3  C   UNL     1      34.152 -14.611 -23.981  0.00  0.00    +0.054 C 
ATOM      4  C   UNL     1      33.918 -15.553 -24.979  0.00  0.00    +0.006 C 
ATOM      5  C   UNL     1      34.753 -14.990 -22.784  0.00  0.00    +0.006 C 
ATOM      6  C   UNL     1      34.889 -17.266 -23.581  0.00  0.00    +0.048 C 
ATOM      7  C   UNL     1      34.287 -16.883 -24.779  0.00  0.00    +0.015 C 
ATOM      8  C   UNL     1      35.123 -16.320 -22.583  0.00  0.00    +0.015 C 
BRANCH   3  16
ATOM      9  O   UNL     1      34.222 -12.666 -25.194  0.00  0.00    -0.270 OA
ATOM     10  N   UNL     1      32.926 -12.609 -23.249  0.00  0.00    -0.276 N 
ATOM     11  C   UNL     1      32.417 -10.980 -20.904  0.00  0.00    +0.102 C 
ATOM     12  C   UNL     1      32.887 -10.374 -22.231  0.00  0.00    +0.033 C 
ATOM     13  C   UNL     1      32.753 -12.473 -20.796  0.00  0.00    +0.033 C 
ATOM     14  C   UNL     1      32.498 -11.226 -23.439  0.00  0.00    +0.094 C 
ATOM     15  C   UNL     1      32.378 -13.258 -22.053  0.00  0.00    +0.094 C 
ATOM     16  C   UNL     1      33.763 -13.210 -24.192  0.00  0.00    +0.249 C 
BRANCH  11  18
ATOM     17  O   UNL     1      30.086 -11.135 -21.491  0.00  0.00    -0.250 OA
ATOM     18  C   UNL     1      30.947 -10.741 -20.717  0.00  0.00    +0.317 C 
BRANCH  18  19
ATOM     19  O   UNL     1      30.743 -10.031 -19.572  0.00  0.00    -0.444 OA
ATOM     20  C   UNL     1      31.602  -8.901 -19.387  0.00  0.00    +0.256 C 
ENDBRANCH  18  19
ENDBRANCH  11  18
ENDBRANCH   3  16
ENDBRANCH   1   6
BRANCH   1  21
ATOM     21  C   UNL     1      35.970 -19.003 -22.174  0.00  0.00    +0.148 C 
BRANCH  21  28
ATOM     22  N   UNL     1      35.740 -20.548 -20.319  0.00  0.00    -0.392 NA
ATOM     23  N   UNL     1      32.996 -20.676 -20.660  0.00  0.00    -0.200 NA
ATOM     24  N   UNL     1      32.831 -22.149 -18.881  0.00  0.00    -0.271 NA
ATOM     25  N   UNL     1      34.780 -22.846 -17.671  0.00  0.00    -0.310 NA
ATOM     26  N   UNL     1      36.902 -22.020 -18.299  0.00  0.00    -0.329 N 
ATOM     27  N   UNL     1      32.659 -23.642 -17.077  0.00  0.00    -0.283 N 
ATOM     28  C   UNL     1      35.116 -19.860 -21.277  0.00  0.00    +0.133 C 
ATOM     29  C   UNL     1      33.771 -19.914 -21.456  0.00  0.00    +0.193 C 
ATOM     30  C   UNL     1      34.965 -21.309 -19.524  0.00  0.00    +0.248 C 
ATOM     31  C   UNL     1      33.579 -21.384 -19.684  0.00  0.00    +0.131 C 
ATOM     32  C   UNL     1      35.498 -22.065 -18.498  0.00  0.00    +0.231 C 
ATOM     33  C   UNL     1      33.465 -22.841 -17.916  0.00  0.00    +0.207 C 
ATOM     34  H   UNL     1      37.314 -22.547 -17.576  0.00  0.00    +0.145 HD
ATOM     35  H   UNL     1      37.464 -21.461 -18.882  0.00  0.00    +0.145 HD
ATOM     36  H   UNL     1      31.684 -23.673 -17.216  0.00  0.00    +0.156 HD
ATOM     37  H   UNL     1      33.071 -24.169 -16.356  0.00  0.00    +0.156 HD
ENDBRANCH  21  28
ENDBRANCH   1  21
TORSDOF 6
ENDMDL
