MODEL 1
REMARK VINA RESULT:     -13.7      0.000      0.000
REMARK  Name = 118513932
REMARK  2 active torsions:
REMARK  status: ('A' for Active; 'I' for Inactive)
REMARK    1  A    between atoms: C_4  and  N_24
REMARK    2  A    between atoms: C_10  and  C_15
REMARK                            x       y       z     vdW  Elec       q    Type
REMARK                         _______ _______ _______ _____ _____    ______ ____
ROOT
ATOM      1  O   UNL     1      32.590 -22.798 -18.611  0.00  0.00    -0.274 OA
ATOM      2  N   UNL     1      34.829 -22.332 -18.070  0.00  0.00    -0.209 N 
ATOM      3  N   UNL     1      36.013 -20.720 -19.375  0.00  0.00    -0.389 NA
ATOM      4  C   UNL     1      35.950 -23.431 -16.248  0.00  0.00    +0.063 C 
ATOM      5  C   UNL     1      34.861 -23.230 -17.009  0.00  0.00    +0.089 C 
ATOM      6  C   UNL     1      37.143 -22.671 -16.557  0.00  0.00    +0.020 C 
ATOM      7  C   UNL     1      37.177 -21.792 -17.565  0.00  0.00    +0.050 C 
ATOM      8  C   UNL     1      35.964 -21.577 -18.400  0.00  0.00    +0.193 C 
ATOM      9  C   UNL     1      33.644 -22.195 -18.804  0.00  0.00    +0.242 C 
ATOM     10  C   UNL     1      34.870 -20.565 -20.108  0.00  0.00    +0.139 C 
ATOM     11  C   UNL     1      33.718 -21.213 -19.911  0.00  0.00    +0.146 C 
ENDROOT
BRANCH  10  15
ATOM     12  N   UNL     1      34.867 -17.565 -22.114  0.00  0.00    -0.178 N 
ATOM     13  N   UNL     1      34.824 -18.322 -20.988  0.00  0.00    -0.173 NA
ATOM     14  N   UNL     1      34.989 -16.997 -24.265  0.00  0.00    -0.392 NA
ATOM     15  C   UNL     1      34.900 -19.604 -21.214  0.00  0.00    +0.124 C 
ATOM     16  C   UNL     1      35.024 -20.222 -22.569  0.00  0.00    +0.023 C 
ATOM     17  C   UNL     1      35.061 -19.416 -23.646  0.00  0.00    +0.025 C 
ATOM     18  C   UNL     1      34.978 -18.009 -23.419  0.00  0.00    +0.198 C 
ATOM     19  C   UNL     1      34.805 -16.198 -22.156  0.00  0.00    +0.173 C 
ATOM     20  C   UNL     1      34.882 -15.872 -23.488  0.00  0.00    +0.111 C 
ATOM     21  C   UNL     1      35.185 -20.016 -25.023  0.00  0.00    +0.035 C 
ATOM     22  C   UNL     1      34.862 -14.537 -24.103  0.00  0.00    +0.063 C 
ENDBRANCH  10  15
BRANCH   4  24
ATOM     23  N   UNL     1      36.305 -25.526 -12.625  0.00  0.00    +0.389 N 
ATOM     24  N   UNL     1      35.996 -24.308 -15.203  0.00  0.00    -0.311 N 
ATOM     25  C   UNL     1      37.473 -25.255 -13.503  0.00  0.00    -0.027 C 
ATOM     26  C   UNL     1      38.809 -25.845 -13.109  0.00  0.00    -0.020 C 
ATOM     27  C   UNL     1      38.581 -24.370 -12.973  0.00  0.00    -0.020 C 
ATOM     28  C   UNL     1      37.147 -25.189 -14.981  0.00  0.00    +0.071 C 
ATOM     29  C   UNL     1      35.247 -24.546 -12.877  0.00  0.00    -0.060 C 
ATOM     30  C   UNL     1      34.831 -24.557 -14.348  0.00  0.00    +0.067 C 
ATOM     31  H   UNL     1      36.595 -25.466 -11.649  0.00  0.00    -0.084 HD
ATOM     32  H   UNL     1      35.948 -26.461 -12.825  0.00  0.00    -0.084 HD
ENDBRANCH   4  24
TORSDOF 2
ENDMDL
MODEL 2
REMARK VINA RESULT:     -12.9      6.190     11.117
REMARK  Name = 118513932
REMARK  2 active torsions:
REMARK  status: ('A' for Active; 'I' for Inactive)
REMARK    1  A    between atoms: C_4  and  N_24
REMARK    2  A    between atoms: C_10  and  C_15
REMARK                            x       y       z     vdW  Elec       q    Type
REMARK                         _______ _______ _______ _____ _____    ______ ____
ROOT
ATOM      1  O   UNL     1      32.289 -13.964 -20.514  0.00  0.00    -0.274 OA
ATOM      2  N   UNL     1      33.334 -13.698 -22.602  0.00  0.00    -0.209 N 
ATOM      3  N   UNL     1      33.345 -11.534 -23.612  0.00  0.00    -0.389 NA
ATOM      4  C   UNL     1      34.385 -15.539 -23.740  0.00  0.00    +0.063 C 
ATOM      5  C   UNL     1      33.707 -15.034 -22.694  0.00  0.00    +0.089 C 
ATOM      6  C   UNL     1      34.738 -14.638 -24.817  0.00  0.00    +0.020 C 
ATOM      7  C   UNL     1      34.408 -13.343 -24.788  0.00  0.00    +0.050 C 
ATOM      8  C   UNL     1      33.658 -12.795 -23.625  0.00  0.00    +0.193 C 
ATOM      9  C   UNL     1      32.629 -13.271 -21.470  0.00  0.00    +0.242 C 
ATOM     10  C   UNL     1      32.657 -11.089 -22.519  0.00  0.00    +0.139 C 
ATOM     11  C   UNL     1      32.281 -11.830 -21.472  0.00  0.00    +0.146 C 
ENDROOT
BRANCH  10  15
ATOM     12  N   UNL     1      31.770  -7.698 -23.381  0.00  0.00    -0.178 N 
ATOM     13  N   UNL     1      32.104  -8.999 -23.583  0.00  0.00    -0.173 NA
ATOM     14  N   UNL     1      31.290  -5.785 -22.345  0.00  0.00    -0.392 NA
ATOM     15  C   UNL     1      32.292  -9.669 -22.482  0.00  0.00    +0.124 C 
ATOM     16  C   UNL     1      32.163  -9.099 -21.106  0.00  0.00    +0.023 C 
ATOM     17  C   UNL     1      31.829  -7.802 -20.973  0.00  0.00    +0.025 C 
ATOM     18  C   UNL     1      31.619  -7.050 -22.168  0.00  0.00    +0.198 C 
ATOM     19  C   UNL     1      31.519  -6.779 -24.365  0.00  0.00    +0.173 C 
ATOM     20  C   UNL     1      31.226  -5.612 -23.703  0.00  0.00    +0.111 C 
ATOM     21  C   UNL     1      31.693  -7.205 -19.597  0.00  0.00    +0.035 C 
ATOM     22  C   UNL     1      30.879  -4.302 -24.275  0.00  0.00    +0.063 C 
ENDBRANCH  10  15
BRANCH   4  24
ATOM     23  N   UNL     1      34.856 -19.713 -23.750  0.00  0.00    +0.389 N 
ATOM     24  N   UNL     1      34.759 -16.848 -23.843  0.00  0.00    -0.311 N 
ATOM     25  C   UNL     1      35.142 -18.885 -22.550  0.00  0.00    -0.027 C 
ATOM     26  C   UNL     1      35.712 -19.575 -21.331  0.00  0.00    -0.020 C 
ATOM     27  C   UNL     1      34.292 -19.093 -21.313  0.00  0.00    -0.020 C 
ATOM     28  C   UNL     1      35.634 -17.484 -22.854  0.00  0.00    +0.071 C 
ATOM     29  C   UNL     1      33.917 -19.016 -24.631  0.00  0.00    -0.060 C 
ATOM     30  C   UNL     1      34.463 -17.646 -25.037  0.00  0.00    +0.067 C 
ATOM     31  H   UNL     1      34.449 -20.601 -23.458  0.00  0.00    -0.084 HD
ATOM     32  H   UNL     1      35.727 -19.879 -24.255  0.00  0.00    -0.084 HD
ENDBRANCH   4  24
TORSDOF 2
ENDMDL
MODEL 3
REMARK VINA RESULT:     -12.6      7.577     14.595
REMARK  Name = 118513932
REMARK  2 active torsions:
REMARK  status: ('A' for Active; 'I' for Inactive)
REMARK    1  A    between atoms: C_4  and  N_24
REMARK    2  A    between atoms: C_10  and  C_15
REMARK                            x       y       z     vdW  Elec       q    Type
REMARK                         _______ _______ _______ _____ _____    ______ ____
ROOT
ATOM      1  O   UNL     1      30.531 -10.876 -21.190  0.00  0.00    -0.274 OA
ATOM      2  N   UNL     1      32.276  -9.898 -22.425  0.00  0.00    -0.209 N 
ATOM      3  N   UNL     1      33.822 -11.326 -23.553  0.00  0.00    -0.389 NA
ATOM      4  C   UNL     1      32.541  -7.512 -22.577  0.00  0.00    +0.063 C 
ATOM      5  C   UNL     1      31.887  -8.597 -22.126  0.00  0.00    +0.089 C 
ATOM      6  C   UNL     1      33.705  -7.721 -23.412  0.00  0.00    +0.020 C 
ATOM      7  C   UNL     1      34.130  -8.947 -23.735  0.00  0.00    +0.050 C 
ATOM      8  C   UNL     1      33.397 -10.141 -23.230  0.00  0.00    +0.193 C 
ATOM      9  C   UNL     1      31.527 -10.962 -21.905  0.00  0.00    +0.242 C 
ATOM     10  C   UNL     1      33.111 -12.383 -23.061  0.00  0.00    +0.139 C 
ATOM     11  C   UNL     1      32.026 -12.305 -22.284  0.00  0.00    +0.146 C 
ENDROOT
BRANCH  10  15
ATOM     12  N   UNL     1      34.658 -15.643 -23.058  0.00  0.00    -0.178 N 
ATOM     13  N   UNL     1      34.317 -14.415 -22.590  0.00  0.00    -0.173 NA
ATOM     14  N   UNL     1      34.812 -17.417 -24.396  0.00  0.00    -0.392 NA
ATOM     15  C   UNL     1      33.571 -13.730 -23.411  0.00  0.00    +0.124 C 
ATOM     16  C   UNL     1      33.113 -14.213 -24.748  0.00  0.00    +0.023 C 
ATOM     17  C   UNL     1      33.486 -15.441 -25.154  0.00  0.00    +0.025 C 
ATOM     18  C   UNL     1      34.304 -16.207 -24.270  0.00  0.00    +0.198 C 
ATOM     19  C   UNL     1      35.432 -16.560 -22.396  0.00  0.00    +0.173 C 
ATOM     20  C   UNL     1      35.512 -17.641 -23.239  0.00  0.00    +0.111 C 
ATOM     21  C   UNL     1      33.037 -15.950 -26.500  0.00  0.00    +0.035 C 
ATOM     22  C   UNL     1      36.221 -18.912 -23.027  0.00  0.00    +0.063 C 
ENDBRANCH  10  15
BRANCH   4  24
ATOM     23  N   UNL     1      30.792  -3.721 -22.125  0.00  0.00    +0.389 N 
ATOM     24  N   UNL     1      32.171  -6.229 -22.293  0.00  0.00    -0.311 N 
ATOM     25  C   UNL     1      31.611  -4.080 -23.311  0.00  0.00    -0.027 C 
ATOM     26  C   UNL     1      31.893  -3.001 -24.332  0.00  0.00    -0.020 C 
ATOM     27  C   UNL     1      30.940  -4.108 -24.668  0.00  0.00    -0.020 C 
ATOM     28  C   UNL     1      32.711  -5.085 -23.035  0.00  0.00    +0.071 C 
ATOM     29  C   UNL     1      30.243  -4.929 -21.506  0.00  0.00    -0.060 C 
ATOM     30  C   UNL     1      31.359  -5.899 -21.118  0.00  0.00    +0.067 C 
ATOM     31  H   UNL     1      30.026  -3.113 -22.415  0.00  0.00    -0.084 HD
ATOM     32  H   UNL     1      31.381  -3.237 -21.447  0.00  0.00    -0.084 HD
ENDBRANCH   4  24
TORSDOF 2
ENDMDL
MODEL 4
REMARK VINA RESULT:     -12.3      6.086     10.888
REMARK  Name = 118513932
REMARK  2 active torsions:
REMARK  status: ('A' for Active; 'I' for Inactive)
REMARK    1  A    between atoms: C_4  and  N_24
REMARK    2  A    between atoms: C_10  and  C_15
REMARK                            x       y       z     vdW  Elec       q    Type
REMARK                         _______ _______ _______ _____ _____    ______ ____
ROOT
ATOM      1  O   UNL     1      34.039 -13.051 -25.996  0.00  0.00    -0.274 OA
ATOM      2  N   UNL     1      33.953 -13.647 -23.724  0.00  0.00    -0.209 N 
ATOM      3  N   UNL     1      33.244 -12.013 -22.134  0.00  0.00    -0.389 NA
ATOM      4  C   UNL     1      34.560 -15.848 -22.966  0.00  0.00    +0.063 C 
ATOM      5  C   UNL     1      34.393 -14.947 -23.949  0.00  0.00    +0.089 C 
ATOM      6  C   UNL     1      34.266 -15.434 -21.610  0.00  0.00    +0.020 C 
ATOM      7  C   UNL     1      33.840 -14.198 -21.328  0.00  0.00    +0.050 C 
ATOM      8  C   UNL     1      33.658 -13.209 -22.425  0.00  0.00    +0.193 C 
ATOM      9  C   UNL     1      33.812 -12.784 -24.817  0.00  0.00    +0.242 C 
ATOM     10  C   UNL     1      33.096 -11.148 -23.182  0.00  0.00    +0.139 C 
ATOM     11  C   UNL     1      33.338 -11.424 -24.467  0.00  0.00    +0.146 C 
ENDROOT
BRANCH  10  15
ATOM     12  N   UNL     1      32.027  -7.707 -23.388  0.00  0.00    -0.178 N 
ATOM     13  N   UNL     1      32.463  -8.915 -23.830  0.00  0.00    -0.173 NA
ATOM     14  N   UNL     1      31.351  -6.086 -22.018  0.00  0.00    -0.392 NA
ATOM     15  C   UNL     1      32.631  -9.791 -22.879  0.00  0.00    +0.124 C 
ATOM     16  C   UNL     1      32.378  -9.532 -21.430  0.00  0.00    +0.023 C 
ATOM     17  C   UNL     1      31.947  -8.313 -21.057  0.00  0.00    +0.025 C 
ATOM     18  C   UNL     1      31.757  -7.339 -22.083  0.00  0.00    +0.198 C 
ATOM     19  C   UNL     1      31.773  -6.617 -24.177  0.00  0.00    +0.173 C 
ATOM     20  C   UNL     1      31.358  -5.633 -23.313  0.00  0.00    +0.111 C 
ATOM     21  C   UNL     1      31.686  -8.027 -19.600  0.00  0.00    +0.035 C 
ATOM     22  C   UNL     1      30.956  -4.254 -23.625  0.00  0.00    +0.063 C 
ENDBRANCH  10  15
BRANCH   4  24
ATOM     23  N   UNL     1      35.158 -19.975 -23.469  0.00  0.00    +0.389 N 
ATOM     24  N   UNL     1      34.989 -17.127 -23.172  0.00  0.00    -0.311 N 
ATOM     25  C   UNL     1      35.153 -19.331 -22.130  0.00  0.00    -0.027 C 
ATOM     26  C   UNL     1      35.471 -20.192 -20.928  0.00  0.00    -0.020 C 
ATOM     27  C   UNL     1      34.066 -19.719 -21.150  0.00  0.00    -0.020 C 
ATOM     28  C   UNL     1      35.653 -17.901 -22.117  0.00  0.00    +0.071 C 
ATOM     29  C   UNL     1      34.408 -19.157 -24.425  0.00  0.00    -0.060 C 
ATOM     30  C   UNL     1      34.982 -17.742 -24.503  0.00  0.00    +0.067 C 
ATOM     31  H   UNL     1      34.727 -20.896 -23.403  0.00  0.00    -0.084 HD
ATOM     32  H   UNL     1      36.121 -20.064 -23.792  0.00  0.00    -0.084 HD
ENDBRANCH   4  24
TORSDOF 2
ENDMDL
MODEL 5
REMARK VINA RESULT:     -11.9      5.620     12.589
REMARK  Name = 118513932
REMARK  2 active torsions:
REMARK  status: ('A' for Active; 'I' for Inactive)
REMARK    1  A    between atoms: C_4  and  N_24
REMARK    2  A    between atoms: C_10  and  C_15
REMARK                            x       y       z     vdW  Elec       q    Type
REMARK                         _______ _______ _______ _____ _____    ______ ____
ROOT
ATOM      1  O   UNL     1      34.513 -12.298 -25.153  0.00  0.00    -0.274 OA
ATOM      2  N   UNL     1      33.337 -12.359 -23.119  0.00  0.00    -0.209 N 
ATOM      3  N   UNL     1      33.330 -14.386 -21.857  0.00  0.00    -0.389 NA
ATOM      4  C   UNL     1      32.147 -10.442 -22.283  0.00  0.00    +0.063 C 
ATOM      5  C   UNL     1      32.913 -11.038 -23.214  0.00  0.00    +0.089 C 
ATOM      6  C   UNL     1      31.751 -11.224 -21.131  0.00  0.00    +0.020 C 
ATOM      7  C   UNL     1      32.126 -12.498 -20.981  0.00  0.00    +0.050 C 
ATOM      8  C   UNL     1      32.974 -13.147 -22.018  0.00  0.00    +0.193 C 
ATOM      9  C   UNL     1      34.132 -12.887 -24.144  0.00  0.00    +0.242 C 
ATOM     10  C   UNL     1      34.107 -14.928 -22.842  0.00  0.00    +0.139 C 
ATOM     11  C   UNL     1      34.530 -14.301 -23.944  0.00  0.00    +0.146 C 
ENDROOT
BRANCH  10  15
ATOM     12  N   UNL     1      35.314 -18.078 -21.558  0.00  0.00    -0.178 N 
ATOM     13  N   UNL     1      34.975 -16.764 -21.543  0.00  0.00    -0.173 NA
ATOM     14  N   UNL     1      35.645 -20.158 -22.284  0.00  0.00    -0.392 NA
ATOM     15  C   UNL     1      34.522 -16.326 -22.684  0.00  0.00    +0.124 C 
ATOM     16  C   UNL     1      34.375 -17.158 -23.916  0.00  0.00    +0.023 C 
ATOM     17  C   UNL     1      34.730 -18.456 -23.865  0.00  0.00    +0.025 C 
ATOM     18  C   UNL     1      35.228 -18.954 -22.625  0.00  0.00    +0.198 C 
ATOM     19  C   UNL     1      35.814 -18.783 -20.495  0.00  0.00    +0.173 C 
ATOM     20  C   UNL     1      36.009 -20.058 -20.966  0.00  0.00    +0.111 C 
ATOM     21  C   UNL     1      34.591 -19.315 -25.096  0.00  0.00    +0.035 C 
ATOM     22  C   UNL     1      36.529 -21.228 -20.242  0.00  0.00    +0.063 C 
ENDBRANCH  10  15
BRANCH   4  24
ATOM     23  N   UNL     1      31.584  -6.290 -22.568  0.00  0.00    +0.389 N 
ATOM     24  N   UNL     1      31.724  -9.147 -22.363  0.00  0.00    -0.311 N 
ATOM     25  C   UNL     1      31.882  -6.964 -21.278  0.00  0.00    -0.027 C 
ATOM     26  C   UNL     1      31.884  -6.122 -20.022  0.00  0.00    -0.020 C 
ATOM     27  C   UNL     1      33.181  -6.629 -20.575  0.00  0.00    -0.020 C 
ATOM     28  C   UNL     1      31.352  -8.379 -21.170  0.00  0.00    +0.071 C 
ATOM     29  C   UNL     1      32.062  -7.106 -23.686  0.00  0.00    -0.060 C 
ATOM     30  C   UNL     1      31.439  -8.502 -23.648  0.00  0.00    +0.067 C 
ATOM     31  H   UNL     1      32.049  -5.383 -22.591  0.00  0.00    -0.084 HD
ATOM     32  H   UNL     1      30.575  -6.166 -22.654  0.00  0.00    -0.084 HD
ENDBRANCH   4  24
TORSDOF 2
ENDMDL
MODEL 6
REMARK VINA RESULT:     -11.2      1.378      1.866
REMARK  Name = 118513932
REMARK  2 active torsions:
REMARK  status: ('A' for Active; 'I' for Inactive)
REMARK    1  A    between atoms: C_4  and  N_24
REMARK    2  A    between atoms: C_10  and  C_15
REMARK                            x       y       z     vdW  Elec       q    Type
REMARK                         _______ _______ _______ _____ _____    ______ ____
ROOT
ATOM      1  O   UNL     1      37.896 -21.138 -17.939  0.00  0.00    -0.274 OA
ATOM      2  N   UNL     1      35.689 -21.932 -18.094  0.00  0.00    -0.209 N 
ATOM      3  N   UNL     1      34.316 -21.164 -19.891  0.00  0.00    -0.389 NA
ATOM      4  C   UNL     1      34.786 -23.489 -16.498  0.00  0.00    +0.063 C 
ATOM      5  C   UNL     1      35.795 -22.731 -16.961  0.00  0.00    +0.089 C 
ATOM      6  C   UNL     1      33.533 -23.466 -17.224  0.00  0.00    +0.020 C 
ATOM      7  C   UNL     1      33.368 -22.719 -18.320  0.00  0.00    +0.050 C 
ATOM      8  C   UNL     1      34.493 -21.884 -18.823  0.00  0.00    +0.193 C 
ATOM      9  C   UNL     1      36.799 -21.178 -18.494  0.00  0.00    +0.242 C 
ATOM     10  C   UNL     1      35.383 -20.417 -20.304  0.00  0.00    +0.139 C 
ATOM     11  C   UNL     1      36.581 -20.364 -19.713  0.00  0.00    +0.146 C 
ENDROOT
BRANCH  10  15
ATOM     12  N   UNL     1      34.881 -17.691 -22.615  0.00  0.00    -0.178 N 
ATOM     13  N   UNL     1      35.024 -18.309 -21.415  0.00  0.00    -0.173 NA
ATOM     14  N   UNL     1      34.738 -17.374 -24.816  0.00  0.00    -0.392 NA
ATOM     15  C   UNL     1      35.209 -19.596 -21.506  0.00  0.00    +0.124 C 
ATOM     16  C   UNL     1      35.265 -20.358 -22.790  0.00  0.00    +0.023 C 
ATOM     17  C   UNL     1      35.115 -19.686 -23.947  0.00  0.00    +0.025 C 
ATOM     18  C   UNL     1      34.912 -18.275 -23.868  0.00  0.00    +0.198 C 
ATOM     19  C   UNL     1      34.676 -16.349 -22.799  0.00  0.00    +0.173 C 
ATOM     20  C   UNL     1      34.592 -16.179 -24.160  0.00  0.00    +0.111 C 
ATOM     21  C   UNL     1      35.168 -20.432 -25.255  0.00  0.00    +0.035 C 
ATOM     22  C   UNL     1      34.377 -14.934 -24.912  0.00  0.00    +0.063 C 
ENDBRANCH  10  15
BRANCH   4  24
ATOM     23  N   UNL     1      35.444 -25.333 -12.782  0.00  0.00    +0.389 N 
ATOM     24  N   UNL     1      34.875 -24.278 -15.388  0.00  0.00    -0.311 N 
ATOM     25  C   UNL     1      36.459 -25.350 -13.868  0.00  0.00    -0.027 C 
ATOM     26  C   UNL     1      37.726 -26.145 -13.643  0.00  0.00    -0.020 C 
ATOM     27  C   UNL     1      37.779 -24.647 -13.630  0.00  0.00    -0.020 C 
ATOM     28  C   UNL     1      35.882 -25.337 -15.269  0.00  0.00    +0.071 C 
ATOM     29  C   UNL     1      34.538 -24.196 -12.957  0.00  0.00    -0.060 C 
ATOM     30  C   UNL     1      33.863 -24.242 -14.328  0.00  0.00    +0.067 C 
ATOM     31  H   UNL     1      35.915 -25.254 -11.881  0.00  0.00    -0.084 HD
ATOM     32  H   UNL     1      34.905 -26.198 -12.818  0.00  0.00    -0.084 HD
ENDBRANCH   4  24
TORSDOF 2
ENDMDL
MODEL 7
REMARK VINA RESULT:     -11.0      1.434      9.964
REMARK  Name = 118513932
REMARK  2 active torsions:
REMARK  status: ('A' for Active; 'I' for Inactive)
REMARK    1  A    between atoms: C_4  and  N_24
REMARK    2  A    between atoms: C_10  and  C_15
REMARK                            x       y       z     vdW  Elec       q    Type
REMARK                         _______ _______ _______ _____ _____    ______ ____
ROOT
ATOM      1  O   UNL     1      32.597 -21.673 -20.092  0.00  0.00    -0.274 OA
ATOM      2  N   UNL     1      34.661 -20.593 -20.400  0.00  0.00    -0.209 N 
ATOM      3  N   UNL     1      36.460 -21.111 -18.917  0.00  0.00    -0.389 NA
ATOM      4  C   UNL     1      35.004 -18.988 -22.159  0.00  0.00    +0.063 C 
ATOM      5  C   UNL     1      34.221 -19.856 -21.494  0.00  0.00    +0.089 C 
ATOM      6  C   UNL     1      36.368 -18.821 -21.705  0.00  0.00    +0.020 C 
ATOM      7  C   UNL     1      36.851 -19.500 -20.659  0.00  0.00    +0.050 C 
ATOM      8  C   UNL     1      35.976 -20.459 -19.931  0.00  0.00    +0.193 C 
ATOM      9  C   UNL     1      33.767 -21.471 -19.774  0.00  0.00    +0.242 C 
ATOM     10  C   UNL     1      35.610 -21.976 -18.288  0.00  0.00    +0.139 C 
ATOM     11  C   UNL     1      34.336 -22.207 -18.621  0.00  0.00    +0.146 C 
ENDROOT
BRANCH  10  15
ATOM     12  N   UNL     1      37.734 -23.662 -15.907  0.00  0.00    -0.178 N 
ATOM     13  N   UNL     1      37.409 -22.961 -17.023  0.00  0.00    -0.173 NA
ATOM     14  N   UNL     1      37.533 -24.771 -13.985  0.00  0.00    -0.392 NA
ATOM     15  C   UNL     1      36.133 -22.724 -17.140  0.00  0.00    +0.124 C 
ATOM     16  C   UNL     1      35.093 -23.164 -16.162  0.00  0.00    +0.023 C 
ATOM     17  C   UNL     1      35.480 -23.857 -15.075  0.00  0.00    +0.025 C 
ATOM     18  C   UNL     1      36.874 -24.127 -14.928  0.00  0.00    +0.198 C 
ATOM     19  C   UNL     1      39.000 -24.042 -15.546  0.00  0.00    +0.173 C 
ATOM     20  C   UNL     1      38.851 -24.721 -14.362  0.00  0.00    +0.111 C 
ATOM     21  C   UNL     1      34.449 -24.312 -14.074  0.00  0.00    +0.035 C 
ATOM     22  C   UNL     1      39.890 -25.347 -13.532  0.00  0.00    +0.063 C 
ENDBRANCH  10  15
BRANCH   4  24
ATOM     23  N   UNL     1      34.423 -16.457 -25.460  0.00  0.00    +0.389 N 
ATOM     24  N   UNL     1      34.586 -18.259 -23.234  0.00  0.00    -0.311 N 
ATOM     25  C   UNL     1      34.292 -15.978 -24.060  0.00  0.00    -0.027 C 
ATOM     26  C   UNL     1      33.839 -14.552 -23.838  0.00  0.00    -0.020 C 
ATOM     27  C   UNL     1      35.265 -14.929 -23.565  0.00  0.00    -0.020 C 
ATOM     28  C   UNL     1      33.807 -17.026 -23.079  0.00  0.00    +0.071 C 
ATOM     29  C   UNL     1      35.279 -17.645 -25.509  0.00  0.00    -0.060 C 
ATOM     30  C   UNL     1      34.729 -18.751 -24.608  0.00  0.00    +0.067 C 
ATOM     31  H   UNL     1      34.836 -15.721 -26.032  0.00  0.00    -0.084 HD
ATOM     32  H   UNL     1      33.499 -16.698 -25.818  0.00  0.00    -0.084 HD
ENDBRANCH   4  24
TORSDOF 2
ENDMDL
MODEL 8
REMARK VINA RESULT:     -10.9      6.078     13.396
REMARK  Name = 118513932
REMARK  2 active torsions:
REMARK  status: ('A' for Active; 'I' for Inactive)
REMARK    1  A    between atoms: C_4  and  N_24
REMARK    2  A    between atoms: C_10  and  C_15
REMARK                            x       y       z     vdW  Elec       q    Type
REMARK                         _______ _______ _______ _____ _____    ______ ____
ROOT
ATOM      1  O   UNL     1      31.124 -12.122 -20.960  0.00  0.00    -0.274 OA
ATOM      2  N   UNL     1      32.709 -11.386 -22.531  0.00  0.00    -0.209 N 
ATOM      3  N   UNL     1      34.301 -12.952 -23.377  0.00  0.00    -0.389 NA
ATOM      4  C   UNL     1      32.768  -9.108 -23.302  0.00  0.00    +0.063 C 
ATOM      5  C   UNL     1      32.233 -10.079 -22.543  0.00  0.00    +0.089 C 
ATOM      6  C   UNL     1      33.895  -9.449 -24.144  0.00  0.00    +0.020 C 
ATOM      7  C   UNL     1      34.400 -10.687 -24.178  0.00  0.00    +0.050 C 
ATOM      8  C   UNL     1      33.798 -11.755 -23.333  0.00  0.00    +0.193 C 
ATOM      9  C   UNL     1      32.082 -12.325 -21.703  0.00  0.00    +0.242 C 
ATOM     10  C   UNL     1      33.708 -13.890 -22.580  0.00  0.00    +0.139 C 
ATOM     11  C   UNL     1      32.667 -13.685 -21.767  0.00  0.00    +0.146 C 
ENDROOT
BRANCH  10  15
ATOM     12  N   UNL     1      35.186 -17.069 -21.721  0.00  0.00    -0.178 N 
ATOM     13  N   UNL     1      34.714 -15.811 -21.527  0.00  0.00    -0.173 NA
ATOM     14  N   UNL     1      35.751 -18.973 -22.730  0.00  0.00    -0.392 NA
ATOM     15  C   UNL     1      34.257 -15.249 -22.611  0.00  0.00    +0.124 C 
ATOM     16  C   UNL     1      34.237 -15.894 -23.959  0.00  0.00    +0.023 C 
ATOM     17  C   UNL     1      34.720 -17.145 -24.085  0.00  0.00    +0.025 C 
ATOM     18  C   UNL     1      35.225 -17.776 -22.909  0.00  0.00    +0.198 C 
ATOM     19  C   UNL     1      35.718 -17.877 -20.751  0.00  0.00    +0.173 C 
ATOM     20  C   UNL     1      36.058 -19.041 -21.396  0.00  0.00    +0.111 C 
ATOM     21  C   UNL     1      34.711 -17.815 -25.434  0.00  0.00    +0.035 C 
ATOM     22  C   UNL     1      36.670 -20.252 -20.830  0.00  0.00    +0.063 C 
ENDBRANCH  10  15
BRANCH   4  24
ATOM     23  N   UNL     1      31.972  -4.999 -22.948  0.00  0.00    +0.389 N 
ATOM     24  N   UNL     1      32.311  -7.822 -23.325  0.00  0.00    -0.311 N 
ATOM     25  C   UNL     1      31.581  -5.976 -21.900  0.00  0.00    -0.027 C 
ATOM     26  C   UNL     1      30.785  -5.469 -20.718  0.00  0.00    -0.020 C 
ATOM     27  C   UNL     1      32.221  -5.859 -20.532  0.00  0.00    -0.020 C 
ATOM     28  C   UNL     1      31.252  -7.360 -22.421  0.00  0.00    +0.071 C 
ATOM     29  C   UNL     1      33.083  -5.529 -23.742  0.00  0.00    -0.060 C 
ATOM     30  C   UNL     1      32.713  -6.874 -24.368  0.00  0.00    +0.067 C 
ATOM     31  H   UNL     1      32.261  -4.126 -22.506  0.00  0.00    -0.084 HD
ATOM     32  H   UNL     1      31.175  -4.831 -23.561  0.00  0.00    -0.084 HD
ENDBRANCH   4  24
TORSDOF 2
ENDMDL
MODEL 9
REMARK VINA RESULT:     -10.7      6.629     12.836
REMARK  Name = 118513932
REMARK  2 active torsions:
REMARK  status: ('A' for Active; 'I' for Inactive)
REMARK    1  A    between atoms: C_4  and  N_24
REMARK    2  A    between atoms: C_10  and  C_15
REMARK                            x       y       z     vdW  Elec       q    Type
REMARK                         _______ _______ _______ _____ _____    ______ ____
ROOT
ATOM      1  O   UNL     1      34.420 -11.405 -25.049  0.00  0.00    -0.274 OA
ATOM      2  N   UNL     1      33.174 -11.781 -23.092  0.00  0.00    -0.209 N 
ATOM      3  N   UNL     1      33.134 -13.980 -22.161  0.00  0.00    -0.389 NA
ATOM      4  C   UNL     1      31.946 -10.018 -22.011  0.00  0.00    +0.063 C 
ATOM      5  C   UNL     1      32.747 -10.461 -22.995  0.00  0.00    +0.089 C 
ATOM      6  C   UNL     1      31.515 -10.968 -21.008  0.00  0.00    +0.020 C 
ATOM      7  C   UNL     1      31.891 -12.251 -21.045  0.00  0.00    +0.050 C 
ATOM      8  C   UNL     1      32.778 -12.731 -22.140  0.00  0.00    +0.193 C 
ATOM      9  C   UNL     1      34.007 -12.144 -24.157  0.00  0.00    +0.242 C 
ATOM     10  C   UNL     1      33.948 -14.363 -23.190  0.00  0.00    +0.139 C 
ATOM     11  C   UNL     1      34.405 -13.572 -24.166  0.00  0.00    +0.146 C 
ENDROOT
BRANCH  10  15
ATOM     12  N   UNL     1      34.615 -17.765 -24.194  0.00  0.00    -0.178 N 
ATOM     13  N   UNL     1      34.174 -16.485 -24.308  0.00  0.00    -0.173 NA
ATOM     14  N   UNL     1      35.517 -19.611 -23.334  0.00  0.00    -0.392 NA
ATOM     15  C   UNL     1      34.364 -15.768 -23.237  0.00  0.00    +0.124 C 
ATOM     16  C   UNL     1      35.002 -16.267 -21.981  0.00  0.00    +0.023 C 
ATOM     17  C   UNL     1      35.417 -17.547 -21.932  0.00  0.00    +0.025 C 
ATOM     18  C   UNL     1      35.218 -18.349 -23.095  0.00  0.00    +0.198 C 
ATOM     19  C   UNL     1      34.536 -18.723 -25.170  0.00  0.00    +0.173 C 
ATOM     20  C   UNL     1      35.098 -19.848 -24.618  0.00  0.00    +0.111 C 
ATOM     21  C   UNL     1      36.063 -18.073 -20.676  0.00  0.00    +0.035 C 
ATOM     22  C   UNL     1      35.273 -21.173 -25.230  0.00  0.00    +0.063 C 
ENDBRANCH  10  15
BRANCH   4  24
ATOM     23  N   UNL     1      31.348  -5.863 -21.859  0.00  0.00    +0.389 N 
ATOM     24  N   UNL     1      31.519  -8.725 -21.903  0.00  0.00    -0.311 N 
ATOM     25  C   UNL     1      31.906  -6.627 -20.713  0.00  0.00    -0.027 C 
ATOM     26  C   UNL     1      32.170  -5.881 -19.424  0.00  0.00    -0.020 C 
ATOM     27  C   UNL     1      33.323  -6.329 -20.272  0.00  0.00    -0.020 C 
ATOM     28  C   UNL     1      31.406  -8.053 -20.604  0.00  0.00    +0.071 C 
ATOM     29  C   UNL     1      31.580  -6.588 -23.109  0.00  0.00    -0.060 C 
ATOM     30  C   UNL     1      30.975  -7.991 -23.048  0.00  0.00    +0.067 C 
ATOM     31  H   UNL     1      31.800  -4.951 -21.909  0.00  0.00    -0.084 HD
ATOM     32  H   UNL     1      30.343  -5.746 -21.723  0.00  0.00    -0.084 HD
ENDBRANCH   4  24
TORSDOF 2
ENDMDL
