MODEL 1
REMARK VINA RESULT:     -14.1      0.000      0.000
REMARK  Name = 11581936
REMARK  5 active torsions:
REMARK  status: ('A' for Active; 'I' for Inactive)
REMARK    1  A    between atoms: C_1  and  C_9
REMARK    2  A    between atoms: C_4  and  O_19
REMARK    3  A    between atoms: C_10  and  C_14
REMARK    4  A    between atoms: O_19  and  C_20
REMARK    5  A    between atoms: C_20  and  C_22
REMARK                            x       y       z     vdW  Elec       q    Type
REMARK                         _______ _______ _______ _____ _____    ______ ____
ROOT
ATOM      1  C   UNL     1      33.885 -21.990 -18.786  0.00  0.00    +0.019 C 
ATOM      2  C   UNL     1      33.127 -21.123 -19.572  0.00  0.00    +0.005 C 
ATOM      3  C   UNL     1      35.236 -22.190 -19.071  0.00  0.00    +0.005 C 
ATOM      4  C   UNL     1      35.067 -20.658 -20.921  0.00  0.00    +0.139 C 
ATOM      5  C   UNL     1      33.721 -20.455 -20.643  0.00  0.00    +0.037 C 
ATOM      6  C   UNL     1      35.830 -21.521 -20.142  0.00  0.00    +0.037 C 
ENDROOT
BRANCH   1   9
ATOM      7  N   UNL     1      31.756 -23.525 -16.499  0.00  0.00    -0.208 N 
ATOM      8  N   UNL     1      31.949 -22.862 -17.652  0.00  0.00    -0.178 NA
ATOM      9  C   UNL     1      33.275 -22.678 -17.683  0.00  0.00    +0.100 C 
ATOM     10  C   UNL     1      33.918 -23.224 -16.553  0.00  0.00    +0.036 C 
ATOM     11  C   UNL     1      32.903 -23.767 -15.803  0.00  0.00    +0.086 C 
ATOM     12  C   UNL     1      30.420 -23.907 -16.109  0.00  0.00    +0.140 C 
BRANCH  10  14
ATOM     13  N   UNL     1      37.988 -23.344 -15.403  0.00  0.00    -0.242 NA
ATOM     14  C   UNL     1      35.296 -23.265 -16.165  0.00  0.00    +0.006 C 
ATOM     15  C   UNL     1      36.094 -22.131 -16.288  0.00  0.00    +0.021 C 
ATOM     16  C   UNL     1      35.848 -24.439 -15.659  0.00  0.00    +0.021 C 
ATOM     17  C   UNL     1      37.420 -22.222 -15.898  0.00  0.00    +0.099 C 
ATOM     18  C   UNL     1      37.185 -24.427 -15.297  0.00  0.00    +0.099 C 
ENDBRANCH  10  14
ENDBRANCH   1   9
BRANCH   4  19
ATOM     19  O   UNL     1      35.650 -20.001 -21.973  0.00  0.00    -0.468 OA
BRANCH  19  20
ATOM     20  C   UNL     1      35.910 -18.614 -21.797  0.00  0.00    +0.264 C 
BRANCH  20  22
ATOM     21  N   UNL     1      35.105 -16.526 -22.719  0.00  0.00    -0.406 NA
ATOM     22  C   UNL     1      35.294 -17.850 -22.922  0.00  0.00    +0.152 C 
ATOM     23  C   UNL     1      34.169 -16.389 -24.936  0.00  0.00    +0.026 C 
ATOM     24  C   UNL     1      34.551 -15.803 -23.711  0.00  0.00    +0.113 C 
ATOM     25  C   UNL     1      34.952 -18.511 -24.084  0.00  0.00    +0.031 C 
ATOM     26  C   UNL     1      34.382 -17.764 -25.104  0.00  0.00    +0.005 C 
ATOM     27  C   UNL     1      33.592 -15.605 -25.949  0.00  0.00    +0.002 C 
ATOM     28  C   UNL     1      34.339 -14.437 -23.545  0.00  0.00    +0.085 C 
ATOM     29  C   UNL     1      33.391 -14.240 -25.756  0.00  0.00    -0.004 C 
ATOM     30  C   UNL     1      33.765 -13.656 -24.552  0.00  0.00    -0.019 C 
ENDBRANCH  20  22
ENDBRANCH  19  20
ENDBRANCH   4  19
TORSDOF 5
ENDMDL
MODEL 2
REMARK VINA RESULT:     -13.7      1.359      2.132
REMARK  Name = 11581936
REMARK  5 active torsions:
REMARK  status: ('A' for Active; 'I' for Inactive)
REMARK    1  A    between atoms: C_1  and  C_9
REMARK    2  A    between atoms: C_4  and  O_19
REMARK    3  A    between atoms: C_10  and  C_14
REMARK    4  A    between atoms: O_19  and  C_20
REMARK    5  A    between atoms: C_20  and  C_22
REMARK                            x       y       z     vdW  Elec       q    Type
REMARK                         _______ _______ _______ _____ _____    ______ ____
ROOT
ATOM      1  C   UNL     1      34.214 -22.894 -17.173  0.00  0.00    +0.019 C 
ATOM      2  C   UNL     1      35.536 -22.451 -17.168  0.00  0.00    +0.005 C 
ATOM      3  C   UNL     1      33.444 -22.780 -18.330  0.00  0.00    +0.005 C 
ATOM      4  C   UNL     1      35.315 -21.782 -19.471  0.00  0.00    +0.139 C 
ATOM      5  C   UNL     1      36.088 -21.893 -18.322  0.00  0.00    +0.037 C 
ATOM      6  C   UNL     1      33.996 -22.223 -19.484  0.00  0.00    +0.037 C 
ENDROOT
BRANCH   1   9
ATOM      7  N   UNL     1      32.191 -23.954 -14.545  0.00  0.00    -0.208 N 
ATOM      8  N   UNL     1      32.350 -23.287 -15.701  0.00  0.00    -0.178 NA
ATOM      9  C   UNL     1      33.646 -23.469 -15.986  0.00  0.00    +0.100 C 
ATOM     10  C   UNL     1      34.304 -24.249 -15.012  0.00  0.00    +0.036 C 
ATOM     11  C   UNL     1      33.331 -24.549 -14.091  0.00  0.00    +0.086 C 
ATOM     12  C   UNL     1      30.895 -23.987 -13.911  0.00  0.00    +0.140 C 
BRANCH  10  14
ATOM     13  N   UNL     1      38.314 -25.554 -14.677  0.00  0.00    -0.242 NA
ATOM     14  C   UNL     1      35.661 -24.690 -14.900  0.00  0.00    +0.006 C 
ATOM     15  C   UNL     1      36.603 -23.902 -14.245  0.00  0.00    +0.021 C 
ATOM     16  C   UNL     1      36.049 -25.912 -15.442  0.00  0.00    +0.021 C 
ATOM     17  C   UNL     1      37.903 -24.374 -14.162  0.00  0.00    +0.099 C 
ATOM     18  C   UNL     1      37.373 -26.295 -15.306  0.00  0.00    +0.099 C 
ENDBRANCH  10  14
ENDBRANCH   1   9
BRANCH   4  19
ATOM     19  O   UNL     1      35.857 -21.235 -20.605  0.00  0.00    -0.468 OA
BRANCH  19  20
ATOM     20  C   UNL     1      36.194 -19.855 -20.551  0.00  0.00    +0.264 C 
BRANCH  20  22
ATOM     21  N   UNL     1      35.590 -17.830 -21.734  0.00  0.00    -0.406 NA
ATOM     22  C   UNL     1      35.703 -19.178 -21.787  0.00  0.00    +0.152 C 
ATOM     23  C   UNL     1      34.809 -17.873 -24.013  0.00  0.00    +0.026 C 
ATOM     24  C   UNL     1      35.150 -17.185 -22.831  0.00  0.00    +0.113 C 
ATOM     25  C   UNL     1      35.393 -19.936 -22.898  0.00  0.00    +0.031 C 
ATOM     26  C   UNL     1      34.940 -19.268 -24.026  0.00  0.00    +0.005 C 
ATOM     27  C   UNL     1      34.352 -17.167 -25.138  0.00  0.00    +0.002 C 
ATOM     28  C   UNL     1      35.020 -15.798 -22.818  0.00  0.00    +0.085 C 
ATOM     29  C   UNL     1      34.230 -15.780 -25.099  0.00  0.00    -0.004 C 
ATOM     30  C   UNL     1      34.564 -15.096 -23.938  0.00  0.00    -0.019 C 
ENDBRANCH  20  22
ENDBRANCH  19  20
ENDBRANCH   4  19
TORSDOF 5
ENDMDL
MODEL 3
REMARK VINA RESULT:     -13.2      1.324      3.466
REMARK  Name = 11581936
REMARK  5 active torsions:
REMARK  status: ('A' for Active; 'I' for Inactive)
REMARK    1  A    between atoms: C_1  and  C_9
REMARK    2  A    between atoms: C_4  and  O_19
REMARK    3  A    between atoms: C_10  and  C_14
REMARK    4  A    between atoms: O_19  and  C_20
REMARK    5  A    between atoms: C_20  and  C_22
REMARK                            x       y       z     vdW  Elec       q    Type
REMARK                         _______ _______ _______ _____ _____    ______ ____
ROOT
ATOM      1  C   UNL     1      35.049 -22.743 -17.502  0.00  0.00    +0.019 C 
ATOM      2  C   UNL     1      36.151 -22.027 -17.970  0.00  0.00    +0.005 C 
ATOM      3  C   UNL     1      33.864 -22.760 -18.238  0.00  0.00    +0.005 C 
ATOM      4  C   UNL     1      34.883 -21.348 -19.901  0.00  0.00    +0.139 C 
ATOM      5  C   UNL     1      36.067 -21.327 -19.173  0.00  0.00    +0.037 C 
ATOM      6  C   UNL     1      33.781 -22.061 -19.442  0.00  0.00    +0.037 C 
ENDROOT
BRANCH   1   9
ATOM      7  N   UNL     1      36.000 -24.551 -14.683  0.00  0.00    -0.208 N 
ATOM      8  N   UNL     1      36.308 -23.958 -15.849  0.00  0.00    -0.178 NA
ATOM      9  C   UNL     1      35.135 -23.464 -16.263  0.00  0.00    +0.100 C 
ATOM     10  C   UNL     1      34.087 -23.743 -15.361  0.00  0.00    +0.036 C 
ATOM     11  C   UNL     1      34.682 -24.450 -14.345  0.00  0.00    +0.086 C 
ATOM     12  C   UNL     1      37.031 -25.212 -13.921  0.00  0.00    +0.140 C 
BRANCH  10  14
ATOM     13  N   UNL     1      29.965 -22.793 -15.439  0.00  0.00    -0.242 NA
ATOM     14  C   UNL     1      32.692 -23.421 -15.387  0.00  0.00    +0.006 C 
ATOM     15  C   UNL     1      31.965 -23.548 -16.567  0.00  0.00    +0.021 C 
ATOM     16  C   UNL     1      32.052 -22.979 -14.233  0.00  0.00    +0.021 C 
ATOM     17  C   UNL     1      30.618 -23.225 -16.541  0.00  0.00    +0.099 C 
ATOM     18  C   UNL     1      30.701 -22.681 -14.310  0.00  0.00    +0.099 C 
ENDBRANCH  10  14
ENDBRANCH   1   9
BRANCH   4  19
ATOM     19  O   UNL     1      34.801 -20.661 -21.085  0.00  0.00    -0.468 OA
BRANCH  19  20
ATOM     20  C   UNL     1      35.747 -19.619 -21.287  0.00  0.00    +0.264 C 
BRANCH  20  22
ATOM     21  N   UNL     1      35.215 -17.437 -22.190  0.00  0.00    -0.406 NA
ATOM     22  C   UNL     1      35.305 -18.766 -22.429  0.00  0.00    +0.152 C 
ATOM     23  C   UNL     1      34.501 -17.144 -24.473  0.00  0.00    +0.026 C 
ATOM     24  C   UNL     1      34.820 -16.635 -23.197  0.00  0.00    +0.113 C 
ATOM     25  C   UNL     1      35.015 -19.355 -23.643  0.00  0.00    +0.031 C 
ATOM     26  C   UNL     1      34.608 -18.526 -24.678  0.00  0.00    +0.005 C 
ATOM     27  C   UNL     1      34.091 -16.277 -25.500  0.00  0.00    +0.002 C 
ATOM     28  C   UNL     1      34.714 -15.261 -22.994  0.00  0.00    +0.085 C 
ATOM     29  C   UNL     1      33.993 -14.908 -25.271  0.00  0.00    -0.004 C 
ATOM     30  C   UNL     1      34.305 -14.399 -24.016  0.00  0.00    -0.019 C 
ENDBRANCH  20  22
ENDBRANCH  19  20
ENDBRANCH   4  19
TORSDOF 5
ENDMDL
MODEL 4
REMARK VINA RESULT:     -13.0      1.817      4.319
REMARK  Name = 11581936
REMARK  5 active torsions:
REMARK  status: ('A' for Active; 'I' for Inactive)
REMARK    1  A    between atoms: C_1  and  C_9
REMARK    2  A    between atoms: C_4  and  O_19
REMARK    3  A    between atoms: C_10  and  C_14
REMARK    4  A    between atoms: O_19  and  C_20
REMARK    5  A    between atoms: C_20  and  C_22
REMARK                            x       y       z     vdW  Elec       q    Type
REMARK                         _______ _______ _______ _____ _____    ______ ____
ROOT
ATOM      1  C   UNL     1      34.367 -23.095 -16.569  0.00  0.00    +0.019 C 
ATOM      2  C   UNL     1      35.570 -22.532 -16.992  0.00  0.00    +0.005 C 
ATOM      3  C   UNL     1      33.260 -23.095 -17.417  0.00  0.00    +0.005 C 
ATOM      4  C   UNL     1      34.558 -21.971 -19.104  0.00  0.00    +0.139 C 
ATOM      5  C   UNL     1      35.666 -21.968 -18.264  0.00  0.00    +0.037 C 
ATOM      6  C   UNL     1      33.355 -22.531 -18.689  0.00  0.00    +0.037 C 
ENDROOT
BRANCH   1   9
ATOM      7  N   UNL     1      34.895 -24.473 -13.415  0.00  0.00    -0.208 N 
ATOM      8  N   UNL     1      35.375 -23.953 -14.558  0.00  0.00    -0.178 NA
ATOM      9  C   UNL     1      34.268 -23.677 -15.259  0.00  0.00    +0.100 C 
ATOM     10  C   UNL     1      33.091 -24.021 -14.561  0.00  0.00    +0.036 C 
ATOM     11  C   UNL     1      33.533 -24.534 -13.367  0.00  0.00    +0.086 C 
ATOM     12  C   UNL     1      35.809 -24.901 -12.384  0.00  0.00    +0.140 C 
BRANCH  10  14
ATOM     13  N   UNL     1      29.000 -23.694 -15.590  0.00  0.00    -0.242 NA
ATOM     14  C   UNL     1      31.707 -23.910 -14.910  0.00  0.00    +0.006 C 
ATOM     15  C   UNL     1      30.983 -25.042 -15.274  0.00  0.00    +0.021 C 
ATOM     16  C   UNL     1      31.074 -22.670 -14.887  0.00  0.00    +0.021 C 
ATOM     17  C   UNL     1      29.646 -24.882 -15.601  0.00  0.00    +0.099 C 
ATOM     18  C   UNL     1      29.734 -22.616 -15.232  0.00  0.00    +0.099 C 
ENDBRANCH  10  14
ENDBRANCH   1   9
BRANCH   4  19
ATOM     19  O   UNL     1      34.652 -21.417 -20.354  0.00  0.00    -0.468 OA
BRANCH  19  20
ATOM     20  C   UNL     1      35.888 -20.798 -20.689  0.00  0.00    +0.264 C 
BRANCH  20  22
ATOM     21  N   UNL     1      35.133 -19.677 -22.697  0.00  0.00    -0.406 NA
ATOM     22  C   UNL     1      35.621 -19.538 -21.443  0.00  0.00    +0.152 C 
ATOM     23  C   UNL     1      35.111 -17.274 -22.882  0.00  0.00    +0.026 C 
ATOM     24  C   UNL     1      34.880 -18.561 -23.409  0.00  0.00    +0.113 C 
ATOM     25  C   UNL     1      35.879 -18.322 -20.844  0.00  0.00    +0.031 C 
ATOM     26  C   UNL     1      35.617 -17.175 -21.579  0.00  0.00    +0.005 C 
ATOM     27  C   UNL     1      34.836 -16.132 -23.653  0.00  0.00    +0.002 C 
ATOM     28  C   UNL     1      34.376 -18.659 -24.703  0.00  0.00    +0.085 C 
ATOM     29  C   UNL     1      34.333 -16.258 -24.945  0.00  0.00    -0.004 C 
ATOM     30  C   UNL     1      34.103 -17.523 -25.471  0.00  0.00    -0.019 C 
ENDBRANCH  20  22
ENDBRANCH  19  20
ENDBRANCH   4  19
TORSDOF 5
ENDMDL
MODEL 5
REMARK VINA RESULT:     -12.8      2.108      9.906
REMARK  Name = 11581936
REMARK  5 active torsions:
REMARK  status: ('A' for Active; 'I' for Inactive)
REMARK    1  A    between atoms: C_1  and  C_9
REMARK    2  A    between atoms: C_4  and  O_19
REMARK    3  A    between atoms: C_10  and  C_14
REMARK    4  A    between atoms: O_19  and  C_20
REMARK    5  A    between atoms: C_20  and  C_22
REMARK                            x       y       z     vdW  Elec       q    Type
REMARK                         _______ _______ _______ _____ _____    ______ ____
ROOT
ATOM      1  C   UNL     1      34.535 -16.715 -24.135  0.00  0.00    +0.019 C 
ATOM      2  C   UNL     1      34.136 -17.963 -24.614  0.00  0.00    +0.005 C 
ATOM      3  C   UNL     1      35.348 -16.628 -23.005  0.00  0.00    +0.005 C 
ATOM      4  C   UNL     1      35.363 -19.030 -22.838  0.00  0.00    +0.139 C 
ATOM      5  C   UNL     1      34.552 -19.124 -23.962  0.00  0.00    +0.037 C 
ATOM      6  C   UNL     1      35.765 -17.790 -22.354  0.00  0.00    +0.037 C 
ENDROOT
BRANCH   1   9
ATOM      7  N   UNL     1      33.775 -14.167 -26.383  0.00  0.00    -0.208 N 
ATOM      8  N   UNL     1      34.287 -15.383 -26.125  0.00  0.00    -0.178 NA
ATOM      9  C   UNL     1      34.107 -15.519 -24.805  0.00  0.00    +0.100 C 
ATOM     10  C   UNL     1      33.482 -14.392 -24.230  0.00  0.00    +0.036 C 
ATOM     11  C   UNL     1      33.280 -13.533 -25.282  0.00  0.00    +0.086 C 
ATOM     12  C   UNL     1      33.789 -13.657 -27.732  0.00  0.00    +0.140 C 
BRANCH  10  14
ATOM     13  N   UNL     1      32.349 -13.517 -20.249  0.00  0.00    -0.242 NA
ATOM     14  C   UNL     1      33.100 -14.096 -22.883  0.00  0.00    +0.006 C 
ATOM     15  C   UNL     1      32.469 -12.892 -22.581  0.00  0.00    +0.021 C 
ATOM     16  C   UNL     1      33.354 -15.009 -21.863  0.00  0.00    +0.021 C 
ATOM     17  C   UNL     1      32.117 -12.653 -21.262  0.00  0.00    +0.099 C 
ATOM     18  C   UNL     1      32.964 -14.676 -20.577  0.00  0.00    +0.099 C 
ENDBRANCH  10  14
ENDBRANCH   1   9
BRANCH   4  19
ATOM     19  O   UNL     1      35.773 -20.172 -22.198  0.00  0.00    -0.468 OA
BRANCH  19  20
ATOM     20  C   UNL     1      36.399 -20.007 -20.932  0.00  0.00    +0.264 C 
BRANCH  20  22
ATOM     21  N   UNL     1      36.457 -21.260 -18.862  0.00  0.00    -0.406 NA
ATOM     22  C   UNL     1      35.717 -20.875 -19.927  0.00  0.00    +0.152 C 
ATOM     23  C   UNL     1      34.535 -22.466 -18.050  0.00  0.00    +0.026 C 
ATOM     24  C   UNL     1      35.876 -22.044 -17.934  0.00  0.00    +0.113 C 
ATOM     25  C   UNL     1      34.400 -21.237 -20.126  0.00  0.00    +0.031 C 
ATOM     26  C   UNL     1      33.805 -22.045 -19.168  0.00  0.00    +0.005 C 
ATOM     27  C   UNL     1      33.962 -23.285 -17.063  0.00  0.00    +0.002 C 
ATOM     28  C   UNL     1      36.601 -22.463 -16.821  0.00  0.00    +0.085 C 
ATOM     29  C   UNL     1      34.709 -23.690 -15.960  0.00  0.00    -0.004 C 
ATOM     30  C   UNL     1      36.030 -23.278 -15.840  0.00  0.00    -0.019 C 
ENDBRANCH  20  22
ENDBRANCH  19  20
ENDBRANCH   4  19
TORSDOF 5
ENDMDL
MODEL 6
REMARK VINA RESULT:     -12.8      5.748     12.791
REMARK  Name = 11581936
REMARK  5 active torsions:
REMARK  status: ('A' for Active; 'I' for Inactive)
REMARK    1  A    between atoms: C_1  and  C_9
REMARK    2  A    between atoms: C_4  and  O_19
REMARK    3  A    between atoms: C_10  and  C_14
REMARK    4  A    between atoms: O_19  and  C_20
REMARK    5  A    between atoms: C_20  and  C_22
REMARK                            x       y       z     vdW  Elec       q    Type
REMARK                         _______ _______ _______ _____ _____    ______ ____
ROOT
ATOM      1  C   UNL     1      32.564  -9.595 -22.114  0.00  0.00    +0.019 C 
ATOM      2  C   UNL     1      31.904 -10.694 -21.566  0.00  0.00    +0.005 C 
ATOM      3  C   UNL     1      33.351  -9.751 -23.255  0.00  0.00    +0.005 C 
ATOM      4  C   UNL     1      32.818 -12.099 -23.295  0.00  0.00    +0.139 C 
ATOM      5  C   UNL     1      32.032 -11.951 -22.159  0.00  0.00    +0.037 C 
ATOM      6  C   UNL     1      33.479 -11.007 -23.848  0.00  0.00    +0.037 C 
ENDROOT
BRANCH   1   9
ATOM      7  N   UNL     1      31.947  -6.859 -20.051  0.00  0.00    -0.208 N 
ATOM      8  N   UNL     1      31.908  -8.183 -20.277  0.00  0.00    -0.178 NA
ATOM      9  C   UNL     1      32.432  -8.301 -21.504  0.00  0.00    +0.100 C 
ATOM     10  C   UNL     1      32.802  -7.055 -22.052  0.00  0.00    +0.036 C 
ATOM     11  C   UNL     1      32.474  -6.139 -21.082  0.00  0.00    +0.086 C 
ATOM     12  C   UNL     1      31.454  -6.332 -18.802  0.00  0.00    +0.140 C 
BRANCH  10  14
ATOM     13  N   UNL     1      34.532  -6.002 -25.766  0.00  0.00    -0.242 NA
ATOM     14  C   UNL     1      33.387  -6.700 -23.309  0.00  0.00    +0.006 C 
ATOM     15  C   UNL     1      32.624  -6.060 -24.282  0.00  0.00    +0.021 C 
ATOM     16  C   UNL     1      34.724  -6.989 -23.567  0.00  0.00    +0.021 C 
ATOM     17  C   UNL     1      33.238  -5.736 -25.482  0.00  0.00    +0.099 C 
ATOM     18  C   UNL     1      35.244  -6.624 -24.799  0.00  0.00    +0.099 C 
ENDBRANCH  10  14
ENDBRANCH   1   9
BRANCH   4  19
ATOM     19  O   UNL     1      32.943 -13.333 -23.878  0.00  0.00    -0.468 OA
BRANCH  19  20
ATOM     20  C   UNL     1      34.234 -13.686 -24.359  0.00  0.00    +0.264 C 
BRANCH  20  22
ATOM     21  N   UNL     1      34.738 -15.607 -22.974  0.00  0.00    -0.406 NA
ATOM     22  C   UNL     1      34.429 -15.159 -24.213  0.00  0.00    +0.152 C 
ATOM     23  C   UNL     1      34.802 -17.842 -23.874  0.00  0.00    +0.026 C 
ATOM     24  C   UNL     1      34.922 -16.931 -22.804  0.00  0.00    +0.113 C 
ATOM     25  C   UNL     1      34.292 -15.973 -25.319  0.00  0.00    +0.031 C 
ATOM     26  C   UNL     1      34.482 -17.336 -25.140  0.00  0.00    +0.005 C 
ATOM     27  C   UNL     1      35.002 -19.217 -23.660  0.00  0.00    +0.002 C 
ATOM     28  C   UNL     1      35.240 -17.435 -21.546  0.00  0.00    +0.085 C 
ATOM     29  C   UNL     1      35.320 -19.694 -22.391  0.00  0.00    -0.004 C 
ATOM     30  C   UNL     1      35.439 -18.802 -21.333  0.00  0.00    -0.019 C 
ENDBRANCH  20  22
ENDBRANCH  19  20
ENDBRANCH   4  19
TORSDOF 5
ENDMDL
MODEL 7
REMARK VINA RESULT:     -12.5      6.270     13.435
REMARK  Name = 11581936
REMARK  5 active torsions:
REMARK  status: ('A' for Active; 'I' for Inactive)
REMARK    1  A    between atoms: C_1  and  C_9
REMARK    2  A    between atoms: C_4  and  O_19
REMARK    3  A    between atoms: C_10  and  C_14
REMARK    4  A    between atoms: O_19  and  C_20
REMARK    5  A    between atoms: C_20  and  C_22
REMARK                            x       y       z     vdW  Elec       q    Type
REMARK                         _______ _______ _______ _____ _____    ______ ____
ROOT
ATOM      1  C   UNL     1      33.357  -9.109 -22.979  0.00  0.00    +0.019 C 
ATOM      2  C   UNL     1      34.583  -9.211 -23.635  0.00  0.00    +0.005 C 
ATOM      3  C   UNL     1      32.479 -10.192 -22.967  0.00  0.00    +0.005 C 
ATOM      4  C   UNL     1      34.051 -11.473 -24.265  0.00  0.00    +0.139 C 
ATOM      5  C   UNL     1      34.931 -10.398 -24.281  0.00  0.00    +0.037 C 
ATOM      6  C   UNL     1      32.827 -11.379 -23.612  0.00  0.00    +0.037 C 
ENDROOT
BRANCH   1   9
ATOM      7  N   UNL     1      32.339  -6.613 -20.775  0.00  0.00    -0.208 N 
ATOM      8  N   UNL     1      32.573  -7.908 -21.044  0.00  0.00    -0.178 NA
ATOM      9  C   UNL     1      32.999  -7.887 -22.314  0.00  0.00    +0.100 C 
ATOM     10  C   UNL     1      33.033  -6.581 -22.846  0.00  0.00    +0.036 C 
ATOM     11  C   UNL     1      32.600  -5.776 -21.821  0.00  0.00    +0.086 C 
ATOM     12  C   UNL     1      31.856  -6.229 -19.471  0.00  0.00    +0.140 C 
BRANCH  10  14
ATOM     13  N   UNL     1      34.150  -5.115 -26.654  0.00  0.00    -0.242 NA
ATOM     14  C   UNL     1      33.411  -6.084 -24.134  0.00  0.00    +0.006 C 
ATOM     15  C   UNL     1      34.703  -6.285 -24.613  0.00  0.00    +0.021 C 
ATOM     16  C   UNL     1      32.490  -5.396 -24.919  0.00  0.00    +0.021 C 
ATOM     17  C   UNL     1      35.019  -5.786 -25.866  0.00  0.00    +0.099 C 
ATOM     18  C   UNL     1      32.904  -4.937 -26.159  0.00  0.00    +0.099 C 
ENDBRANCH  10  14
ENDBRANCH   1   9
BRANCH   4  19
ATOM     19  O   UNL     1      34.393 -12.640 -24.898  0.00  0.00    -0.468 OA
BRANCH  19  20
ATOM     20  C   UNL     1      33.426 -13.682 -24.887  0.00  0.00    +0.264 C 
BRANCH  20  22
ATOM     21  N   UNL     1      34.014 -16.030 -24.841  0.00  0.00    -0.406 NA
ATOM     22  C   UNL     1      33.980 -14.862 -24.159  0.00  0.00    +0.152 C 
ATOM     23  C   UNL     1      34.979 -17.063 -22.889  0.00  0.00    +0.026 C 
ATOM     24  C   UNL     1      34.507 -17.117 -24.217  0.00  0.00    +0.113 C 
ATOM     25  C   UNL     1      34.419 -14.712 -22.859  0.00  0.00    +0.031 C 
ATOM     26  C   UNL     1      34.926 -15.833 -22.219  0.00  0.00    +0.005 C 
ATOM     27  C   UNL     1      35.486 -18.217 -22.269  0.00  0.00    +0.002 C 
ATOM     28  C   UNL     1      34.561 -18.339 -24.882  0.00  0.00    +0.085 C 
ATOM     29  C   UNL     1      35.529 -19.427 -22.957  0.00  0.00    -0.004 C 
ATOM     30  C   UNL     1      35.065 -19.487 -24.265  0.00  0.00    -0.019 C 
ENDBRANCH  20  22
ENDBRANCH  19  20
ENDBRANCH   4  19
TORSDOF 5
ENDMDL
MODEL 8
REMARK VINA RESULT:     -12.4      6.072     10.875
REMARK  Name = 11581936
REMARK  5 active torsions:
REMARK  status: ('A' for Active; 'I' for Inactive)
REMARK    1  A    between atoms: C_1  and  C_9
REMARK    2  A    between atoms: C_4  and  O_19
REMARK    3  A    between atoms: C_10  and  C_14
REMARK    4  A    between atoms: O_19  and  C_20
REMARK    5  A    between atoms: C_20  and  C_22
REMARK                            x       y       z     vdW  Elec       q    Type
REMARK                         _______ _______ _______ _____ _____    ______ ____
ROOT
ATOM      1  C   UNL     1      33.104 -13.396 -21.978  0.00  0.00    +0.019 C 
ATOM      2  C   UNL     1      32.987 -12.399 -22.946  0.00  0.00    +0.005 C 
ATOM      3  C   UNL     1      32.575 -13.198 -20.703  0.00  0.00    +0.005 C 
ATOM      4  C   UNL     1      31.813 -11.012 -21.366  0.00  0.00    +0.139 C 
ATOM      5  C   UNL     1      32.339 -11.203 -22.638  0.00  0.00    +0.037 C 
ATOM      6  C   UNL     1      31.926 -12.002 -20.396  0.00  0.00    +0.037 C 
ENDROOT
BRANCH   1   9
ATOM      7  N   UNL     1      34.762 -16.458 -21.981  0.00  0.00    -0.208 N 
ATOM      8  N   UNL     1      34.206 -15.432 -21.315  0.00  0.00    -0.178 NA
ATOM      9  C   UNL     1      33.771 -14.629 -22.294  0.00  0.00    +0.100 C 
ATOM     10  C   UNL     1      34.052 -15.146 -23.576  0.00  0.00    +0.036 C 
ATOM     11  C   UNL     1      34.696 -16.335 -23.338  0.00  0.00    +0.086 C 
ATOM     12  C   UNL     1      35.354 -17.551 -21.248  0.00  0.00    +0.140 C 
BRANCH  10  14
ATOM     13  N   UNL     1      33.257 -13.660 -27.457  0.00  0.00    -0.242 NA
ATOM     14  C   UNL     1      33.782 -14.643 -24.889  0.00  0.00    +0.006 C 
ATOM     15  C   UNL     1      34.111 -13.331 -25.219  0.00  0.00    +0.021 C 
ATOM     16  C   UNL     1      33.191 -15.462 -25.847  0.00  0.00    +0.021 C 
ATOM     17  C   UNL     1      33.830 -12.892 -26.503  0.00  0.00    +0.099 C 
ATOM     18  C   UNL     1      32.951 -14.929 -27.103  0.00  0.00    +0.099 C 
ENDBRANCH  10  14
ENDBRANCH   1   9
BRANCH   4  19
ATOM     19  O   UNL     1      31.176  -9.836 -21.064  0.00  0.00    -0.468 OA
BRANCH  19  20
ATOM     20  C   UNL     1      32.001  -8.735 -20.705  0.00  0.00    +0.264 C 
BRANCH  20  22
ATOM     21  N   UNL     1      33.482  -7.847 -22.402  0.00  0.00    -0.406 NA
ATOM     22  C   UNL     1      32.224  -7.874 -21.904  0.00  0.00    +0.152 C 
ATOM     23  C   UNL     1      32.706  -6.318 -24.095  0.00  0.00    +0.026 C 
ATOM     24  C   UNL     1      33.722  -7.081 -23.483  0.00  0.00    +0.113 C 
ATOM     25  C   UNL     1      31.167  -7.163 -22.434  0.00  0.00    +0.031 C 
ATOM     26  C   UNL     1      31.417  -6.375 -23.548  0.00  0.00    +0.005 C 
ATOM     27  C   UNL     1      32.992  -5.529 -25.222  0.00  0.00    +0.002 C 
ATOM     28  C   UNL     1      35.002  -7.025 -24.028  0.00  0.00    +0.085 C 
ATOM     29  C   UNL     1      34.282  -5.491 -25.747  0.00  0.00    -0.004 C 
ATOM     30  C   UNL     1      35.287  -6.240 -25.149  0.00  0.00    -0.019 C 
ENDBRANCH  20  22
ENDBRANCH  19  20
ENDBRANCH   4  19
TORSDOF 5
ENDMDL
MODEL 9
REMARK VINA RESULT:     -12.3      7.678     15.048
REMARK  Name = 11581936
REMARK  5 active torsions:
REMARK  status: ('A' for Active; 'I' for Inactive)
REMARK    1  A    between atoms: C_1  and  C_9
REMARK    2  A    between atoms: C_4  and  O_19
REMARK    3  A    between atoms: C_10  and  C_14
REMARK    4  A    between atoms: O_19  and  C_20
REMARK    5  A    between atoms: C_20  and  C_22
REMARK                            x       y       z     vdW  Elec       q    Type
REMARK                         _______ _______ _______ _____ _____    ______ ____
ROOT
ATOM      1  C   UNL     1      31.707  -6.411 -22.618  0.00  0.00    +0.019 C 
ATOM      2  C   UNL     1      32.329  -6.689 -21.401  0.00  0.00    +0.005 C 
ATOM      3  C   UNL     1      31.213  -7.451 -23.404  0.00  0.00    +0.005 C 
ATOM      4  C   UNL     1      31.964  -9.043 -21.760  0.00  0.00    +0.139 C 
ATOM      5  C   UNL     1      32.458  -8.010 -20.972  0.00  0.00    +0.037 C 
ATOM      6  C   UNL     1      31.341  -8.772 -22.974  0.00  0.00    +0.037 C 
ENDROOT
BRANCH   1   9
ATOM      7  N   UNL     1      30.860  -3.073 -23.132  0.00  0.00    -0.208 N 
ATOM      8  N   UNL     1      30.706  -4.226 -22.460  0.00  0.00    -0.178 NA
ATOM      9  C   UNL     1      31.574  -5.051 -23.061  0.00  0.00    +0.100 C 
ATOM     10  C   UNL     1      32.274  -4.419 -24.110  0.00  0.00    +0.036 C 
ATOM     11  C   UNL     1      31.788  -3.135 -24.129  0.00  0.00    +0.086 C 
ATOM     12  C   UNL     1      30.073  -1.920 -22.764  0.00  0.00    +0.140 C 
BRANCH  10  14
ATOM     13  N   UNL     1      35.240  -5.832 -26.776  0.00  0.00    -0.242 NA
ATOM     14  C   UNL     1      33.277  -4.898 -25.012  0.00  0.00    +0.006 C 
ATOM     15  C   UNL     1      33.394  -4.349 -26.286  0.00  0.00    +0.021 C 
ATOM     16  C   UNL     1      34.145  -5.915 -24.622  0.00  0.00    +0.021 C 
ATOM     17  C   UNL     1      34.381  -4.847 -27.122  0.00  0.00    +0.099 C 
ATOM     18  C   UNL     1      35.099  -6.342 -25.532  0.00  0.00    +0.099 C 
ENDBRANCH  10  14
ENDBRANCH   1   9
BRANCH   4  19
ATOM     19  O   UNL     1      32.090 -10.340 -21.338  0.00  0.00    -0.468 OA
BRANCH  19  20
ATOM     20  C   UNL     1      31.543 -11.345 -22.183  0.00  0.00    +0.264 C 
BRANCH  20  22
ATOM     21  N   UNL     1      33.005 -13.061 -23.067  0.00  0.00    -0.406 NA
ATOM     22  C   UNL     1      32.306 -12.615 -21.997  0.00  0.00    +0.152 C 
ATOM     23  C   UNL     1      33.723 -14.933 -21.731  0.00  0.00    +0.026 C 
ATOM     24  C   UNL     1      33.705 -14.204 -22.937  0.00  0.00    +0.113 C 
ATOM     25  C   UNL     1      32.264 -13.259 -20.778  0.00  0.00    +0.031 C 
ATOM     26  C   UNL     1      32.986 -14.436 -20.648  0.00  0.00    +0.005 C 
ATOM     27  C   UNL     1      34.465 -16.123 -21.632  0.00  0.00    +0.002 C 
ATOM     28  C   UNL     1      34.439 -14.698 -24.013  0.00  0.00    +0.085 C 
ATOM     29  C   UNL     1      35.189 -16.595 -22.723  0.00  0.00    -0.004 C 
ATOM     30  C   UNL     1      35.176 -15.881 -23.915  0.00  0.00    -0.019 C 
ENDBRANCH  20  22
ENDBRANCH  19  20
ENDBRANCH   4  19
TORSDOF 5
ENDMDL
