MODEL 1
REMARK VINA RESULT:     -13.6      0.000      0.000
REMARK  Name = 11961293
REMARK  7 active torsions:
REMARK  status: ('A' for Active; 'I' for Inactive)
REMARK    1  A    between atoms: C_1  and  C_3
REMARK    2  A    between atoms: C_1  and  N_21
REMARK    3  A    between atoms: N_2  and  C_9
REMARK    4  A    between atoms: C_9  and  C_12
REMARK    5  A    between atoms: C_17  and  O_18
REMARK    6  A    between atoms: C_22  and  C_26
REMARK    7  A    between atoms: C_30  and  C_35
REMARK                            x       y       z     vdW  Elec       q    Type
REMARK                         _______ _______ _______ _____ _____    ______ ____
ROOT
ATOM      1  C   UNL     1      33.667 -14.694 -24.571  0.00  0.00    +0.089 C 
ENDROOT
BRANCH   1   3
ATOM      2  N   UNL     1      35.167 -17.905 -22.102  0.00  0.00    +0.387 N 
ATOM      3  C   UNL     1      34.652 -15.588 -23.824  0.00  0.00    +0.015 C 
ATOM      4  C   UNL     1      35.501 -17.953 -23.531  0.00  0.00    -0.077 C 
ATOM      5  C   UNL     1      35.298 -16.540 -21.573  0.00  0.00    -0.077 C 
ATOM      6  C   UNL     1      34.590 -17.029 -24.343  0.00  0.00    -0.021 C 
ATOM      7  C   UNL     1      34.378 -15.569 -22.317  0.00  0.00    -0.021 C 
ATOM      8  H   UNL     1      34.193 -18.190 -21.996  0.00  0.00    -0.080 HD
BRANCH   2   9
ATOM      9  C   UNL     1      36.011 -18.830 -21.347  0.00  0.00    -0.077 C 
BRANCH   9  12
ATOM     10  O   UNL     1      32.137 -22.361 -17.977  0.00  0.00    -0.226 OA
ATOM     11  N   UNL     1      33.914 -22.069 -19.446  0.00  0.00    -0.246 N 
ATOM     12  C   UNL     1      35.300 -20.164 -21.131  0.00  0.00    -0.017 C 
ATOM     13  C   UNL     1      33.846 -19.942 -20.686  0.00  0.00    +0.020 C 
ATOM     14  C   UNL     1      36.047 -21.020 -20.096  0.00  0.00    +0.020 C 
ATOM     15  C   UNL     1      33.147 -21.269 -20.400  0.00  0.00    +0.097 C 
ATOM     16  C   UNL     1      35.308 -22.328 -19.821  0.00  0.00    +0.097 C 
ATOM     17  C   UNL     1      33.305 -22.574 -18.294  0.00  0.00    +0.405 C 
BRANCH  17  18
ATOM     18  O   UNL     1      34.154 -23.345 -17.544  0.00  0.00    -0.430 OA
ATOM     19  C   UNL     1      33.835 -23.464 -16.152  0.00  0.00    +0.257 C 
ENDBRANCH  17  18
ENDBRANCH   9  12
ENDBRANCH   2   9
ENDBRANCH   1   3
BRANCH   1  21
ATOM     20  O   UNL     1      34.244 -11.889 -24.354  0.00  0.00    -0.270 OA
ATOM     21  N   UNL     1      33.037 -13.745 -23.667  0.00  0.00    -0.301 N 
ATOM     22  C   UNL     1      33.389 -12.410 -23.642  0.00  0.00    +0.247 C 
ATOM     23  H   UNL     1      32.336 -14.064 -23.053  0.00  0.00    +0.150 HD
BRANCH  22  26
ATOM     24  N   UNL     1      32.408  -8.046 -21.944  0.00  0.00    -0.318 N 
ATOM     25  N   UNL     1      33.479  -9.309 -23.426  0.00  0.00    -0.318 N 
ATOM     26  C   UNL     1      32.671 -11.576 -22.644  0.00  0.00    +0.068 C 
ATOM     27  C   UNL     1      32.780 -10.184 -22.636  0.00  0.00    +0.063 C 
ATOM     28  C   UNL     1      31.849 -12.149 -21.667  0.00  0.00    +0.006 C 
ATOM     29  C   UNL     1      32.119  -9.372 -21.719  0.00  0.00    +0.059 C 
ATOM     30  C   UNL     1      33.225  -8.045 -22.974  0.00  0.00    +0.144 C 
ATOM     31  C   UNL     1      31.173 -11.359 -20.734  0.00  0.00    +0.001 C 
ATOM     32  C   UNL     1      31.298  -9.964 -20.745  0.00  0.00    +0.016 C 
ATOM     33  H   UNL     1      32.075  -7.266 -21.444  0.00  0.00    +0.148 HD
ATOM     34  H   UNL     1      34.060  -9.549 -24.184  0.00  0.00    +0.148 HD
BRANCH  30  35
ATOM     35  C   UNL     1      33.777  -6.801 -23.541  0.00  0.00    +0.037 C 
ATOM     36  C   UNL     1      35.128  -7.007 -24.268  0.00  0.00    +0.003 C 
ATOM     37  C   UNL     1      32.793  -6.073 -24.491  0.00  0.00    +0.003 C 
ENDBRANCH  30  35
ENDBRANCH  22  26
ENDBRANCH   1  21
TORSDOF 7
ENDMDL
MODEL 2
REMARK VINA RESULT:     -12.7      2.704      5.676
REMARK  Name = 11961293
REMARK  7 active torsions:
REMARK  status: ('A' for Active; 'I' for Inactive)
REMARK    1  A    between atoms: C_1  and  C_3
REMARK    2  A    between atoms: C_1  and  N_21
REMARK    3  A    between atoms: N_2  and  C_9
REMARK    4  A    between atoms: C_9  and  C_12
REMARK    5  A    between atoms: C_17  and  O_18
REMARK    6  A    between atoms: C_22  and  C_26
REMARK    7  A    between atoms: C_30  and  C_35
REMARK                            x       y       z     vdW  Elec       q    Type
REMARK                         _______ _______ _______ _____ _____    ______ ____
ROOT
ATOM      1  C   UNL     1      36.589 -18.765 -21.418  0.00  0.00    +0.089 C 
ENDROOT
BRANCH   1   3
ATOM      2  N   UNL     1      34.282 -21.645 -19.172  0.00  0.00    +0.387 N 
ATOM      3  C   UNL     1      35.816 -20.038 -21.086  0.00  0.00    +0.015 C 
ATOM      4  C   UNL     1      33.606 -20.979 -20.292  0.00  0.00    -0.077 C 
ATOM      5  C   UNL     1      35.655 -22.026 -19.532  0.00  0.00    -0.077 C 
ATOM      6  C   UNL     1      34.361 -19.720 -20.723  0.00  0.00    -0.021 C 
ATOM      7  C   UNL     1      36.480 -20.802 -19.936  0.00  0.00    -0.021 C 
ATOM      8  H   UNL     1      34.333 -20.984 -18.397  0.00  0.00    -0.080 HD
BRANCH   2   9
ATOM      9  C   UNL     1      33.523 -22.817 -18.738  0.00  0.00    -0.077 C 
BRANCH   9  12
ATOM     10  O   UNL     1      32.168 -25.465 -13.262  0.00  0.00    -0.226 OA
ATOM     11  N   UNL     1      31.983 -23.764 -14.835  0.00  0.00    -0.246 N 
ATOM     12  C   UNL     1      33.088 -22.676 -17.281  0.00  0.00    -0.017 C 
ATOM     13  C   UNL     1      33.899 -23.615 -16.375  0.00  0.00    +0.020 C 
ATOM     14  C   UNL     1      31.585 -22.960 -17.130  0.00  0.00    +0.020 C 
ATOM     15  C   UNL     1      33.424 -23.532 -14.927  0.00  0.00    +0.097 C 
ATOM     16  C   UNL     1      31.151 -22.889 -15.667  0.00  0.00    +0.097 C 
ATOM     17  C   UNL     1      31.475 -24.730 -13.963  0.00  0.00    +0.405 C 
BRANCH  17  18
ATOM     18  O   UNL     1      30.105 -24.775 -13.964  0.00  0.00    -0.430 OA
ATOM     19  C   UNL     1      29.504 -25.676 -14.902  0.00  0.00    +0.257 C 
ENDBRANCH  17  18
ENDBRANCH   9  12
ENDBRANCH   2   9
ENDBRANCH   1   3
BRANCH   1  21
ATOM     20  O   UNL     1      35.140 -16.299 -21.174  0.00  0.00    -0.270 OA
ATOM     21  N   UNL     1      35.941 -18.028 -22.492  0.00  0.00    -0.301 N 
ATOM     22  C   UNL     1      35.267 -16.845 -22.267  0.00  0.00    +0.247 C 
ATOM     23  H   UNL     1      35.986 -18.384 -23.409  0.00  0.00    +0.150 HD
BRANCH  22  26
ATOM     24  N   UNL     1      32.474 -13.405 -24.071  0.00  0.00    -0.318 N 
ATOM     25  N   UNL     1      33.419 -14.344 -22.292  0.00  0.00    -0.318 N 
ATOM     26  C   UNL     1      34.638 -16.228 -23.463  0.00  0.00    +0.068 C 
ATOM     27  C   UNL     1      33.822 -15.100 -23.363  0.00  0.00    +0.063 C 
ATOM     28  C   UNL     1      34.838 -16.748 -24.746  0.00  0.00    +0.006 C 
ATOM     29  C   UNL     1      33.220 -14.493 -24.462  0.00  0.00    +0.059 C 
ATOM     30  C   UNL     1      32.615 -13.345 -22.766  0.00  0.00    +0.144 C 
ATOM     31  C   UNL     1      34.247 -16.161 -25.867  0.00  0.00    +0.001 C 
ATOM     32  C   UNL     1      33.431 -15.030 -25.743  0.00  0.00    +0.016 C 
ATOM     33  H   UNL     1      31.948 -12.801 -24.644  0.00  0.00    +0.148 HD
ATOM     34  H   UNL     1      33.664 -14.495 -21.350  0.00  0.00    +0.148 HD
BRANCH  30  35
ATOM     35  C   UNL     1      31.966 -12.303 -21.950  0.00  0.00    +0.037 C 
ATOM     36  C   UNL     1      32.292 -12.417 -20.441  0.00  0.00    +0.003 C 
ATOM     37  C   UNL     1      32.280 -10.865 -22.431  0.00  0.00    +0.003 C 
ENDBRANCH  30  35
ENDBRANCH  22  26
ENDBRANCH   1  21
TORSDOF 7
ENDMDL
MODEL 3
REMARK VINA RESULT:     -12.4      2.715     12.791
REMARK  Name = 11961293
REMARK  7 active torsions:
REMARK  status: ('A' for Active; 'I' for Inactive)
REMARK    1  A    between atoms: C_1  and  C_3
REMARK    2  A    between atoms: C_1  and  N_21
REMARK    3  A    between atoms: N_2  and  C_9
REMARK    4  A    between atoms: C_9  and  C_12
REMARK    5  A    between atoms: C_17  and  O_18
REMARK    6  A    between atoms: C_22  and  C_26
REMARK    7  A    between atoms: C_30  and  C_35
REMARK                            x       y       z     vdW  Elec       q    Type
REMARK                         _______ _______ _______ _____ _____    ______ ____
ROOT
ATOM      1  C   UNL     1      34.248 -22.720 -19.662  0.00  0.00    +0.089 C 
ENDROOT
BRANCH   1   3
ATOM      2  N   UNL     1      35.602 -19.076 -21.545  0.00  0.00    +0.387 N 
ATOM      3  C   UNL     1      34.662 -21.261 -19.831  0.00  0.00    +0.015 C 
ATOM      4  C   UNL     1      34.211 -19.104 -21.074  0.00  0.00    -0.077 C 
ATOM      5  C   UNL     1      36.506 -19.696 -20.567  0.00  0.00    -0.077 C 
ATOM      6  C   UNL     1      33.743 -20.539 -20.823  0.00  0.00    -0.021 C 
ATOM      7  C   UNL     1      36.116 -21.151 -20.300  0.00  0.00    -0.021 C 
ATOM      8  H   UNL     1      35.653 -19.618 -22.408  0.00  0.00    -0.080 HD
BRANCH   2   9
ATOM      9  C   UNL     1      36.019 -17.703 -21.829  0.00  0.00    -0.077 C 
BRANCH   9  12
ATOM     10  O   UNL     1      33.991 -12.900 -25.242  0.00  0.00    -0.226 OA
ATOM     11  N   UNL     1      33.767 -14.458 -23.532  0.00  0.00    -0.246 N 
ATOM     12  C   UNL     1      34.857 -16.886 -22.389  0.00  0.00    -0.017 C 
ATOM     13  C   UNL     1      35.120 -16.491 -23.850  0.00  0.00    +0.020 C 
ATOM     14  C   UNL     1      34.612 -15.631 -21.536  0.00  0.00    +0.020 C 
ATOM     15  C   UNL     1      33.996 -15.615 -24.397  0.00  0.00    +0.097 C 
ATOM     16  C   UNL     1      33.496 -14.769 -22.125  0.00  0.00    +0.097 C 
ATOM     17  C   UNL     1      33.765 -13.165 -24.063  0.00  0.00    +0.405 C 
BRANCH  17  18
ATOM     18  O   UNL     1      33.480 -12.209 -23.124  0.00  0.00    -0.430 OA
ATOM     19  C   UNL     1      33.371 -10.864 -23.605  0.00  0.00    +0.257 C 
ENDBRANCH  17  18
ENDBRANCH   9  12
ENDBRANCH   2   9
ENDBRANCH   1   3
BRANCH   1  21
ATOM     20  O   UNL     1      35.745 -22.993 -17.227  0.00  0.00    -0.270 OA
ATOM     21  N   UNL     1      33.708 -22.957 -18.332  0.00  0.00    -0.301 N 
ATOM     22  C   UNL     1      34.519 -23.073 -17.221  0.00  0.00    +0.247 C 
ATOM     23  H   UNL     1      32.733 -23.037 -18.220  0.00  0.00    +0.150 HD
BRANCH  22  26
ATOM     24  N   UNL     1      34.733 -24.731 -12.738  0.00  0.00    -0.318 N 
ATOM     25  N   UNL     1      35.766 -24.329 -14.664  0.00  0.00    -0.318 N 
ATOM     26  C   UNL     1      33.817 -23.340 -15.940  0.00  0.00    +0.068 C 
ATOM     27  C   UNL     1      34.474 -23.909 -14.847  0.00  0.00    +0.063 C 
ATOM     28  C   UNL     1      32.464 -23.029 -15.768  0.00  0.00    +0.006 C 
ATOM     29  C   UNL     1      33.849 -24.170 -13.631  0.00  0.00    +0.059 C 
ATOM     30  C   UNL     1      35.871 -24.812 -13.390  0.00  0.00    +0.144 C 
ATOM     31  C   UNL     1      31.810 -23.280 -14.559  0.00  0.00    +0.001 C 
ATOM     32  C   UNL     1      32.489 -23.852 -13.477  0.00  0.00    +0.016 C 
ATOM     33  H   UNL     1      34.552 -25.011 -11.812  0.00  0.00    +0.148 HD
ATOM     34  H   UNL     1      36.489 -24.290 -15.332  0.00  0.00    +0.148 HD
BRANCH  30  35
ATOM     35  C   UNL     1      37.093 -25.365 -12.777  0.00  0.00    +0.037 C 
ATOM     36  C   UNL     1      37.972 -26.157 -13.774  0.00  0.00    +0.003 C 
ATOM     37  C   UNL     1      37.961 -24.294 -12.071  0.00  0.00    +0.003 C 
ENDBRANCH  30  35
ENDBRANCH  22  26
ENDBRANCH   1  21
TORSDOF 7
ENDMDL
MODEL 4
REMARK VINA RESULT:     -12.4      3.305     12.512
REMARK  Name = 11961293
REMARK  7 active torsions:
REMARK  status: ('A' for Active; 'I' for Inactive)
REMARK    1  A    between atoms: C_1  and  C_3
REMARK    2  A    between atoms: C_1  and  N_21
REMARK    3  A    between atoms: N_2  and  C_9
REMARK    4  A    between atoms: C_9  and  C_12
REMARK    5  A    between atoms: C_17  and  O_18
REMARK    6  A    between atoms: C_22  and  C_26
REMARK    7  A    between atoms: C_30  and  C_35
REMARK                            x       y       z     vdW  Elec       q    Type
REMARK                         _______ _______ _______ _____ _____    ______ ____
ROOT
ATOM      1  C   UNL     1      31.448 -11.961 -21.330  0.00  0.00    +0.089 C 
ENDROOT
BRANCH   1   3
ATOM      2  N   UNL     1      33.183  -8.097 -22.174  0.00  0.00    +0.387 N 
ATOM      3  C   UNL     1      31.551 -10.490 -21.721  0.00  0.00    +0.015 C 
ATOM      4  C   UNL     1      32.610  -8.831 -23.309  0.00  0.00    -0.077 C 
ATOM      5  C   UNL     1      32.320  -8.195 -20.989  0.00  0.00    -0.077 C 
ATOM      6  C   UNL     1      32.420 -10.311 -22.970  0.00  0.00    -0.021 C 
ATOM      7  C   UNL     1      32.121  -9.654 -20.571  0.00  0.00    -0.021 C 
ATOM      8  H   UNL     1      34.081  -8.523 -21.944  0.00  0.00    -0.080 HD
BRANCH   2   9
ATOM      9  C   UNL     1      33.407  -6.695 -22.530  0.00  0.00    -0.077 C 
BRANCH   9  12
ATOM     10  O   UNL     1      36.090  -3.939 -27.432  0.00  0.00    -0.226 OA
ATOM     11  N   UNL     1      34.322  -5.027 -26.387  0.00  0.00    -0.246 N 
ATOM     12  C   UNL     1      33.525  -6.530 -24.043  0.00  0.00    -0.017 C 
ATOM     13  C   UNL     1      34.997  -6.413 -24.467  0.00  0.00    +0.020 C 
ATOM     14  C   UNL     1      32.736  -5.301 -24.521  0.00  0.00    +0.020 C 
ATOM     15  C   UNL     1      35.123  -6.178 -25.969  0.00  0.00    +0.097 C 
ATOM     16  C   UNL     1      32.902  -5.085 -26.024  0.00  0.00    +0.097 C 
ATOM     17  C   UNL     1      34.901  -3.991 -27.124  0.00  0.00    +0.405 C 
BRANCH  17  18
ATOM     18  O   UNL     1      33.996  -3.025 -27.477  0.00  0.00    -0.430 OA
ATOM     19  C   UNL     1      33.747  -2.874 -28.880  0.00  0.00    +0.257 C 
ENDBRANCH  17  18
ENDBRANCH   9  12
ENDBRANCH   2   9
ENDBRANCH   1   3
BRANCH   1  21
ATOM     20  O   UNL     1      33.528 -13.916 -21.021  0.00  0.00    -0.270 OA
ATOM     21  N   UNL     1      31.999 -12.815 -22.371  0.00  0.00    -0.301 N 
ATOM     22  C   UNL     1      33.004 -13.727 -22.116  0.00  0.00    +0.247 C 
ATOM     23  H   UNL     1      31.645 -12.741 -23.287  0.00  0.00    +0.150 HD
BRANCH  22  26
ATOM     24  N   UNL     1      35.486 -17.461 -23.784  0.00  0.00    -0.318 N 
ATOM     25  N   UNL     1      34.775 -16.282 -22.040  0.00  0.00    -0.318 N 
ATOM     26  C   UNL     1      33.476 -14.505 -23.290  0.00  0.00    +0.068 C 
ATOM     27  C   UNL     1      34.270 -15.644 -23.144  0.00  0.00    +0.063 C 
ATOM     28  C   UNL     1      33.143 -14.134 -24.596  0.00  0.00    +0.006 C 
ATOM     29  C   UNL     1      34.727 -16.400 -24.220  0.00  0.00    +0.059 C 
ATOM     30  C   UNL     1      35.494 -17.361 -22.474  0.00  0.00    +0.144 C 
ATOM     31  C   UNL     1      33.588 -14.872 -25.696  0.00  0.00    +0.001 C 
ATOM     32  C   UNL     1      34.384 -16.011 -25.526  0.00  0.00    +0.016 C 
ATOM     33  H   UNL     1      35.928 -18.148 -24.334  0.00  0.00    +0.148 HD
ATOM     34  H   UNL     1      34.642 -16.011 -21.102  0.00  0.00    +0.148 HD
BRANCH  30  35
ATOM     35  C   UNL     1      36.206 -18.323 -21.613  0.00  0.00    +0.037 C 
ATOM     36  C   UNL     1      35.398 -19.615 -21.342  0.00  0.00    +0.003 C 
ATOM     37  C   UNL     1      37.608 -18.702 -22.151  0.00  0.00    +0.003 C 
ENDBRANCH  30  35
ENDBRANCH  22  26
ENDBRANCH   1  21
TORSDOF 7
ENDMDL
MODEL 5
REMARK VINA RESULT:     -12.3      1.139      2.042
REMARK  Name = 11961293
REMARK  7 active torsions:
REMARK  status: ('A' for Active; 'I' for Inactive)
REMARK    1  A    between atoms: C_1  and  C_3
REMARK    2  A    between atoms: C_1  and  N_21
REMARK    3  A    between atoms: N_2  and  C_9
REMARK    4  A    between atoms: C_9  and  C_12
REMARK    5  A    between atoms: C_17  and  O_18
REMARK    6  A    between atoms: C_22  and  C_26
REMARK    7  A    between atoms: C_30  and  C_35
REMARK                            x       y       z     vdW  Elec       q    Type
REMARK                         _______ _______ _______ _____ _____    ______ ____
ROOT
ATOM      1  C   UNL     1      33.106 -14.072 -24.968  0.00  0.00    +0.089 C 
ENDROOT
BRANCH   1   3
ATOM      2  N   UNL     1      35.669 -17.426 -24.054  0.00  0.00    +0.387 N 
ATOM      3  C   UNL     1      33.565 -15.415 -24.408  0.00  0.00    +0.015 C 
ATOM      4  C   UNL     1      35.251 -16.582 -22.927  0.00  0.00    -0.077 C 
ATOM      5  C   UNL     1      34.551 -17.674 -24.974  0.00  0.00    -0.077 C 
ATOM      6  C   UNL     1      34.719 -15.233 -23.416  0.00  0.00    -0.021 C 
ATOM      7  C   UNL     1      33.996 -16.362 -25.533  0.00  0.00    -0.021 C 
ATOM      8  H   UNL     1      36.395 -16.928 -24.568  0.00  0.00    -0.080 HD
BRANCH   2   9
ATOM      9  C   UNL     1      36.222 -18.691 -23.569  0.00  0.00    -0.077 C 
BRANCH   9  12
ATOM     10  O   UNL     1      36.142 -22.458 -18.606  0.00  0.00    -0.226 OA
ATOM     11  N   UNL     1      35.239 -20.785 -19.943  0.00  0.00    -0.246 N 
ATOM     12  C   UNL     1      35.766 -18.972 -22.139  0.00  0.00    -0.017 C 
ATOM     13  C   UNL     1      36.902 -19.597 -21.315  0.00  0.00    +0.020 C 
ATOM     14  C   UNL     1      34.535 -19.892 -22.129  0.00  0.00    +0.020 C 
ATOM     15  C   UNL     1      36.436 -19.946 -19.905  0.00  0.00    +0.097 C 
ATOM     16  C   UNL     1      34.111 -20.236 -20.703  0.00  0.00    +0.097 C 
ATOM     17  C   UNL     1      35.199 -21.996 -19.245  0.00  0.00    +0.405 C 
BRANCH  17  18
ATOM     18  O   UNL     1      33.985 -22.622 -19.345  0.00  0.00    -0.430 OA
ATOM     19  C   UNL     1      33.312 -22.897 -18.110  0.00  0.00    +0.257 C 
ENDBRANCH  17  18
ENDBRANCH   9  12
ENDBRANCH   2   9
ENDBRANCH   1   3
BRANCH   1  21
ATOM     20  O   UNL     1      34.218 -11.559 -24.135  0.00  0.00    -0.270 OA
ATOM     21  N   UNL     1      32.607 -13.210 -23.907  0.00  0.00    -0.301 N 
ATOM     22  C   UNL     1      33.219 -12.015 -23.585  0.00  0.00    +0.247 C 
ATOM     23  H   UNL     1      31.807 -13.487 -23.404  0.00  0.00    +0.150 HD
BRANCH  22  26
ATOM     24  N   UNL     1      31.774  -7.810 -21.818  0.00  0.00    -0.318 N 
ATOM     25  N   UNL     1      32.697  -8.951 -23.486  0.00  0.00    -0.318 N 
ATOM     26  C   UNL     1      32.603 -11.263 -22.461  0.00  0.00    +0.068 C 
ATOM     27  C   UNL     1      32.413  -9.881 -22.520  0.00  0.00    +0.063 C 
ATOM     28  C   UNL     1      32.183 -11.907 -21.293  0.00  0.00    +0.006 C 
ATOM     29  C   UNL     1      31.836  -9.145 -21.489  0.00  0.00    +0.059 C 
ATOM     30  C   UNL     1      32.298  -7.730 -23.020  0.00  0.00    +0.144 C 
ATOM     31  C   UNL     1      31.602 -11.194 -20.241  0.00  0.00    +0.001 C 
ATOM     32  C   UNL     1      31.421  -9.808 -20.322  0.00  0.00    +0.016 C 
ATOM     33  H   UNL     1      31.415  -7.074 -21.271  0.00  0.00    +0.148 HD
ATOM     34  H   UNL     1      33.116  -9.131 -24.360  0.00  0.00    +0.148 HD
BRANCH  30  35
ATOM     35  C   UNL     1      32.419  -6.451 -23.743  0.00  0.00    +0.037 C 
ATOM     36  C   UNL     1      32.056  -5.221 -22.875  0.00  0.00    +0.003 C 
ATOM     37  C   UNL     1      33.817  -6.234 -24.374  0.00  0.00    +0.003 C 
ENDBRANCH  30  35
ENDBRANCH  22  26
ENDBRANCH   1  21
TORSDOF 7
ENDMDL
MODEL 6
REMARK VINA RESULT:     -12.3      2.692     12.468
REMARK  Name = 11961293
REMARK  7 active torsions:
REMARK  status: ('A' for Active; 'I' for Inactive)
REMARK    1  A    between atoms: C_1  and  C_3
REMARK    2  A    between atoms: C_1  and  N_21
REMARK    3  A    between atoms: N_2  and  C_9
REMARK    4  A    between atoms: C_9  and  C_12
REMARK    5  A    between atoms: C_17  and  O_18
REMARK    6  A    between atoms: C_22  and  C_26
REMARK    7  A    between atoms: C_30  and  C_35
REMARK                            x       y       z     vdW  Elec       q    Type
REMARK                         _______ _______ _______ _____ _____    ______ ____
ROOT
ATOM      1  C   UNL     1      36.880 -21.440 -19.414  0.00  0.00    +0.089 C 
ENDROOT
BRANCH   1   3
ATOM      2  N   UNL     1      35.270 -18.344 -21.959  0.00  0.00    +0.387 N 
ATOM      3  C   UNL     1      36.406 -20.722 -20.674  0.00  0.00    +0.015 C 
ATOM      4  C   UNL     1      36.691 -18.674 -22.130  0.00  0.00    -0.077 C 
ATOM      5  C   UNL     1      34.461 -19.559 -21.794  0.00  0.00    -0.077 C 
ATOM      6  C   UNL     1      37.226 -19.452 -20.926  0.00  0.00    -0.021 C 
ATOM      7  C   UNL     1      34.919 -20.367 -20.578  0.00  0.00    -0.021 C 
ATOM      8  H   UNL     1      35.176 -17.786 -21.110  0.00  0.00    -0.080 HD
BRANCH   2   9
ATOM      9  C   UNL     1      34.787 -17.557 -23.094  0.00  0.00    -0.077 C 
BRANCH   9  12
ATOM     10  O   UNL     1      32.261 -12.568 -20.343  0.00  0.00    -0.226 OA
ATOM     11  N   UNL     1      33.568 -13.587 -21.973  0.00  0.00    -0.246 N 
ATOM     12  C   UNL     1      34.835 -16.064 -22.780  0.00  0.00    -0.017 C 
ATOM     13  C   UNL     1      34.434 -15.798 -21.321  0.00  0.00    +0.020 C 
ATOM     14  C   UNL     1      33.922 -15.276 -23.733  0.00  0.00    +0.020 C 
ATOM     15  C   UNL     1      34.412 -14.303 -21.017  0.00  0.00    +0.097 C 
ATOM     16  C   UNL     1      33.909 -13.789 -23.385  0.00  0.00    +0.097 C 
ATOM     17  C   UNL     1      32.550 -12.741 -21.525  0.00  0.00    +0.405 C 
BRANCH  17  18
ATOM     18  O   UNL     1      31.898 -12.111 -22.552  0.00  0.00    -0.430 OA
ATOM     19  C   UNL     1      31.943 -10.679 -22.545  0.00  0.00    +0.257 C 
ENDBRANCH  17  18
ENDBRANCH   9  12
ENDBRANCH   2   9
ENDBRANCH   1   3
BRANCH   1  21
ATOM     20  O   UNL     1      36.989 -22.697 -16.835  0.00  0.00    -0.270 OA
ATOM     21  N   UNL     1      35.752 -21.934 -18.640  0.00  0.00    -0.301 N 
ATOM     22  C   UNL     1      35.913 -22.526 -17.403  0.00  0.00    +0.247 C 
ATOM     23  H   UNL     1      34.844 -21.843 -19.010  0.00  0.00    +0.150 HD
BRANCH  22  26
ATOM     24  N   UNL     1      33.828 -24.540 -13.597  0.00  0.00    -0.318 N 
ATOM     25  N   UNL     1      35.685 -23.828 -14.588  0.00  0.00    -0.318 N 
ATOM     26  C   UNL     1      34.665 -23.001 -16.752  0.00  0.00    +0.068 C 
ATOM     27  C   UNL     1      34.674 -23.573 -15.478  0.00  0.00    +0.063 C 
ATOM     28  C   UNL     1      33.423 -22.894 -17.386  0.00  0.00    +0.006 C 
ATOM     29  C   UNL     1      33.524 -24.025 -14.837  0.00  0.00    +0.059 C 
ATOM     30  C   UNL     1      35.130 -24.405 -13.481  0.00  0.00    +0.144 C 
ATOM     31  C   UNL     1      32.253 -23.340 -16.767  0.00  0.00    +0.001 C 
ATOM     32  C   UNL     1      32.285 -23.910 -15.488  0.00  0.00    +0.016 C 
ATOM     33  H   UNL     1      33.205 -24.925 -12.939  0.00  0.00    +0.148 HD
ATOM     34  H   UNL     1      36.641 -23.630 -14.724  0.00  0.00    +0.148 HD
BRANCH  30  35
ATOM     35  C   UNL     1      35.863 -24.840 -12.278  0.00  0.00    +0.037 C 
ATOM     36  C   UNL     1      36.990 -25.857 -12.583  0.00  0.00    +0.003 C 
ATOM     37  C   UNL     1      36.447 -23.663 -11.459  0.00  0.00    +0.003 C 
ENDBRANCH  30  35
ENDBRANCH  22  26
ENDBRANCH   1  21
TORSDOF 7
ENDMDL
MODEL 7
REMARK VINA RESULT:     -12.2      3.346      5.356
REMARK  Name = 11961293
REMARK  7 active torsions:
REMARK  status: ('A' for Active; 'I' for Inactive)
REMARK    1  A    between atoms: C_1  and  C_3
REMARK    2  A    between atoms: C_1  and  N_21
REMARK    3  A    between atoms: N_2  and  C_9
REMARK    4  A    between atoms: C_9  and  C_12
REMARK    5  A    between atoms: C_17  and  O_18
REMARK    6  A    between atoms: C_22  and  C_26
REMARK    7  A    between atoms: C_30  and  C_35
REMARK                            x       y       z     vdW  Elec       q    Type
REMARK                         _______ _______ _______ _____ _____    ______ ____
ROOT
ATOM      1  C   UNL     1      36.395 -18.672 -21.612  0.00  0.00    +0.089 C 
ENDROOT
BRANCH   1   3
ATOM      2  N   UNL     1      34.361 -21.650 -19.235  0.00  0.00    +0.387 N 
ATOM      3  C   UNL     1      35.716 -19.984 -21.232  0.00  0.00    +0.015 C 
ATOM      4  C   UNL     1      33.601 -21.046 -20.336  0.00  0.00    -0.077 C 
ATOM      5  C   UNL     1      35.739 -21.952 -19.645  0.00  0.00    -0.077 C 
ATOM      6  C   UNL     1      34.259 -19.749 -20.815  0.00  0.00    -0.021 C 
ATOM      7  C   UNL     1      36.470 -20.687 -20.098  0.00  0.00    -0.021 C 
ATOM      8  H   UNL     1      34.401 -20.974 -18.472  0.00  0.00    -0.080 HD
BRANCH   2   9
ATOM      9  C   UNL     1      33.693 -22.860 -18.755  0.00  0.00    -0.077 C 
BRANCH   9  12
ATOM     10  O   UNL     1      32.246 -25.422 -13.262  0.00  0.00    -0.226 OA
ATOM     11  N   UNL     1      32.100 -23.738 -14.857  0.00  0.00    -0.246 N 
ATOM     12  C   UNL     1      33.245 -22.694 -17.304  0.00  0.00    -0.017 C 
ATOM     13  C   UNL     1      34.033 -23.633 -16.378  0.00  0.00    +0.020 C 
ATOM     14  C   UNL     1      31.737 -22.957 -17.166  0.00  0.00    +0.020 C 
ATOM     15  C   UNL     1      33.544 -23.526 -14.936  0.00  0.00    +0.097 C 
ATOM     16  C   UNL     1      31.288 -22.862 -15.709  0.00  0.00    +0.097 C 
ATOM     17  C   UNL     1      31.569 -24.687 -13.978  0.00  0.00    +0.405 C 
BRANCH  17  18
ATOM     18  O   UNL     1      30.200 -24.713 -13.994  0.00  0.00    -0.430 OA
ATOM     19  C   UNL     1      29.597 -25.676 -14.867  0.00  0.00    +0.257 C 
ENDBRANCH  17  18
ENDBRANCH   9  12
ENDBRANCH   2   9
ENDBRANCH   1   3
BRANCH   1  21
ATOM     20  O   UNL     1      35.520 -16.889 -23.685  0.00  0.00    -0.270 OA
ATOM     21  N   UNL     1      35.480 -17.550 -21.464  0.00  0.00    -0.301 N 
ATOM     22  C   UNL     1      35.122 -16.751 -22.531  0.00  0.00    +0.247 C 
ATOM     23  H   UNL     1      35.104 -17.356 -20.574  0.00  0.00    +0.150 HD
BRANCH  22  26
ATOM     24  N   UNL     1      32.698 -12.920 -24.059  0.00  0.00    -0.318 N 
ATOM     25  N   UNL     1      34.080 -14.598 -24.518  0.00  0.00    -0.318 N 
ATOM     26  C   UNL     1      34.200 -15.631 -22.210  0.00  0.00    +0.068 C 
ATOM     27  C   UNL     1      33.791 -14.716 -23.183  0.00  0.00    +0.063 C 
ATOM     28  C   UNL     1      33.695 -15.445 -20.919  0.00  0.00    +0.006 C 
ATOM     29  C   UNL     1      32.926 -13.658 -22.920  0.00  0.00    +0.059 C 
ATOM     30  C   UNL     1      33.404 -13.511 -24.996  0.00  0.00    +0.144 C 
ATOM     31  C   UNL     1      32.825 -14.392 -20.626  0.00  0.00    +0.001 C 
ATOM     32  C   UNL     1      32.429 -13.485 -21.617  0.00  0.00    +0.016 C 
ATOM     33  H   UNL     1      32.128 -12.122 -24.151  0.00  0.00    +0.148 HD
ATOM     34  H   UNL     1      34.670 -15.190 -25.038  0.00  0.00    +0.148 HD
BRANCH  30  35
ATOM     35  C   UNL     1      33.432 -13.023 -26.387  0.00  0.00    +0.037 C 
ATOM     36  C   UNL     1      34.446 -13.780 -27.280  0.00  0.00    +0.003 C 
ATOM     37  C   UNL     1      32.042 -13.039 -27.069  0.00  0.00    +0.003 C 
ENDBRANCH  30  35
ENDBRANCH  22  26
ENDBRANCH   1  21
TORSDOF 7
ENDMDL
MODEL 8
REMARK VINA RESULT:     -12.0      2.702     11.914
REMARK  Name = 11961293
REMARK  7 active torsions:
REMARK  status: ('A' for Active; 'I' for Inactive)
REMARK    1  A    between atoms: C_1  and  C_3
REMARK    2  A    between atoms: C_1  and  N_21
REMARK    3  A    between atoms: N_2  and  C_9
REMARK    4  A    between atoms: C_9  and  C_12
REMARK    5  A    between atoms: C_17  and  O_18
REMARK    6  A    between atoms: C_22  and  C_26
REMARK    7  A    between atoms: C_30  and  C_35
REMARK                            x       y       z     vdW  Elec       q    Type
REMARK                         _______ _______ _______ _____ _____    ______ ____
ROOT
ATOM      1  C   UNL     1      34.707 -22.333 -19.571  0.00  0.00    +0.089 C 
ENDROOT
BRANCH   1   3
ATOM      2  N   UNL     1      35.887 -18.903 -21.916  0.00  0.00    +0.387 N 
ATOM      3  C   UNL     1      35.053 -20.890 -19.928  0.00  0.00    +0.015 C 
ATOM      4  C   UNL     1      34.501 -18.932 -21.432  0.00  0.00    -0.077 C 
ATOM      5  C   UNL     1      36.822 -19.352 -20.876  0.00  0.00    -0.077 C 
ATOM      6  C   UNL     1      34.099 -20.343 -20.996  0.00  0.00    -0.021 C 
ATOM      7  C   UNL     1      36.499 -20.777 -20.421  0.00  0.00    -0.021 C 
ATOM      8  H   UNL     1      35.960 -19.548 -22.703  0.00  0.00    -0.080 HD
BRANCH   2   9
ATOM      9  C   UNL     1      36.241 -17.560 -22.377  0.00  0.00    -0.077 C 
BRANCH   9  12
ATOM     10  O   UNL     1      33.693 -12.805 -25.496  0.00  0.00    -0.226 OA
ATOM     11  N   UNL     1      33.699 -14.396 -23.802  0.00  0.00    -0.246 N 
ATOM     12  C   UNL     1      34.997 -16.789 -22.811  0.00  0.00    -0.017 C 
ATOM     13  C   UNL     1      35.103 -16.361 -24.283  0.00  0.00    +0.020 C 
ATOM     14  C   UNL     1      34.778 -15.558 -21.916  0.00  0.00    +0.020 C 
ATOM     15  C   UNL     1      33.896 -15.529 -24.706  0.00  0.00    +0.097 C 
ATOM     16  C   UNL     1      33.576 -14.740 -22.381  0.00  0.00    +0.097 C 
ATOM     17  C   UNL     1      33.591 -13.097 -24.306  0.00  0.00    +0.405 C 
BRANCH  17  18
ATOM     18  O   UNL     1      33.354 -12.169 -23.327  0.00  0.00    -0.430 OA
ATOM     19  C   UNL     1      33.488 -10.795 -23.714  0.00  0.00    +0.257 C 
ENDBRANCH  17  18
ENDBRANCH   9  12
ENDBRANCH   2   9
ENDBRANCH   1   3
BRANCH   1  21
ATOM     20  O   UNL     1      33.463 -24.629 -18.378  0.00  0.00    -0.270 OA
ATOM     21  N   UNL     1      34.132 -22.414 -18.237  0.00  0.00    -0.301 N 
ATOM     22  C   UNL     1      33.555 -23.573 -17.757  0.00  0.00    +0.247 C 
ATOM     23  H   UNL     1      34.157 -21.618 -17.657  0.00  0.00    +0.150 HD
BRANCH  22  26
ATOM     24  N   UNL     1      29.734 -22.834 -14.974  0.00  0.00    -0.318 N 
ATOM     25  N   UNL     1      30.597 -22.961 -17.018  0.00  0.00    -0.318 N 
ATOM     26  C   UNL     1      32.991 -23.487 -16.385  0.00  0.00    +0.068 C 
ATOM     27  C   UNL     1      31.641 -23.206 -16.164  0.00  0.00    +0.063 C 
ATOM     28  C   UNL     1      33.786 -23.686 -15.253  0.00  0.00    +0.006 C 
ATOM     29  C   UNL     1      31.077 -23.122 -14.894  0.00  0.00    +0.059 C 
ATOM     30  C   UNL     1      29.480 -22.745 -16.260  0.00  0.00    +0.144 C 
ATOM     31  C   UNL     1      33.249 -23.607 -13.966  0.00  0.00    +0.001 C 
ATOM     32  C   UNL     1      31.892 -23.325 -13.767  0.00  0.00    +0.016 C 
ATOM     33  H   UNL     1      29.100 -22.719 -14.229  0.00  0.00    +0.148 HD
ATOM     34  H   UNL     1      30.644 -22.945 -18.002  0.00  0.00    +0.148 HD
BRANCH  30  35
ATOM     35  C   UNL     1      28.133 -22.446 -16.779  0.00  0.00    +0.037 C 
ATOM     36  C   UNL     1      27.636 -23.477 -17.821  0.00  0.00    +0.003 C 
ATOM     37  C   UNL     1      27.068 -22.295 -15.665  0.00  0.00    +0.003 C 
ENDBRANCH  30  35
ENDBRANCH  22  26
ENDBRANCH   1  21
TORSDOF 7
ENDMDL
MODEL 9
REMARK VINA RESULT:     -11.8      2.723     11.746
REMARK  Name = 11961293
REMARK  7 active torsions:
REMARK  status: ('A' for Active; 'I' for Inactive)
REMARK    1  A    between atoms: C_1  and  C_3
REMARK    2  A    between atoms: C_1  and  N_21
REMARK    3  A    between atoms: N_2  and  C_9
REMARK    4  A    between atoms: C_9  and  C_12
REMARK    5  A    between atoms: C_17  and  O_18
REMARK    6  A    between atoms: C_22  and  C_26
REMARK    7  A    between atoms: C_30  and  C_35
REMARK                            x       y       z     vdW  Elec       q    Type
REMARK                         _______ _______ _______ _____ _____    ______ ____
ROOT
ATOM      1  C   UNL     1      35.322 -22.111 -20.122  0.00  0.00    +0.089 C 
ENDROOT
BRANCH   1   3
ATOM      2  N   UNL     1      35.760 -18.192 -21.885  0.00  0.00    +0.387 N 
ATOM      3  C   UNL     1      35.408 -20.591 -20.238  0.00  0.00    +0.015 C 
ATOM      4  C   UNL     1      34.438 -18.534 -21.345  0.00  0.00    -0.077 C 
ATOM      5  C   UNL     1      36.832 -18.642 -20.987  0.00  0.00    -0.077 C 
ATOM      6  C   UNL     1      34.298 -20.045 -21.143  0.00  0.00    -0.021 C 
ATOM      7  C   UNL     1      36.775 -20.156 -20.775  0.00  0.00    -0.021 C 
ATOM      8  H   UNL     1      35.872 -18.677 -22.776  0.00  0.00    -0.080 HD
BRANCH   2   9
ATOM      9  C   UNL     1      35.860 -16.751 -22.120  0.00  0.00    -0.077 C 
BRANCH   9  12
ATOM     10  O   UNL     1      32.325 -11.656 -22.732  0.00  0.00    -0.226 OA
ATOM     11  N   UNL     1      32.755 -13.783 -21.900  0.00  0.00    -0.246 N 
ATOM     12  C   UNL     1      34.479 -16.101 -22.112  0.00  0.00    -0.017 C 
ATOM     13  C   UNL     1      34.346 -15.084 -23.256  0.00  0.00    +0.020 C 
ATOM     14  C   UNL     1      34.204 -15.420 -20.762  0.00  0.00    +0.020 C 
ATOM     15  C   UNL     1      32.994 -14.377 -23.214  0.00  0.00    +0.097 C 
ATOM     16  C   UNL     1      32.853 -14.708 -20.765  0.00  0.00    +0.097 C 
ATOM     17  C   UNL     1      32.409 -12.434 -21.784  0.00  0.00    +0.405 C 
BRANCH  17  18
ATOM     18  O   UNL     1      32.168 -12.060 -20.488  0.00  0.00    -0.430 OA
ATOM     19  C   UNL     1      31.558 -10.777 -20.304  0.00  0.00    +0.257 C 
ENDBRANCH  17  18
ENDBRANCH   9  12
ENDBRANCH   2   9
ENDBRANCH   1   3
BRANCH   1  21
ATOM     20  O   UNL     1      32.661 -22.514 -19.123  0.00  0.00    -0.270 OA
ATOM     21  N   UNL     1      34.952 -22.510 -18.773  0.00  0.00    -0.301 N 
ATOM     22  C   UNL     1      33.635 -22.677 -18.393  0.00  0.00    +0.247 C 
ATOM     23  H   UNL     1      35.663 -22.666 -18.110  0.00  0.00    +0.150 HD
BRANCH  22  26
ATOM     24  N   UNL     1      30.554 -23.691 -14.876  0.00  0.00    -0.318 N 
ATOM     25  N   UNL     1      30.892 -23.111 -16.995  0.00  0.00    -0.318 N 
ATOM     26  C   UNL     1      33.422 -23.062 -16.974  0.00  0.00    +0.068 C 
ATOM     27  C   UNL     1      32.141 -23.233 -16.445  0.00  0.00    +0.063 C 
ATOM     28  C   UNL     1      34.496 -23.273 -16.103  0.00  0.00    +0.006 C 
ATOM     29  C   UNL     1      31.904 -23.596 -15.122  0.00  0.00    +0.059 C 
ATOM     30  C   UNL     1      29.977 -23.395 -16.020  0.00  0.00    +0.144 C 
ATOM     31  C   UNL     1      34.289 -23.638 -14.771  0.00  0.00    +0.001 C 
ATOM     32  C   UNL     1      32.995 -23.804 -14.261  0.00  0.00    +0.016 C 
ATOM     33  H   UNL     1      30.114 -23.930 -14.029  0.00  0.00    +0.148 HD
ATOM     34  H   UNL     1      30.690 -22.864 -17.927  0.00  0.00    +0.148 HD
BRANCH  30  35
ATOM     35  C   UNL     1      28.512 -23.384 -16.184  0.00  0.00    +0.037 C 
ATOM     36  C   UNL     1      27.829 -22.177 -15.496  0.00  0.00    +0.003 C 
ATOM     37  C   UNL     1      28.062 -23.447 -17.664  0.00  0.00    +0.003 C 
ENDBRANCH  30  35
ENDBRANCH  22  26
ENDBRANCH   1  21
TORSDOF 7
ENDMDL
