MODEL 1
REMARK VINA RESULT:     -12.2      0.000      0.000
REMARK  Name = 16755766
REMARK  5 active torsions:
REMARK  status: ('A' for Active; 'I' for Inactive)
REMARK    1  A    between atoms: N_1  and  C_25
REMARK    2  A    between atoms: N_3  and  C_12
REMARK    3  A    between atoms: C_5  and  C_20
REMARK    4  A    between atoms: C_25  and  C_26
REMARK    5  A    between atoms: C_26  and  C_29
REMARK                            x       y       z     vdW  Elec       q    Type
REMARK                         _______ _______ _______ _____ _____    ______ ____
ROOT
ATOM      1  N   UNL     1      35.129 -23.518 -16.052  0.00  0.00    -0.174 N 
ATOM      2  N   UNL     1      34.998 -22.736 -17.125  0.00  0.00    -0.096 NA
ATOM      3  N   UNL     1      36.725 -21.572 -18.312  0.00  0.00    -0.246 N 
ATOM      4  N   UNL     1      37.173 -22.897 -16.435  0.00  0.00    -0.319 NA
ATOM      5  C   UNL     1      36.412 -23.615 -15.642  0.00  0.00    +0.216 C 
ATOM      6  C   UNL     1      36.270 -22.383 -17.320  0.00  0.00    +0.165 C 
ATOM      7  H   UNL     1      37.683 -21.357 -18.242  0.00  0.00    +0.165 HD
ENDROOT
BRANCH   3  12
ATOM      8  F   UNL     1      35.218 -17.133 -23.070  0.00  0.00    -0.125 F 
ATOM      9  F   UNL     1      35.850 -18.805 -24.330  0.00  0.00    -0.125 F 
ATOM     10  O   UNL     1      36.653 -18.664 -22.214  0.00  0.00    -0.395 OA
ATOM     11  O   UNL     1      34.343 -19.188 -22.681  0.00  0.00    -0.395 OA
ATOM     12  C   UNL     1      36.081 -20.974 -19.431  0.00  0.00    +0.061 C 
ATOM     13  C   UNL     1      36.127 -19.541 -21.313  0.00  0.00    +0.183 C 
ATOM     14  C   UNL     1      36.795 -20.096 -20.240  0.00  0.00    +0.056 C 
ATOM     15  C   UNL     1      34.809 -19.839 -21.580  0.00  0.00    +0.182 C 
ATOM     16  C   UNL     1      34.740 -21.283 -19.694  0.00  0.00    +0.019 C 
ATOM     17  C   UNL     1      34.088 -20.709 -20.788  0.00  0.00    +0.042 C 
ATOM     18  C   UNL     1      35.516 -18.456 -23.062  0.00  0.00    +0.589 C 
ENDBRANCH   3  12
BRANCH   5  20
ATOM     19  N   UNL     1      37.701 -25.880 -12.301  0.00  0.00    -0.242 NA
ATOM     20  C   UNL     1      36.849 -24.387 -14.504  0.00  0.00    +0.050 C 
ATOM     21  C   UNL     1      36.985 -25.767 -14.607  0.00  0.00    +0.025 C 
ATOM     22  C   UNL     1      37.140 -23.753 -13.302  0.00  0.00    +0.025 C 
ATOM     23  C   UNL     1      37.410 -26.462 -13.487  0.00  0.00    +0.099 C 
ATOM     24  C   UNL     1      37.558 -24.538 -12.239  0.00  0.00    +0.099 C 
ENDBRANCH   5  20
BRANCH   1  25
ATOM     25  C   UNL     1      33.946 -24.136 -15.464  0.00  0.00    +0.129 C 
BRANCH  25  26
ATOM     26  C   UNL     1      32.865 -23.109 -15.132  0.00  0.00    +0.109 C 
BRANCH  26  29
ATOM     27  O   UNL     1      31.502 -22.831 -17.084  0.00  0.00    -0.275 OA
ATOM     28  N   UNL     1      30.585 -24.062 -15.346  0.00  0.00    -0.276 N 
ATOM     29  C   UNL     1      31.598 -23.313 -15.952  0.00  0.00    +0.228 C 
ATOM     30  C   UNL     1      30.720 -24.623 -14.003  0.00  0.00    +0.115 C 
ATOM     31  C   UNL     1      29.315 -24.339 -16.007  0.00  0.00    +0.115 C 
ENDBRANCH  26  29
ENDBRANCH  25  26
ENDBRANCH   1  25
TORSDOF 5
ENDMDL
MODEL 2
REMARK VINA RESULT:     -11.7      3.663      7.023
REMARK  Name = 16755766
REMARK  5 active torsions:
REMARK  status: ('A' for Active; 'I' for Inactive)
REMARK    1  A    between atoms: N_1  and  C_25
REMARK    2  A    between atoms: N_3  and  C_12
REMARK    3  A    between atoms: C_5  and  C_20
REMARK    4  A    between atoms: C_25  and  C_26
REMARK    5  A    between atoms: C_26  and  C_29
REMARK                            x       y       z     vdW  Elec       q    Type
REMARK                         _______ _______ _______ _____ _____    ______ ____
ROOT
ATOM      1  N   UNL     1      34.644 -23.706 -14.952  0.00  0.00    -0.174 N 
ATOM      2  N   UNL     1      33.375 -23.754 -15.361  0.00  0.00    -0.096 NA
ATOM      3  N   UNL     1      31.472 -24.559 -14.146  0.00  0.00    -0.246 N 
ATOM      4  N   UNL     1      33.630 -24.567 -13.238  0.00  0.00    -0.319 NA
ATOM      5  C   UNL     1      34.798 -24.185 -13.700  0.00  0.00    +0.216 C 
ATOM      6  C   UNL     1      32.796 -24.286 -14.282  0.00  0.00    +0.165 C 
ATOM      7  H   UNL     1      31.247 -25.029 -13.311  0.00  0.00    +0.165 HD
ENDROOT
BRANCH   3  12
ATOM      8  F   UNL     1      25.701 -21.967 -16.290  0.00  0.00    -0.125 F 
ATOM      9  F   UNL     1      27.034 -21.211 -17.851  0.00  0.00    -0.125 F 
ATOM     10  O   UNL     1      27.902 -21.703 -15.815  0.00  0.00    -0.395 OA
ATOM     11  O   UNL     1      27.109 -23.414 -17.323  0.00  0.00    -0.395 OA
ATOM     12  C   UNL     1      30.349 -24.295 -14.979  0.00  0.00    +0.061 C 
ATOM     13  C   UNL     1      28.639 -22.846 -15.737  0.00  0.00    +0.183 C 
ATOM     14  C   UNL     1      29.725 -23.054 -14.911  0.00  0.00    +0.056 C 
ATOM     15  C   UNL     1      28.187 -23.822 -16.598  0.00  0.00    +0.182 C 
ATOM     16  C   UNL     1      29.895 -25.294 -15.851  0.00  0.00    +0.019 C 
ATOM     17  C   UNL     1      28.795 -25.058 -16.678  0.00  0.00    +0.042 C 
ATOM     18  C   UNL     1      26.947 -22.082 -16.815  0.00  0.00    +0.589 C 
ENDBRANCH   3  12
BRANCH   5  20
ATOM     19  N   UNL     1      38.505 -24.402 -11.657  0.00  0.00    -0.242 NA
ATOM     20  C   UNL     1      36.059 -24.260 -13.003  0.00  0.00    +0.050 C 
ATOM     21  C   UNL     1      36.812 -25.429 -13.045  0.00  0.00    +0.025 C 
ATOM     22  C   UNL     1      36.528 -23.163 -12.290  0.00  0.00    +0.025 C 
ATOM     23  C   UNL     1      38.017 -25.448 -12.361  0.00  0.00    +0.099 C 
ATOM     24  C   UNL     1      37.746 -23.284 -11.640  0.00  0.00    +0.099 C 
ENDBRANCH   5  20
BRANCH   1  25
ATOM     25  C   UNL     1      35.669 -23.184 -15.849  0.00  0.00    +0.129 C 
BRANCH  25  26
ATOM     26  C   UNL     1      35.092 -22.771 -17.203  0.00  0.00    +0.109 C 
BRANCH  26  29
ATOM     27  O   UNL     1      37.277 -21.916 -17.693  0.00  0.00    -0.275 OA
ATOM     28  N   UNL     1      35.626 -21.504 -19.268  0.00  0.00    -0.276 N 
ATOM     29  C   UNL     1      36.106 -22.030 -18.064  0.00  0.00    +0.228 C 
ATOM     30  C   UNL     1      34.234 -21.651 -19.688  0.00  0.00    +0.115 C 
ATOM     31  C   UNL     1      36.477 -20.769 -20.195  0.00  0.00    +0.115 C 
ENDBRANCH  26  29
ENDBRANCH  25  26
ENDBRANCH   1  25
TORSDOF 5
ENDMDL
MODEL 3
REMARK VINA RESULT:     -11.4      1.761      4.826
REMARK  Name = 16755766
REMARK  5 active torsions:
REMARK  status: ('A' for Active; 'I' for Inactive)
REMARK    1  A    between atoms: N_1  and  C_25
REMARK    2  A    between atoms: N_3  and  C_12
REMARK    3  A    between atoms: C_5  and  C_20
REMARK    4  A    between atoms: C_25  and  C_26
REMARK    5  A    between atoms: C_26  and  C_29
REMARK                            x       y       z     vdW  Elec       q    Type
REMARK                         _______ _______ _______ _____ _____    ______ ____
ROOT
ATOM      1  N   UNL     1      33.523 -23.453 -16.404  0.00  0.00    -0.174 N 
ATOM      2  N   UNL     1      34.077 -22.770 -17.408  0.00  0.00    -0.096 NA
ATOM      3  N   UNL     1      32.970 -21.729 -19.261  0.00  0.00    -0.246 N 
ATOM      4  N   UNL     1      31.801 -22.891 -17.600  0.00  0.00    -0.319 NA
ATOM      5  C   UNL     1      32.179 -23.526 -16.514  0.00  0.00    +0.216 C 
ATOM      6  C   UNL     1      32.988 -22.449 -18.109  0.00  0.00    +0.165 C 
ATOM      7  H   UNL     1      32.080 -21.668 -19.678  0.00  0.00    +0.165 HD
ENDROOT
BRANCH   3  12
ATOM      8  F   UNL     1      36.108 -18.523 -24.210  0.00  0.00    -0.125 F 
ATOM      9  F   UNL     1      36.127 -16.946 -22.695  0.00  0.00    -0.125 F 
ATOM     10  O   UNL     1      34.517 -18.539 -22.596  0.00  0.00    -0.395 OA
ATOM     11  O   UNL     1      36.835 -19.022 -22.121  0.00  0.00    -0.395 OA
ATOM     12  C   UNL     1      33.991 -21.048 -19.981  0.00  0.00    +0.061 C 
ATOM     13  C   UNL     1      34.662 -19.480 -21.620  0.00  0.00    +0.183 C 
ATOM     14  C   UNL     1      33.637 -20.113 -20.948  0.00  0.00    +0.056 C 
ATOM     15  C   UNL     1      35.985 -19.754 -21.350  0.00  0.00    +0.182 C 
ATOM     16  C   UNL     1      35.334 -21.335 -19.699  0.00  0.00    +0.019 C 
ATOM     17  C   UNL     1      36.353 -20.678 -20.393  0.00  0.00    +0.042 C 
ATOM     18  C   UNL     1      35.893 -18.267 -22.896  0.00  0.00    +0.589 C 
ENDBRANCH   3  12
BRANCH   5  20
ATOM     19  N   UNL     1      29.649 -25.520 -13.762  0.00  0.00    -0.242 NA
ATOM     20  C   UNL     1      31.319 -24.206 -15.577  0.00  0.00    +0.050 C 
ATOM     21  C   UNL     1      31.627 -24.208 -14.220  0.00  0.00    +0.025 C 
ATOM     22  C   UNL     1      30.178 -24.860 -16.026  0.00  0.00    +0.025 C 
ATOM     23  C   UNL     1      30.766 -24.873 -13.362  0.00  0.00    +0.099 C 
ATOM     24  C   UNL     1      29.383 -25.497 -15.087  0.00  0.00    +0.099 C 
ENDBRANCH   5  20
BRANCH   1  25
ATOM     25  C   UNL     1      34.374 -24.021 -15.365  0.00  0.00    +0.129 C 
BRANCH  25  26
ATOM     26  C   UNL     1      35.859 -23.830 -15.670  0.00  0.00    +0.109 C 
BRANCH  26  29
ATOM     27  O   UNL     1      36.791 -26.039 -15.654  0.00  0.00    -0.275 OA
ATOM     28  N   UNL     1      37.401 -24.643 -13.905  0.00  0.00    -0.276 N 
ATOM     29  C   UNL     1      36.720 -24.944 -15.088  0.00  0.00    +0.228 C 
ATOM     30  C   UNL     1      37.302 -23.339 -13.252  0.00  0.00    +0.115 C 
ATOM     31  C   UNL     1      38.261 -25.609 -13.231  0.00  0.00    +0.115 C 
ENDBRANCH  26  29
ENDBRANCH  25  26
ENDBRANCH   1  25
TORSDOF 5
ENDMDL
MODEL 4
REMARK VINA RESULT:     -11.4      8.717     13.332
REMARK  Name = 16755766
REMARK  5 active torsions:
REMARK  status: ('A' for Active; 'I' for Inactive)
REMARK    1  A    between atoms: N_1  and  C_25
REMARK    2  A    between atoms: N_3  and  C_12
REMARK    3  A    between atoms: C_5  and  C_20
REMARK    4  A    between atoms: C_25  and  C_26
REMARK    5  A    between atoms: C_26  and  C_29
REMARK                            x       y       z     vdW  Elec       q    Type
REMARK                         _______ _______ _______ _____ _____    ______ ____
ROOT
ATOM      1  N   UNL     1      32.638 -11.801 -22.549  0.00  0.00    -0.174 N 
ATOM      2  N   UNL     1      33.001 -13.079 -22.676  0.00  0.00    -0.096 NA
ATOM      3  N   UNL     1      34.530 -14.021 -24.263  0.00  0.00    -0.246 N 
ATOM      4  N   UNL     1      34.026 -11.735 -24.217  0.00  0.00    -0.319 NA
ATOM      5  C   UNL     1      33.242 -11.005 -23.458  0.00  0.00    +0.216 C 
ATOM      6  C   UNL     1      33.847 -12.988 -23.704  0.00  0.00    +0.165 C 
ATOM      7  H   UNL     1      35.040 -13.771 -25.068  0.00  0.00    +0.165 HD
ENDROOT
BRANCH   3  12
ATOM      8  F   UNL     1      36.506 -19.546 -21.072  0.00  0.00    -0.125 F 
ATOM      9  F   UNL     1      34.368 -19.615 -20.615  0.00  0.00    -0.125 F 
ATOM     10  O   UNL     1      35.324 -17.612 -21.076  0.00  0.00    -0.395 OA
ATOM     11  O   UNL     1      35.017 -19.309 -22.765  0.00  0.00    -0.395 OA
ATOM     12  C   UNL     1      34.649 -15.394 -23.910  0.00  0.00    +0.061 C 
ATOM     13  C   UNL     1      35.047 -17.081 -22.300  0.00  0.00    +0.183 C 
ATOM     14  C   UNL     1      34.940 -15.737 -22.593  0.00  0.00    +0.056 C 
ATOM     15  C   UNL     1      34.871 -18.050 -23.263  0.00  0.00    +0.182 C 
ATOM     16  C   UNL     1      34.469 -16.372 -24.897  0.00  0.00    +0.019 C 
ATOM     17  C   UNL     1      34.581 -17.726 -24.572  0.00  0.00    +0.042 C 
ATOM     18  C   UNL     1      35.301 -19.010 -21.391  0.00  0.00    +0.589 C 
ENDBRANCH   3  12
BRANCH   5  20
ATOM     19  N   UNL     1      32.632  -6.823 -23.765  0.00  0.00    -0.242 NA
ATOM     20  C   UNL     1      33.035  -9.581 -23.561  0.00  0.00    +0.050 C 
ATOM     21  C   UNL     1      34.125  -8.720 -23.631  0.00  0.00    +0.025 C 
ATOM     22  C   UNL     1      31.745  -9.065 -23.592  0.00  0.00    +0.025 C 
ATOM     23  C   UNL     1      33.872  -7.362 -23.732  0.00  0.00    +0.099 C 
ATOM     24  C   UNL     1      31.599  -7.691 -23.693  0.00  0.00    +0.099 C 
ENDBRANCH   5  20
BRANCH   1  25
ATOM     25  C   UNL     1      31.680 -11.425 -21.517  0.00  0.00    +0.129 C 
BRANCH  25  26
ATOM     26  C   UNL     1      32.353 -10.728 -20.335  0.00  0.00    +0.109 C 
BRANCH  26  29
ATOM     27  O   UNL     1      30.388  -9.950 -19.203  0.00  0.00    -0.275 OA
ATOM     28  N   UNL     1      31.962  -8.343 -19.771  0.00  0.00    -0.276 N 
ATOM     29  C   UNL     1      31.470  -9.652 -19.716  0.00  0.00    +0.228 C 
ATOM     30  C   UNL     1      33.246  -8.014 -20.384  0.00  0.00    +0.115 C 
ATOM     31  C   UNL     1      31.229  -7.209 -19.222  0.00  0.00    +0.115 C 
ENDBRANCH  26  29
ENDBRANCH  25  26
ENDBRANCH   1  25
TORSDOF 5
ENDMDL
MODEL 5
REMARK VINA RESULT:     -11.2      4.569      8.178
REMARK  Name = 16755766
REMARK  5 active torsions:
REMARK  status: ('A' for Active; 'I' for Inactive)
REMARK    1  A    between atoms: N_1  and  C_25
REMARK    2  A    between atoms: N_3  and  C_12
REMARK    3  A    between atoms: C_5  and  C_20
REMARK    4  A    between atoms: C_25  and  C_26
REMARK    5  A    between atoms: C_26  and  C_29
REMARK                            x       y       z     vdW  Elec       q    Type
REMARK                         _______ _______ _______ _____ _____    ______ ____
ROOT
ATOM      1  N   UNL     1      35.076 -22.071 -18.403  0.00  0.00    -0.174 N 
ATOM      2  N   UNL     1      35.526 -22.672 -17.300  0.00  0.00    -0.096 NA
ATOM      3  N   UNL     1      37.710 -22.507 -16.327  0.00  0.00    -0.246 N 
ATOM      4  N   UNL     1      37.125 -21.365 -18.284  0.00  0.00    -0.319 NA
ATOM      5  C   UNL     1      36.017 -21.298 -18.987  0.00  0.00    +0.216 C 
ATOM      6  C   UNL     1      36.778 -22.210 -17.270  0.00  0.00    +0.165 C 
ATOM      7  H   UNL     1      38.603 -22.140 -16.521  0.00  0.00    +0.165 HD
ENDROOT
BRANCH   3  12
ATOM      8  F   UNL     1      36.535 -23.995  -9.922  0.00  0.00    -0.125 F 
ATOM      9  F   UNL     1      35.198 -25.440 -10.876  0.00  0.00    -0.125 F 
ATOM     10  O   UNL     1      35.744 -23.547 -11.999  0.00  0.00    -0.395 OA
ATOM     11  O   UNL     1      37.347 -25.305 -11.586  0.00  0.00    -0.395 OA
ATOM     12  C   UNL     1      37.644 -23.248 -15.114  0.00  0.00    +0.061 C 
ATOM     13  C   UNL     1      36.631 -23.692 -13.023  0.00  0.00    +0.183 C 
ATOM     14  C   UNL     1      36.654 -22.946 -14.184  0.00  0.00    +0.056 C 
ATOM     15  C   UNL     1      37.545 -24.695 -12.787  0.00  0.00    +0.182 C 
ATOM     16  C   UNL     1      38.578 -24.266 -14.883  0.00  0.00    +0.019 C 
ATOM     17  C   UNL     1      38.532 -25.006 -13.699  0.00  0.00    +0.042 C 
ATOM     18  C   UNL     1      36.212 -24.569 -11.108  0.00  0.00    +0.589 C 
ENDBRANCH   3  12
BRANCH   5  20
ATOM     19  N   UNL     1      35.422 -19.055 -22.532  0.00  0.00    -0.242 NA
ATOM     20  C   UNL     1      35.814 -20.536 -20.195  0.00  0.00    +0.050 C 
ATOM     21  C   UNL     1      34.575 -20.545 -20.826  0.00  0.00    +0.025 C 
ATOM     22  C   UNL     1      36.856 -19.788 -20.730  0.00  0.00    +0.025 C 
ATOM     23  C   UNL     1      34.432 -19.794 -21.982  0.00  0.00    +0.099 C 
ATOM     24  C   UNL     1      36.611 -19.072 -21.890  0.00  0.00    +0.099 C 
ENDBRANCH   5  20
BRANCH   1  25
ATOM     25  C   UNL     1      33.705 -22.306 -18.841  0.00  0.00    +0.129 C 
BRANCH  25  26
ATOM     26  C   UNL     1      33.030 -23.423 -18.047  0.00  0.00    +0.109 C 
BRANCH  26  29
ATOM     27  O   UNL     1      31.006 -22.249 -17.528  0.00  0.00    -0.275 OA
ATOM     28  N   UNL     1      32.142 -23.196 -15.742  0.00  0.00    -0.276 N 
ATOM     29  C   UNL     1      31.963 -22.898 -17.096  0.00  0.00    +0.228 C 
ATOM     30  C   UNL     1      33.283 -23.967 -15.252  0.00  0.00    +0.115 C 
ATOM     31  C   UNL     1      31.204 -22.760 -14.715  0.00  0.00    +0.115 C 
ENDBRANCH  26  29
ENDBRANCH  25  26
ENDBRANCH   1  25
TORSDOF 5
ENDMDL
MODEL 6
REMARK VINA RESULT:     -11.0      1.269      2.052
REMARK  Name = 16755766
REMARK  5 active torsions:
REMARK  status: ('A' for Active; 'I' for Inactive)
REMARK    1  A    between atoms: N_1  and  C_25
REMARK    2  A    between atoms: N_3  and  C_12
REMARK    3  A    between atoms: C_5  and  C_20
REMARK    4  A    between atoms: C_25  and  C_26
REMARK    5  A    between atoms: C_26  and  C_29
REMARK                            x       y       z     vdW  Elec       q    Type
REMARK                         _______ _______ _______ _____ _____    ______ ____
ROOT
ATOM      1  N   UNL     1      34.844 -22.835 -17.433  0.00  0.00    -0.174 N 
ATOM      2  N   UNL     1      35.037 -22.006 -18.460  0.00  0.00    -0.096 NA
ATOM      3  N   UNL     1      36.974 -20.674 -18.928  0.00  0.00    -0.246 N 
ATOM      4  N   UNL     1      36.839 -22.068 -17.053  0.00  0.00    -0.319 NA
ATOM      5  C   UNL     1      35.907 -22.874 -16.600  0.00  0.00    +0.216 C 
ATOM      6  C   UNL     1      36.266 -21.564 -18.184  0.00  0.00    +0.165 C 
ATOM      7  H   UNL     1      37.828 -20.404 -18.519  0.00  0.00    +0.165 HD
ENDROOT
BRANCH   3  12
ATOM      8  F   UNL     1      34.611 -19.724 -25.103  0.00  0.00    -0.125 F 
ATOM      9  F   UNL     1      33.635 -18.051 -24.086  0.00  0.00    -0.125 F 
ATOM     10  O   UNL     1      34.238 -19.869 -22.872  0.00  0.00    -0.395 OA
ATOM     11  O   UNL     1      35.864 -18.349 -23.807  0.00  0.00    -0.395 OA
ATOM     12  C   UNL     1      36.718 -20.058 -20.185  0.00  0.00    +0.061 C 
ATOM     13  C   UNL     1      35.330 -19.720 -22.071  0.00  0.00    +0.183 C 
ATOM     14  C   UNL     1      35.533 -20.341 -20.855  0.00  0.00    +0.056 C 
ATOM     15  C   UNL     1      36.257 -18.852 -22.605  0.00  0.00    +0.182 C 
ATOM     16  C   UNL     1      37.668 -19.177 -20.720  0.00  0.00    +0.019 C 
ATOM     17  C   UNL     1      37.437 -18.560 -21.952  0.00  0.00    +0.042 C 
ATOM     18  C   UNL     1      34.595 -19.000 -23.956  0.00  0.00    +0.589 C 
ENDBRANCH   3  12
BRANCH   5  20
ATOM     19  N   UNL     1      36.111 -25.239 -13.090  0.00  0.00    -0.242 NA
ATOM     20  C   UNL     1      35.977 -23.678 -15.404  0.00  0.00    +0.050 C 
ATOM     21  C   UNL     1      35.511 -23.174 -14.195  0.00  0.00    +0.025 C 
ATOM     22  C   UNL     1      36.509 -24.961 -15.457  0.00  0.00    +0.025 C 
ATOM     23  C   UNL     1      35.600 -23.987 -13.077  0.00  0.00    +0.099 C 
ATOM     24  C   UNL     1      36.553 -25.694 -14.283  0.00  0.00    +0.099 C 
ENDBRANCH   5  20
BRANCH   1  25
ATOM     25  C   UNL     1      33.583 -23.556 -17.318  0.00  0.00    +0.129 C 
BRANCH  25  26
ATOM     26  C   UNL     1      32.706 -23.007 -16.193  0.00  0.00    +0.109 C 
BRANCH  26  29
ATOM     27  O   UNL     1      30.733 -22.373 -17.397  0.00  0.00    -0.275 OA
ATOM     28  N   UNL     1      30.476 -24.013 -15.777  0.00  0.00    -0.276 N 
ATOM     29  C   UNL     1      31.221 -23.091 -16.520  0.00  0.00    +0.228 C 
ATOM     30  C   UNL     1      31.076 -24.853 -14.743  0.00  0.00    +0.115 C 
ATOM     31  C   UNL     1      29.045 -24.203 -15.976  0.00  0.00    +0.115 C 
ENDBRANCH  26  29
ENDBRANCH  25  26
ENDBRANCH   1  25
TORSDOF 5
ENDMDL
MODEL 7
REMARK VINA RESULT:     -10.7      5.881     10.912
REMARK  Name = 16755766
REMARK  5 active torsions:
REMARK  status: ('A' for Active; 'I' for Inactive)
REMARK    1  A    between atoms: N_1  and  C_25
REMARK    2  A    between atoms: N_3  and  C_12
REMARK    3  A    between atoms: C_5  and  C_20
REMARK    4  A    between atoms: C_25  and  C_26
REMARK    5  A    between atoms: C_26  and  C_29
REMARK                            x       y       z     vdW  Elec       q    Type
REMARK                         _______ _______ _______ _____ _____    ______ ____
ROOT
ATOM      1  N   UNL     1      34.337 -15.815 -22.176  0.00  0.00    -0.174 N 
ATOM      2  N   UNL     1      34.448 -16.971 -21.519  0.00  0.00    -0.096 NA
ATOM      3  N   UNL     1      34.576 -19.178 -22.444  0.00  0.00    -0.246 N 
ATOM      4  N   UNL     1      34.378 -17.271 -23.785  0.00  0.00    -0.319 NA
ATOM      5  C   UNL     1      34.295 -15.988 -23.514  0.00  0.00    +0.216 C 
ATOM      6  C   UNL     1      34.470 -17.827 -22.543  0.00  0.00    +0.165 C 
ATOM      7  H   UNL     1      34.487 -19.648 -23.305  0.00  0.00    +0.165 HD
ENDROOT
BRANCH   3  12
ATOM      8  F   UNL     1      33.469 -22.540 -16.779  0.00  0.00    -0.125 F 
ATOM      9  F   UNL     1      33.742 -24.225 -18.147  0.00  0.00    -0.125 F 
ATOM     10  O   UNL     1      33.041 -22.238 -18.985  0.00  0.00    -0.395 OA
ATOM     11  O   UNL     1      35.281 -22.561 -18.142  0.00  0.00    -0.395 OA
ATOM     12  C   UNL     1      34.792 -20.044 -21.336  0.00  0.00    +0.061 C 
ATOM     13  C   UNL     1      33.967 -21.521 -19.682  0.00  0.00    +0.183 C 
ATOM     14  C   UNL     1      33.707 -20.692 -20.755  0.00  0.00    +0.056 C 
ATOM     15  C   UNL     1      35.244 -21.706 -19.201  0.00  0.00    +0.182 C 
ATOM     16  C   UNL     1      36.095 -20.225 -20.853  0.00  0.00    +0.019 C 
ATOM     17  C   UNL     1      36.331 -21.071 -19.766  0.00  0.00    +0.042 C 
ATOM     18  C   UNL     1      33.888 -22.882 -18.023  0.00  0.00    +0.589 C 
ENDBRANCH   3  12
BRANCH   5  20
ATOM     19  N   UNL     1      33.929 -12.839 -26.326  0.00  0.00    -0.242 NA
ATOM     20  C   UNL     1      34.172 -14.917 -24.473  0.00  0.00    +0.050 C 
ATOM     21  C   UNL     1      33.636 -15.165 -25.732  0.00  0.00    +0.025 C 
ATOM     22  C   UNL     1      34.585 -13.633 -24.139  0.00  0.00    +0.025 C 
ATOM     23  C   UNL     1      33.538 -14.101 -26.614  0.00  0.00    +0.099 C 
ATOM     24  C   UNL     1      34.444 -12.638 -25.093  0.00  0.00    +0.099 C 
ENDBRANCH   5  20
BRANCH   1  25
ATOM     25  C   UNL     1      34.266 -14.566 -21.426  0.00  0.00    +0.129 C 
BRANCH  25  26
ATOM     26  C   UNL     1      32.840 -14.244 -20.981  0.00  0.00    +0.109 C 
BRANCH  26  29
ATOM     27  O   UNL     1      31.914 -13.441 -23.040  0.00  0.00    -0.275 OA
ATOM     28  N   UNL     1      31.905 -11.962 -21.253  0.00  0.00    -0.276 N 
ATOM     29  C   UNL     1      32.180 -13.192 -21.861  0.00  0.00    +0.228 C 
ATOM     30  C   UNL     1      32.228 -11.689 -19.855  0.00  0.00    +0.115 C 
ATOM     31  C   UNL     1      31.277 -10.859 -21.970  0.00  0.00    +0.115 C 
ENDBRANCH  26  29
ENDBRANCH  25  26
ENDBRANCH   1  25
TORSDOF 5
ENDMDL
MODEL 8
REMARK VINA RESULT:     -10.5      4.989      7.249
REMARK  Name = 16755766
REMARK  5 active torsions:
REMARK  status: ('A' for Active; 'I' for Inactive)
REMARK    1  A    between atoms: N_1  and  C_25
REMARK    2  A    between atoms: N_3  and  C_12
REMARK    3  A    between atoms: C_5  and  C_20
REMARK    4  A    between atoms: C_25  and  C_26
REMARK    5  A    between atoms: C_26  and  C_29
REMARK                            x       y       z     vdW  Elec       q    Type
REMARK                         _______ _______ _______ _____ _____    ______ ____
ROOT
ATOM      1  N   UNL     1      34.462 -23.561 -14.724  0.00  0.00    -0.174 N 
ATOM      2  N   UNL     1      33.215 -23.616 -15.197  0.00  0.00    -0.096 NA
ATOM      3  N   UNL     1      31.275 -24.518 -14.117  0.00  0.00    -0.246 N 
ATOM      4  N   UNL     1      33.385 -24.525 -13.105  0.00  0.00    -0.319 NA
ATOM      5  C   UNL     1      34.566 -24.097 -13.489  0.00  0.00    +0.216 C 
ATOM      6  C   UNL     1      32.597 -24.211 -14.174  0.00  0.00    +0.165 C 
ATOM      7  H   UNL     1      31.021 -25.033 -13.317  0.00  0.00    +0.165 HD
ENDROOT
BRANCH   3  12
ATOM      8  F   UNL     1      25.590 -21.896 -16.446  0.00  0.00    -0.125 F 
ATOM      9  F   UNL     1      26.986 -21.097 -17.929  0.00  0.00    -0.125 F 
ATOM     10  O   UNL     1      27.767 -21.635 -15.870  0.00  0.00    -0.395 OA
ATOM     11  O   UNL     1      27.048 -23.311 -17.452  0.00  0.00    -0.395 OA
ATOM     12  C   UNL     1      30.188 -24.238 -14.991  0.00  0.00    +0.061 C 
ATOM     13  C   UNL     1      28.506 -22.777 -15.788  0.00  0.00    +0.183 C 
ATOM     14  C   UNL     1      29.556 -23.001 -14.920  0.00  0.00    +0.056 C 
ATOM     15  C   UNL     1      28.096 -23.733 -16.691  0.00  0.00    +0.182 C 
ATOM     16  C   UNL     1      29.777 -25.217 -15.906  0.00  0.00    +0.019 C 
ATOM     17  C   UNL     1      28.712 -24.964 -16.775  0.00  0.00    +0.042 C 
ATOM     18  C   UNL     1      26.858 -21.993 -16.920  0.00  0.00    +0.589 C 
ENDBRANCH   3  12
BRANCH   5  20
ATOM     19  N   UNL     1      38.173 -24.336 -11.279  0.00  0.00    -0.242 NA
ATOM     20  C   UNL     1      35.793 -24.179 -12.735  0.00  0.00    +0.050 C 
ATOM     21  C   UNL     1      36.276 -25.415 -12.319  0.00  0.00    +0.025 C 
ATOM     22  C   UNL     1      36.499 -23.022 -12.425  0.00  0.00    +0.025 C 
ATOM     23  C   UNL     1      37.460 -25.439 -11.600  0.00  0.00    +0.099 C 
ATOM     24  C   UNL     1      37.673 -23.153 -11.701  0.00  0.00    +0.099 C 
ENDBRANCH   5  20
BRANCH   1  25
ATOM     25  C   UNL     1      35.516 -22.975 -15.543  0.00  0.00    +0.129 C 
BRANCH  25  26
ATOM     26  C   UNL     1      36.438 -24.038 -16.141  0.00  0.00    +0.109 C 
BRANCH  26  29
ATOM     27  O   UNL     1      38.450 -22.900 -15.508  0.00  0.00    -0.275 OA
ATOM     28  N   UNL     1      38.388 -25.186 -15.125  0.00  0.00    -0.276 N 
ATOM     29  C   UNL     1      37.847 -23.974 -15.567  0.00  0.00    +0.228 C 
ATOM     30  C   UNL     1      37.655 -26.448 -15.204  0.00  0.00    +0.115 C 
ATOM     31  C   UNL     1      39.725 -25.282 -14.554  0.00  0.00    +0.115 C 
ENDBRANCH  26  29
ENDBRANCH  25  26
ENDBRANCH   1  25
TORSDOF 5
ENDMDL
MODEL 9
REMARK VINA RESULT:     -10.3      7.165     11.080
REMARK  Name = 16755766
REMARK  5 active torsions:
REMARK  status: ('A' for Active; 'I' for Inactive)
REMARK    1  A    between atoms: N_1  and  C_25
REMARK    2  A    between atoms: N_3  and  C_12
REMARK    3  A    between atoms: C_5  and  C_20
REMARK    4  A    between atoms: C_25  and  C_26
REMARK    5  A    between atoms: C_26  and  C_29
REMARK                            x       y       z     vdW  Elec       q    Type
REMARK                         _______ _______ _______ _____ _____    ______ ____
ROOT
ATOM      1  N   UNL     1      34.241 -15.904 -22.662  0.00  0.00    -0.174 N 
ATOM      2  N   UNL     1      33.687 -14.697 -22.539  0.00  0.00    -0.096 NA
ATOM      3  N   UNL     1      32.969 -13.610 -20.528  0.00  0.00    -0.246 N 
ATOM      4  N   UNL     1      33.917 -15.750 -20.522  0.00  0.00    -0.319 NA
ATOM      5  C   UNL     1      34.378 -16.529 -21.473  0.00  0.00    +0.216 C 
ATOM      6  C   UNL     1      33.509 -14.648 -21.217  0.00  0.00    +0.165 C 
ATOM      7  H   UNL     1      32.840 -13.794 -19.569  0.00  0.00    +0.165 HD
ENDROOT
BRANCH   3  12
ATOM      8  F   UNL     1      32.884  -7.725 -23.686  0.00  0.00    -0.125 F 
ATOM      9  F   UNL     1      30.995  -8.550 -24.417  0.00  0.00    -0.125 F 
ATOM     10  O   UNL     1      32.625  -9.976 -23.747  0.00  0.00    -0.395 OA
ATOM     11  O   UNL     1      31.413  -8.584 -22.190  0.00  0.00    -0.395 OA
ATOM     12  C   UNL     1      32.553 -12.308 -20.925  0.00  0.00    +0.061 C 
ATOM     13  C   UNL     1      32.429 -10.589 -22.546  0.00  0.00    +0.183 C 
ATOM     14  C   UNL     1      32.852 -11.859 -22.207  0.00  0.00    +0.056 C 
ATOM     15  C   UNL     1      31.737  -9.794 -21.658  0.00  0.00    +0.182 C 
ATOM     16  C   UNL     1      31.851 -11.507 -20.015  0.00  0.00    +0.019 C 
ATOM     17  C   UNL     1      31.432 -10.226 -20.384  0.00  0.00    +0.042 C 
ATOM     18  C   UNL     1      31.980  -8.719 -23.501  0.00  0.00    +0.589 C 
ENDBRANCH   3  12
BRANCH   5  20
ATOM     19  N   UNL     1      36.023 -20.401 -20.968  0.00  0.00    -0.242 NA
ATOM     20  C   UNL     1      34.939 -17.847 -21.303  0.00  0.00    +0.050 C 
ATOM     21  C   UNL     1      36.318 -18.017 -21.243  0.00  0.00    +0.025 C 
ATOM     22  C   UNL     1      34.102 -18.952 -21.195  0.00  0.00    +0.025 C 
ATOM     23  C   UNL     1      36.805 -19.303 -21.076  0.00  0.00    +0.099 C 
ATOM     24  C   UNL     1      34.689 -20.196 -21.031  0.00  0.00    +0.099 C 
ENDBRANCH   5  20
BRANCH   1  25
ATOM     25  C   UNL     1      34.606 -16.397 -23.985  0.00  0.00    +0.129 C 
BRANCH  25  26
ATOM     26  C   UNL     1      34.965 -15.261 -24.943  0.00  0.00    +0.109 C 
BRANCH  26  29
ATOM     27  O   UNL     1      33.414 -15.991 -26.619  0.00  0.00    -0.275 OA
ATOM     28  N   UNL     1      33.513 -13.708 -26.221  0.00  0.00    -0.276 N 
ATOM     29  C   UNL     1      33.896 -15.036 -26.004  0.00  0.00    +0.228 C 
ATOM     30  C   UNL     1      34.097 -12.592 -25.481  0.00  0.00    +0.115 C 
ATOM     31  C   UNL     1      32.503 -13.337 -27.205  0.00  0.00    +0.115 C 
ENDBRANCH  26  29
ENDBRANCH  25  26
ENDBRANCH   1  25
TORSDOF 5
ENDMDL
