MODEL 1
REMARK VINA RESULT:     -13.7      0.000      0.000
REMARK  Name = 15602701
REMARK  5 active torsions:
REMARK  status: ('A' for Active; 'I' for Inactive)
REMARK    1  A    between atoms: N_5  and  C_12
REMARK    2  A    between atoms: C_6  and  C_22
REMARK    3  A    between atoms: C_13  and  C_21
REMARK    4  A    between atoms: C_22  and  C_23
REMARK    5  A    between atoms: C_23  and  N_24
REMARK                            x       y       z     vdW  Elec       q    Type
REMARK                         _______ _______ _______ _____ _____    ______ ____
ROOT
ATOM      1  S   UNL     1      36.679 -20.631 -19.868  0.00  0.00    -0.056 S 
ATOM      2  O   UNL     1      35.379 -23.453 -16.418  0.00  0.00    -0.252 OA
ATOM      3  N   UNL     1      34.695 -21.939 -18.851  0.00  0.00    -0.223 NA
ATOM      4  N   UNL     1      36.812 -22.116 -17.713  0.00  0.00    -0.248 N 
ATOM      5  N   UNL     1      37.628 -23.199 -15.838  0.00  0.00    -0.268 N 
ATOM      6  C   UNL     1      35.163 -20.545 -20.627  0.00  0.00    +0.031 C 
ATOM      7  C   UNL     1      34.231 -21.282 -19.973  0.00  0.00    +0.103 C 
ATOM      8  C   UNL     1      35.972 -21.669 -18.698  0.00  0.00    +0.166 C 
ATOM      9  C   UNL     1      36.489 -22.976 -16.629  0.00  0.00    +0.310 C 
ATOM     10  H   UNL     1      37.746 -21.806 -17.761  0.00  0.00    +0.158 HD
ATOM     11  H   UNL     1      38.453 -22.748 -16.132  0.00  0.00    +0.156 HD
ENDROOT
BRANCH   5  12
ATOM     12  C   UNL     1      37.737 -23.991 -14.670  0.00  0.00    +0.052 C 
ATOM     13  C   UNL     1      37.003 -24.519 -12.448  0.00  0.00    +0.073 C 
ATOM     14  C   UNL     1      36.896 -23.738 -13.599  0.00  0.00    +0.019 C 
ATOM     15  C   UNL     1      38.680 -25.004 -14.624  0.00  0.00    +0.015 C 
ATOM     16  C   UNL     1      37.947 -25.544 -12.385  0.00  0.00    +0.004 C 
ATOM     17  C   UNL     1      38.787 -25.786 -13.473  0.00  0.00    +0.001 C 
BRANCH  13  21
ATOM     18  F   UNL     1      35.652 -25.399 -10.680  0.00  0.00    -0.166 F 
ATOM     19  F   UNL     1      36.697 -23.540 -10.287  0.00  0.00    -0.166 F 
ATOM     20  F   UNL     1      34.987 -23.560 -11.630  0.00  0.00    -0.166 F 
ATOM     21  C   UNL     1      36.105 -24.261 -11.285  0.00  0.00    +0.419 C 
ENDBRANCH  13  21
ENDBRANCH   5  12
BRANCH   6  22
ATOM     22  C   UNL     1      35.000 -19.709 -21.875  0.00  0.00    +0.056 C 
BRANCH  22  23
ATOM     23  C   UNL     1      36.064 -18.618 -21.996  0.00  0.00    +0.093 C 
BRANCH  23  24
ATOM     24  N   UNL     1      35.463 -17.331 -22.184  0.00  0.00    -0.320 N 
ATOM     25  N   UNL     1      34.153 -14.598 -22.734  0.00  0.00    -0.220 N 
ATOM     26  N   UNL     1      33.568 -13.541 -23.329  0.00  0.00    -0.178 NA
ATOM     27  N   UNL     1      35.112 -17.661 -24.526  0.00  0.00    -0.232 NA
ATOM     28  N   UNL     1      34.076 -15.969 -25.943  0.00  0.00    -0.245 NA
ATOM     29  C   UNL     1      34.424 -15.629 -23.585  0.00  0.00    +0.185 C 
ATOM     30  C   UNL     1      35.000 -16.877 -23.431  0.00  0.00    +0.128 C 
ATOM     31  C   UNL     1      33.979 -15.209 -24.828  0.00  0.00    +0.103 C 
ATOM     32  C   UNL     1      33.464 -13.920 -24.608  0.00  0.00    +0.134 C 
ATOM     33  C   UNL     1      34.424 -14.535 -21.317  0.00  0.00    +0.135 C 
ATOM     34  C   UNL     1      34.650 -17.166 -25.699  0.00  0.00    +0.251 C 
ATOM     35  H   UNL     1      35.369 -16.739 -21.404  0.00  0.00    +0.148 HD
ENDBRANCH  23  24
ENDBRANCH  22  23
ENDBRANCH   6  22
TORSDOF 5
ENDMDL
MODEL 2
REMARK VINA RESULT:     -13.5      5.243     11.771
REMARK  Name = 15602701
REMARK  5 active torsions:
REMARK  status: ('A' for Active; 'I' for Inactive)
REMARK    1  A    between atoms: N_5  and  C_12
REMARK    2  A    between atoms: C_6  and  C_22
REMARK    3  A    between atoms: C_13  and  C_21
REMARK    4  A    between atoms: C_22  and  C_23
REMARK    5  A    between atoms: C_23  and  N_24
REMARK                            x       y       z     vdW  Elec       q    Type
REMARK                         _______ _______ _______ _____ _____    ______ ____
ROOT
ATOM      1  S   UNL     1      34.300 -23.164 -16.812  0.00  0.00    -0.056 S 
ATOM      2  O   UNL     1      32.654 -20.731 -20.408  0.00  0.00    -0.252 OA
ATOM      3  N   UNL     1      32.155 -22.432 -18.055  0.00  0.00    -0.223 NA
ATOM      4  N   UNL     1      34.250 -21.650 -18.951  0.00  0.00    -0.248 N 
ATOM      5  N   UNL     1      34.934 -20.340 -20.732  0.00  0.00    -0.268 N 
ATOM      6  C   UNL     1      32.794 -23.683 -16.227  0.00  0.00    +0.031 C 
ATOM      7  C   UNL     1      31.771 -23.218 -16.986  0.00  0.00    +0.103 C 
ATOM      8  C   UNL     1      33.465 -22.335 -18.062  0.00  0.00    +0.166 C 
ATOM      9  C   UNL     1      33.822 -20.887 -20.071  0.00  0.00    +0.310 C 
ATOM     10  H   UNL     1      35.223 -21.690 -18.797  0.00  0.00    +0.158 HD
ATOM     11  H   UNL     1      35.814 -20.553 -20.345  0.00  0.00    +0.156 HD
ENDROOT
BRANCH   5  12
ATOM     12  C   UNL     1      34.945 -19.522 -21.887  0.00  0.00    +0.052 C 
ATOM     13  C   UNL     1      34.874 -17.340 -22.882  0.00  0.00    +0.073 C 
ATOM     14  C   UNL     1      34.862 -18.146 -21.743  0.00  0.00    +0.019 C 
ATOM     15  C   UNL     1      35.042 -20.113 -23.135  0.00  0.00    +0.015 C 
ATOM     16  C   UNL     1      34.971 -17.919 -24.147  0.00  0.00    +0.004 C 
ATOM     17  C   UNL     1      35.054 -19.306 -24.273  0.00  0.00    +0.001 C 
BRANCH  13  21
ATOM     18  F   UNL     1      33.529 -15.362 -22.952  0.00  0.00    -0.166 F 
ATOM     19  F   UNL     1      35.151 -15.398 -21.513  0.00  0.00    -0.166 F 
ATOM     20  F   UNL     1      35.588 -15.200 -23.634  0.00  0.00    -0.166 F 
ATOM     21  C   UNL     1      34.786 -15.857 -22.746  0.00  0.00    +0.419 C 
ENDBRANCH  13  21
ENDBRANCH   5  12
BRANCH   6  22
ATOM     22  C   UNL     1      32.734 -24.561 -14.998  0.00  0.00    +0.056 C 
BRANCH  22  23
ATOM     23  C   UNL     1      33.788 -24.188 -13.957  0.00  0.00    +0.093 C 
BRANCH  23  24
ATOM     24  N   UNL     1      35.026 -24.865 -14.211  0.00  0.00    -0.320 N 
ATOM     25  N   UNL     1      37.751 -26.227 -14.661  0.00  0.00    -0.220 N 
ATOM     26  N   UNL     1      39.056 -26.557 -14.610  0.00  0.00    -0.178 NA
ATOM     27  N   UNL     1      36.278 -23.470 -12.728  0.00  0.00    -0.232 NA
ATOM     28  N   UNL     1      38.672 -23.761 -12.370  0.00  0.00    -0.245 NA
ATOM     29  C   UNL     1      37.417 -25.172 -13.864  0.00  0.00    +0.185 C 
ATOM     30  C   UNL     1      36.237 -24.502 -13.600  0.00  0.00    +0.128 C 
ATOM     31  C   UNL     1      38.597 -24.789 -13.247  0.00  0.00    +0.103 C 
ATOM     32  C   UNL     1      39.568 -25.675 -13.744  0.00  0.00    +0.134 C 
ATOM     33  C   UNL     1      36.876 -26.991 -15.520  0.00  0.00    +0.135 C 
ATOM     34  C   UNL     1      37.476 -23.167 -12.174  0.00  0.00    +0.251 C 
ATOM     35  H   UNL     1      35.026 -25.620 -14.843  0.00  0.00    +0.148 HD
ENDBRANCH  23  24
ENDBRANCH  22  23
ENDBRANCH   6  22
TORSDOF 5
ENDMDL
MODEL 3
REMARK VINA RESULT:     -13.3      0.814      1.967
REMARK  Name = 15602701
REMARK  5 active torsions:
REMARK  status: ('A' for Active; 'I' for Inactive)
REMARK    1  A    between atoms: N_5  and  C_12
REMARK    2  A    between atoms: C_6  and  C_22
REMARK    3  A    between atoms: C_13  and  C_21
REMARK    4  A    between atoms: C_22  and  C_23
REMARK    5  A    between atoms: C_23  and  N_24
REMARK                            x       y       z     vdW  Elec       q    Type
REMARK                         _______ _______ _______ _____ _____    ______ ____
ROOT
ATOM      1  S   UNL     1      36.437 -20.602 -20.151  0.00  0.00    -0.056 S 
ATOM      2  O   UNL     1      35.342 -23.311 -16.542  0.00  0.00    -0.252 OA
ATOM      3  N   UNL     1      34.515 -21.869 -18.975  0.00  0.00    -0.223 NA
ATOM      4  N   UNL     1      36.697 -22.021 -17.963  0.00  0.00    -0.248 N 
ATOM      5  N   UNL     1      37.623 -23.048 -16.108  0.00  0.00    -0.268 N 
ATOM      6  C   UNL     1      34.878 -20.533 -20.819  0.00  0.00    +0.031 C 
ATOM      7  C   UNL     1      33.985 -21.245 -20.087  0.00  0.00    +0.103 C 
ATOM      8  C   UNL     1      35.800 -21.600 -18.909  0.00  0.00    +0.166 C 
ATOM      9  C   UNL     1      36.438 -22.845 -16.835  0.00  0.00    +0.310 C 
ATOM     10  H   UNL     1      37.627 -21.716 -18.077  0.00  0.00    +0.158 HD
ATOM     11  H   UNL     1      38.429 -22.610 -16.465  0.00  0.00    +0.156 HD
ENDROOT
BRANCH   5  12
ATOM     12  C   UNL     1      37.800 -23.804 -14.925  0.00  0.00    +0.052 C 
ATOM     13  C   UNL     1      37.116 -24.349 -12.690  0.00  0.00    +0.073 C 
ATOM     14  C   UNL     1      36.942 -23.602 -13.856  0.00  0.00    +0.019 C 
ATOM     15  C   UNL     1      38.826 -24.732 -14.861  0.00  0.00    +0.015 C 
ATOM     16  C   UNL     1      38.145 -25.287 -12.610  0.00  0.00    +0.004 C 
ATOM     17  C   UNL     1      39.001 -25.478 -13.695  0.00  0.00    +0.001 C 
BRANCH  13  21
ATOM     18  F   UNL     1      36.769 -23.449 -10.501  0.00  0.00    -0.166 F 
ATOM     19  F   UNL     1      35.066 -23.454 -11.844  0.00  0.00    -0.166 F 
ATOM     20  F   UNL     1      35.775 -25.321 -10.984  0.00  0.00    -0.166 F 
ATOM     21  C   UNL     1      36.202 -24.145 -11.530  0.00  0.00    +0.419 C 
ENDBRANCH  13  21
ENDBRANCH   5  12
BRANCH   6  22
ATOM     22  C   UNL     1      34.641 -19.735 -22.080  0.00  0.00    +0.056 C 
BRANCH  22  23
ATOM     23  C   UNL     1      35.697 -18.652 -22.298  0.00  0.00    +0.093 C 
BRANCH  23  24
ATOM     24  N   UNL     1      35.161 -17.553 -23.046  0.00  0.00    -0.320 N 
ATOM     25  N   UNL     1      33.991 -15.117 -24.524  0.00  0.00    -0.220 N 
ATOM     26  N   UNL     1      33.452 -13.918 -24.814  0.00  0.00    -0.178 NA
ATOM     27  N   UNL     1      34.766 -16.218 -21.103  0.00  0.00    -0.232 NA
ATOM     28  N   UNL     1      33.800 -13.982 -21.228  0.00  0.00    -0.245 NA
ATOM     29  C   UNL     1      34.196 -15.321 -23.191  0.00  0.00    +0.185 C 
ATOM     30  C   UNL     1      34.710 -16.366 -22.446  0.00  0.00    +0.128 C 
ATOM     31  C   UNL     1      33.758 -14.163 -22.569  0.00  0.00    +0.103 C 
ATOM     32  C   UNL     1      33.312 -13.339 -23.617  0.00  0.00    +0.134 C 
ATOM     33  C   UNL     1      34.283 -16.028 -25.606  0.00  0.00    +0.135 C 
ATOM     34  C   UNL     1      34.314 -15.051 -20.584  0.00  0.00    +0.251 C 
ATOM     35  H   UNL     1      35.108 -17.634 -24.026  0.00  0.00    +0.148 HD
ENDBRANCH  23  24
ENDBRANCH  22  23
ENDBRANCH   6  22
TORSDOF 5
ENDMDL
MODEL 4
REMARK VINA RESULT:     -13.2      2.202      3.105
REMARK  Name = 15602701
REMARK  5 active torsions:
REMARK  status: ('A' for Active; 'I' for Inactive)
REMARK    1  A    between atoms: N_5  and  C_12
REMARK    2  A    between atoms: C_6  and  C_22
REMARK    3  A    between atoms: C_13  and  C_21
REMARK    4  A    between atoms: C_22  and  C_23
REMARK    5  A    between atoms: C_23  and  N_24
REMARK                            x       y       z     vdW  Elec       q    Type
REMARK                         _______ _______ _______ _____ _____    ______ ____
ROOT
ATOM      1  S   UNL     1      34.571 -21.156 -20.610  0.00  0.00    -0.056 S 
ATOM      2  O   UNL     1      37.643 -21.485 -17.144  0.00  0.00    -0.252 OA
ATOM      3  N   UNL     1      36.811 -20.254 -19.688  0.00  0.00    -0.223 NA
ATOM      4  N   UNL     1      35.702 -21.949 -18.383  0.00  0.00    -0.248 N 
ATOM      5  N   UNL     1      36.103 -23.077 -16.403  0.00  0.00    -0.268 N 
ATOM      6  C   UNL     1      35.398 -19.960 -21.486  0.00  0.00    +0.031 C 
ATOM      7  C   UNL     1      36.552 -19.595 -20.874  0.00  0.00    +0.103 C 
ATOM      8  C   UNL     1      35.835 -21.101 -19.450  0.00  0.00    +0.166 C 
ATOM      9  C   UNL     1      36.596 -22.106 -17.290  0.00  0.00    +0.310 C 
ATOM     10  H   UNL     1      34.896 -22.516 -18.372  0.00  0.00    +0.158 HD
ATOM     11  H   UNL     1      35.246 -23.494 -16.652  0.00  0.00    +0.156 HD
ENDROOT
BRANCH   5  12
ATOM     12  C   UNL     1      36.685 -23.531 -15.195  0.00  0.00    +0.052 C 
ATOM     13  C   UNL     1      38.467 -24.655 -14.047  0.00  0.00    +0.073 C 
ATOM     14  C   UNL     1      37.893 -24.208 -15.238  0.00  0.00    +0.019 C 
ATOM     15  C   UNL     1      36.037 -23.286 -13.996  0.00  0.00    +0.015 C 
ATOM     16  C   UNL     1      37.827 -24.416 -12.831  0.00  0.00    +0.004 C 
ATOM     17  C   UNL     1      36.611 -23.732 -12.806  0.00  0.00    +0.001 C 
BRANCH  13  21
ATOM     18  F   UNL     1      40.806 -24.674 -13.542  0.00  0.00    -0.166 F 
ATOM     19  F   UNL     1      39.748 -26.560 -13.378  0.00  0.00    -0.166 F 
ATOM     20  F   UNL     1      40.159 -25.714 -15.339  0.00  0.00    -0.166 F 
ATOM     21  C   UNL     1      39.767 -25.385 -14.073  0.00  0.00    +0.419 C 
ENDBRANCH  13  21
ENDBRANCH   5  12
BRANCH   6  22
ATOM     22  C   UNL     1      34.814 -19.448 -22.782  0.00  0.00    +0.056 C 
BRANCH  22  23
ATOM     23  C   UNL     1      35.736 -18.457 -23.492  0.00  0.00    +0.093 C 
BRANCH  23  24
ATOM     24  N   UNL     1      35.016 -17.290 -23.909  0.00  0.00    -0.320 N 
ATOM     25  N   UNL     1      33.474 -14.733 -24.663  0.00  0.00    -0.220 N 
ATOM     26  N   UNL     1      32.842 -13.544 -24.621  0.00  0.00    -0.178 NA
ATOM     27  N   UNL     1      34.988 -16.330 -21.719  0.00  0.00    -0.232 NA
ATOM     28  N   UNL     1      33.937 -14.182 -21.248  0.00  0.00    -0.245 NA
ATOM     29  C   UNL     1      33.961 -15.141 -23.456  0.00  0.00    +0.185 C 
ATOM     30  C   UNL     1      34.657 -16.256 -23.028  0.00  0.00    +0.128 C 
ATOM     31  C   UNL     1      33.621 -14.138 -22.563  0.00  0.00    +0.103 C 
ATOM     32  C   UNL     1      32.935 -13.185 -23.336  0.00  0.00    +0.134 C 
ATOM     33  C   UNL     1      33.565 -15.427 -25.927  0.00  0.00    +0.135 C 
ATOM     34  C   UNL     1      34.613 -15.303 -20.921  0.00  0.00    +0.251 C 
ATOM     35  H   UNL     1      34.761 -17.210 -24.856  0.00  0.00    +0.148 HD
ENDBRANCH  23  24
ENDBRANCH  22  23
ENDBRANCH   6  22
TORSDOF 5
ENDMDL
MODEL 5
REMARK VINA RESULT:     -13.1      2.165      2.651
REMARK  Name = 15602701
REMARK  5 active torsions:
REMARK  status: ('A' for Active; 'I' for Inactive)
REMARK    1  A    between atoms: N_5  and  C_12
REMARK    2  A    between atoms: C_6  and  C_22
REMARK    3  A    between atoms: C_13  and  C_21
REMARK    4  A    between atoms: C_22  and  C_23
REMARK    5  A    between atoms: C_23  and  N_24
REMARK                            x       y       z     vdW  Elec       q    Type
REMARK                         _______ _______ _______ _____ _____    ______ ____
ROOT
ATOM      1  S   UNL     1      34.543 -21.118 -20.630  0.00  0.00    -0.056 S 
ATOM      2  O   UNL     1      37.635 -21.500 -17.187  0.00  0.00    -0.252 OA
ATOM      3  N   UNL     1      36.810 -20.262 -19.730  0.00  0.00    -0.223 NA
ATOM      4  N   UNL     1      35.674 -21.927 -18.409  0.00  0.00    -0.248 N 
ATOM      5  N   UNL     1      36.066 -23.056 -16.428  0.00  0.00    -0.268 N 
ATOM      6  C   UNL     1      35.389 -19.943 -21.518  0.00  0.00    +0.031 C 
ATOM      7  C   UNL     1      36.555 -19.602 -20.916  0.00  0.00    +0.103 C 
ATOM      8  C   UNL     1      35.817 -21.085 -19.481  0.00  0.00    +0.166 C 
ATOM      9  C   UNL     1      36.573 -22.099 -17.323  0.00  0.00    +0.310 C 
ATOM     10  H   UNL     1      34.856 -22.476 -18.390  0.00  0.00    +0.158 HD
ATOM     11  H   UNL     1      35.198 -23.455 -16.668  0.00  0.00    +0.156 HD
ENDROOT
BRANCH   5  12
ATOM     12  C   UNL     1      36.648 -23.517 -15.223  0.00  0.00    +0.052 C 
ATOM     13  C   UNL     1      38.428 -24.651 -14.082  0.00  0.00    +0.073 C 
ATOM     14  C   UNL     1      37.855 -24.196 -15.270  0.00  0.00    +0.019 C 
ATOM     15  C   UNL     1      36.000 -23.279 -14.023  0.00  0.00    +0.015 C 
ATOM     16  C   UNL     1      37.789 -24.418 -12.864  0.00  0.00    +0.004 C 
ATOM     17  C   UNL     1      36.574 -23.733 -12.835  0.00  0.00    +0.001 C 
BRANCH  13  21
ATOM     18  F   UNL     1      40.776 -24.660 -13.618  0.00  0.00    -0.166 F 
ATOM     19  F   UNL     1      39.720 -26.540 -13.389  0.00  0.00    -0.166 F 
ATOM     20  F   UNL     1      40.097 -25.744 -15.377  0.00  0.00    -0.166 F 
ATOM     21  C   UNL     1      39.728 -25.383 -14.113  0.00  0.00    +0.419 C 
ENDBRANCH  13  21
ENDBRANCH   5  12
BRANCH   6  22
ATOM     22  C   UNL     1      34.806 -19.423 -22.812  0.00  0.00    +0.056 C 
BRANCH  22  23
ATOM     23  C   UNL     1      35.617 -18.269 -23.400  0.00  0.00    +0.093 C 
BRANCH  23  24
ATOM     24  N   UNL     1      35.086 -17.004 -22.988  0.00  0.00    -0.320 N 
ATOM     25  N   UNL     1      33.895 -14.263 -22.242  0.00  0.00    -0.220 N 
ATOM     26  N   UNL     1      33.280 -13.066 -22.285  0.00  0.00    -0.178 NA
ATOM     27  N   UNL     1      34.241 -16.472 -25.160  0.00  0.00    -0.232 NA
ATOM     28  N   UNL     1      33.064 -14.389 -25.630  0.00  0.00    -0.245 NA
ATOM     29  C   UNL     1      33.911 -14.918 -23.439  0.00  0.00    +0.185 C 
ATOM     30  C   UNL     1      34.413 -16.134 -23.862  0.00  0.00    +0.128 C 
ATOM     31  C   UNL     1      33.253 -14.081 -24.326  0.00  0.00    +0.103 C 
ATOM     32  C   UNL     1      32.889 -12.960 -23.560  0.00  0.00    +0.134 C 
ATOM     33  C   UNL     1      34.455 -14.711 -20.988  0.00  0.00    +0.135 C 
ATOM     34  C   UNL     1      33.586 -15.591 -25.953  0.00  0.00    +0.251 C 
ATOM     35  H   UNL     1      35.198 -16.732 -22.049  0.00  0.00    +0.148 HD
ENDBRANCH  23  24
ENDBRANCH  22  23
ENDBRANCH   6  22
TORSDOF 5
ENDMDL
MODEL 6
REMARK VINA RESULT:     -12.3      4.037      4.845
REMARK  Name = 15602701
REMARK  5 active torsions:
REMARK  status: ('A' for Active; 'I' for Inactive)
REMARK    1  A    between atoms: N_5  and  C_12
REMARK    2  A    between atoms: C_6  and  C_22
REMARK    3  A    between atoms: C_13  and  C_21
REMARK    4  A    between atoms: C_22  and  C_23
REMARK    5  A    between atoms: C_23  and  N_24
REMARK                            x       y       z     vdW  Elec       q    Type
REMARK                         _______ _______ _______ _____ _____    ______ ____
ROOT
ATOM      1  S   UNL     1      34.402 -19.766 -21.651  0.00  0.00    -0.056 S 
ATOM      2  O   UNL     1      34.654 -22.352 -17.803  0.00  0.00    -0.252 OA
ATOM      3  N   UNL     1      36.009 -20.812 -19.917  0.00  0.00    -0.223 NA
ATOM      4  N   UNL     1      33.655 -21.213 -19.597  0.00  0.00    -0.248 N 
ATOM      5  N   UNL     1      32.334 -22.349 -18.075  0.00  0.00    -0.268 N 
ATOM      6  C   UNL     1      36.072 -19.516 -21.824  0.00  0.00    +0.031 C 
ATOM      7  C   UNL     1      36.777 -20.128 -20.840  0.00  0.00    +0.103 C 
ATOM      8  C   UNL     1      34.743 -20.690 -20.245  0.00  0.00    +0.166 C 
ATOM      9  C   UNL     1      33.652 -22.011 -18.422  0.00  0.00    +0.310 C 
ATOM     10  H   UNL     1      32.774 -21.015 -19.992  0.00  0.00    +0.158 HD
ATOM     11  H   UNL     1      31.629 -22.003 -18.668  0.00  0.00    +0.156 HD
ENDROOT
BRANCH   5  12
ATOM     12  C   UNL     1      31.894 -23.127 -16.978  0.00  0.00    +0.052 C 
ATOM     13  C   UNL     1      30.118 -24.221 -15.791  0.00  0.00    +0.073 C 
ATOM     14  C   UNL     1      30.551 -23.453 -16.872  0.00  0.00    +0.019 C 
ATOM     15  C   UNL     1      32.815 -23.549 -16.033  0.00  0.00    +0.015 C 
ATOM     16  C   UNL     1      31.033 -24.654 -14.831  0.00  0.00    +0.004 C 
ATOM     17  C   UNL     1      32.382 -24.317 -14.952  0.00  0.00    +0.001 C 
BRANCH  13  21
ATOM     18  F   UNL     1      27.868 -23.516 -15.386  0.00  0.00    -0.166 F 
ATOM     19  F   UNL     1      28.151 -25.145 -16.790  0.00  0.00    -0.166 F 
ATOM     20  F   UNL     1      28.448 -25.483 -14.662  0.00  0.00    -0.166 F 
ATOM     21  C   UNL     1      28.677 -24.582 -15.662  0.00  0.00    +0.419 C 
ENDBRANCH  13  21
ENDBRANCH   5  12
BRANCH   6  22
ATOM     22  C   UNL     1      36.587 -18.694 -22.982  0.00  0.00    +0.056 C 
BRANCH  22  23
ATOM     23  C   UNL     1      35.464 -18.165 -23.873  0.00  0.00    +0.093 C 
BRANCH  23  24
ATOM     24  N   UNL     1      34.944 -16.929 -23.367  0.00  0.00    -0.320 N 
ATOM     25  N   UNL     1      33.775 -14.242 -22.417  0.00  0.00    -0.220 N 
ATOM     26  N   UNL     1      33.172 -13.039 -22.370  0.00  0.00    -0.178 NA
ATOM     27  N   UNL     1      34.114 -16.223 -25.495  0.00  0.00    -0.232 NA
ATOM     28  N   UNL     1      32.959 -14.099 -25.808  0.00  0.00    -0.245 NA
ATOM     29  C   UNL     1      33.790 -14.803 -23.660  0.00  0.00    +0.185 C 
ATOM     30  C   UNL     1      34.283 -15.988 -24.174  0.00  0.00    +0.128 C 
ATOM     31  C   UNL     1      33.144 -13.895 -24.483  0.00  0.00    +0.103 C 
ATOM     32  C   UNL     1      32.788 -12.832 -23.635  0.00  0.00    +0.134 C 
ATOM     33  C   UNL     1      34.324 -14.791 -21.199  0.00  0.00    +0.135 C 
ATOM     34  C   UNL     1      33.471 -15.278 -26.220  0.00  0.00    +0.251 C 
ATOM     35  H   UNL     1      35.053 -16.731 -22.409  0.00  0.00    +0.148 HD
ENDBRANCH  23  24
ENDBRANCH  22  23
ENDBRANCH   6  22
TORSDOF 5
ENDMDL
MODEL 7
REMARK VINA RESULT:     -12.3      7.908     13.609
REMARK  Name = 15602701
REMARK  5 active torsions:
REMARK  status: ('A' for Active; 'I' for Inactive)
REMARK    1  A    between atoms: N_5  and  C_12
REMARK    2  A    between atoms: C_6  and  C_22
REMARK    3  A    between atoms: C_13  and  C_21
REMARK    4  A    between atoms: C_22  and  C_23
REMARK    5  A    between atoms: C_23  and  N_24
REMARK                            x       y       z     vdW  Elec       q    Type
REMARK                         _______ _______ _______ _____ _____    ______ ____
ROOT
ATOM      1  S   UNL     1      34.862 -16.022 -22.572  0.00  0.00    -0.056 S 
ATOM      2  O   UNL     1      33.677 -12.268 -25.036  0.00  0.00    -0.252 OA
ATOM      3  N   UNL     1      34.532 -15.087 -24.960  0.00  0.00    -0.223 NA
ATOM      4  N   UNL     1      34.107 -13.575 -23.132  0.00  0.00    -0.248 N 
ATOM      5  N   UNL     1      33.444 -11.371 -22.892  0.00  0.00    -0.268 N 
ATOM      6  C   UNL     1      35.145 -17.041 -23.900  0.00  0.00    +0.031 C 
ATOM      7  C   UNL     1      34.931 -16.404 -25.078  0.00  0.00    +0.103 C 
ATOM      8  C   UNL     1      34.462 -14.777 -23.685  0.00  0.00    +0.166 C 
ATOM      9  C   UNL     1      33.735 -12.387 -23.817  0.00  0.00    +0.310 C 
ATOM     10  H   UNL     1      34.111 -13.528 -22.148  0.00  0.00    +0.158 HD
ATOM     11  H   UNL     1      33.535 -11.613 -21.942  0.00  0.00    +0.156 HD
ENDROOT
BRANCH   5  12
ATOM     12  C   UNL     1      33.036 -10.042 -23.157  0.00  0.00    +0.052 C 
ATOM     13  C   UNL     1      33.576  -7.803 -23.831  0.00  0.00    +0.073 C 
ATOM     14  C   UNL     1      33.978  -9.113 -23.570  0.00  0.00    +0.019 C 
ATOM     15  C   UNL     1      31.704  -9.697 -23.000  0.00  0.00    +0.015 C 
ATOM     16  C   UNL     1      32.238  -7.440 -23.678  0.00  0.00    +0.004 C 
ATOM     17  C   UNL     1      31.302  -8.387 -23.261  0.00  0.00    +0.001 C 
BRANCH  13  21
ATOM     18  F   UNL     1      35.673  -6.710 -23.466  0.00  0.00    -0.166 F 
ATOM     19  F   UNL     1      35.074  -7.028 -25.527  0.00  0.00    -0.166 F 
ATOM     20  F   UNL     1      34.061  -5.528 -24.322  0.00  0.00    -0.166 F 
ATOM     21  C   UNL     1      34.577  -6.791 -24.277  0.00  0.00    +0.419 C 
ENDBRANCH  13  21
ENDBRANCH   5  12
BRANCH   6  22
ATOM     22  C   UNL     1      35.584 -18.467 -23.664  0.00  0.00    +0.056 C 
BRANCH  22  23
ATOM     23  C   UNL     1      36.056 -18.709 -22.231  0.00  0.00    +0.093 C 
BRANCH  23  24
ATOM     24  N   UNL     1      35.114 -19.509 -21.507  0.00  0.00    -0.320 N 
ATOM     25  N   UNL     1      33.202 -21.285 -19.869  0.00  0.00    -0.220 N 
ATOM     26  N   UNL     1      32.693 -22.168 -18.989  0.00  0.00    -0.178 NA
ATOM     27  N   UNL     1      36.789 -20.528 -20.140  0.00  0.00    -0.232 NA
ATOM     28  N   UNL     1      36.252 -22.180 -18.428  0.00  0.00    -0.245 NA
ATOM     29  C   UNL     1      34.558 -21.157 -19.800  0.00  0.00    +0.185 C 
ATOM     30  C   UNL     1      35.488 -20.396 -20.483  0.00  0.00    +0.128 C 
ATOM     31  C   UNL     1      34.960 -22.024 -18.796  0.00  0.00    +0.103 C 
ATOM     32  C   UNL     1      33.771 -22.616 -18.336  0.00  0.00    +0.134 C 
ATOM     33  C   UNL     1      32.299 -20.593 -20.760  0.00  0.00    +0.135 C 
ATOM     34  C   UNL     1      37.087 -21.400 -19.147  0.00  0.00    +0.251 C 
ATOM     35  H   UNL     1      34.159 -19.434 -21.736  0.00  0.00    +0.148 HD
ENDBRANCH  23  24
ENDBRANCH  22  23
ENDBRANCH   6  22
TORSDOF 5
ENDMDL
MODEL 8
REMARK VINA RESULT:     -12.3      1.530      2.143
REMARK  Name = 15602701
REMARK  5 active torsions:
REMARK  status: ('A' for Active; 'I' for Inactive)
REMARK    1  A    between atoms: N_5  and  C_12
REMARK    2  A    between atoms: C_6  and  C_22
REMARK    3  A    between atoms: C_13  and  C_21
REMARK    4  A    between atoms: C_22  and  C_23
REMARK    5  A    between atoms: C_23  and  N_24
REMARK                            x       y       z     vdW  Elec       q    Type
REMARK                         _______ _______ _______ _____ _____    ______ ____
ROOT
ATOM      1  S   UNL     1      36.469 -19.447 -20.931  0.00  0.00    -0.056 S 
ATOM      2  O   UNL     1      35.296 -22.646 -17.775  0.00  0.00    -0.252 OA
ATOM      3  N   UNL     1      34.583 -21.022 -20.128  0.00  0.00    -0.223 NA
ATOM      4  N   UNL     1      36.646 -21.075 -18.884  0.00  0.00    -0.248 N 
ATOM      5  N   UNL     1      37.474 -22.214 -17.048  0.00  0.00    -0.268 N 
ATOM      6  C   UNL     1      34.993 -19.454 -21.768  0.00  0.00    +0.031 C 
ATOM      7  C   UNL     1      34.110 -20.329 -21.225  0.00  0.00    +0.103 C 
ATOM      8  C   UNL     1      35.815 -20.639 -19.882  0.00  0.00    +0.166 C 
ATOM      9  C   UNL     1      36.360 -22.045 -17.886  0.00  0.00    +0.310 C 
ATOM     10  H   UNL     1      37.544 -20.671 -18.855  0.00  0.00    +0.158 HD
ATOM     11  H   UNL     1      38.261 -21.661 -17.259  0.00  0.00    +0.156 HD
ENDROOT
BRANCH   5  12
ATOM     12  C   UNL     1      37.605 -23.080 -15.937  0.00  0.00    +0.052 C 
ATOM     13  C   UNL     1      36.735 -23.961 -13.881  0.00  0.00    +0.073 C 
ATOM     14  C   UNL     1      36.607 -23.107 -14.976  0.00  0.00    +0.019 C 
ATOM     15  C   UNL     1      38.727 -23.885 -15.833  0.00  0.00    +0.015 C 
ATOM     16  C   UNL     1      37.860 -24.778 -13.761  0.00  0.00    +0.004 C 
ATOM     17  C   UNL     1      38.856 -24.739 -14.737  0.00  0.00    +0.001 C 
BRANCH  13  21
ATOM     18  F   UNL     1      34.434 -23.654 -13.303  0.00  0.00    -0.166 F 
ATOM     19  F   UNL     1      35.504 -25.237 -12.276  0.00  0.00    -0.166 F 
ATOM     20  F   UNL     1      35.921 -23.157 -11.796  0.00  0.00    -0.166 F 
ATOM     21  C   UNL     1      35.670 -24.003 -12.838  0.00  0.00    +0.419 C 
ENDBRANCH  13  21
ENDBRANCH   5  12
BRANCH   6  22
ATOM     22  C   UNL     1      34.807 -18.544 -22.960  0.00  0.00    +0.056 C 
BRANCH  22  23
ATOM     23  C   UNL     1      35.504 -17.195 -22.784  0.00  0.00    +0.093 C 
BRANCH  23  24
ATOM     24  N   UNL     1      34.600 -16.213 -22.262  0.00  0.00    -0.320 N 
ATOM     25  N   UNL     1      32.673 -14.024 -21.269  0.00  0.00    -0.220 N 
ATOM     26  N   UNL     1      31.915 -12.915 -21.173  0.00  0.00    -0.178 NA
ATOM     27  N   UNL     1      34.739 -14.823 -24.203  0.00  0.00    -0.232 NA
ATOM     28  N   UNL     1      33.506 -12.729 -24.401  0.00  0.00    -0.245 NA
ATOM     29  C   UNL     1      33.360 -14.123 -22.443  0.00  0.00    +0.185 C 
ATOM     30  C   UNL     1      34.234 -15.056 -22.970  0.00  0.00    +0.128 C 
ATOM     31  C   UNL     1      33.019 -12.991 -23.166  0.00  0.00    +0.103 C 
ATOM     32  C   UNL     1      32.130 -12.288 -22.335  0.00  0.00    +0.134 C 
ATOM     33  C   UNL     1      32.683 -14.956 -20.165  0.00  0.00    +0.135 C 
ATOM     34  C   UNL     1      34.349 -13.690 -24.833  0.00  0.00    +0.251 C 
ATOM     35  H   UNL     1      34.217 -16.356 -21.367  0.00  0.00    +0.148 HD
ENDBRANCH  23  24
ENDBRANCH  22  23
ENDBRANCH   6  22
TORSDOF 5
ENDMDL
MODEL 9
REMARK VINA RESULT:     -12.2      7.884     11.913
REMARK  Name = 15602701
REMARK  5 active torsions:
REMARK  status: ('A' for Active; 'I' for Inactive)
REMARK    1  A    between atoms: N_5  and  C_12
REMARK    2  A    between atoms: C_6  and  C_22
REMARK    3  A    between atoms: C_13  and  C_21
REMARK    4  A    between atoms: C_22  and  C_23
REMARK    5  A    between atoms: C_23  and  N_24
REMARK                            x       y       z     vdW  Elec       q    Type
REMARK                         _______ _______ _______ _____ _____    ______ ____
ROOT
ATOM      1  S   UNL     1      32.961  -9.918 -23.316  0.00  0.00    -0.056 S 
ATOM      2  O   UNL     1      32.777 -14.430 -22.235  0.00  0.00    -0.252 OA
ATOM      3  N   UNL     1      31.903 -11.662 -21.729  0.00  0.00    -0.223 NA
ATOM      4  N   UNL     1      33.437 -12.494 -23.391  0.00  0.00    -0.248 N 
ATOM      5  N   UNL     1      34.291 -14.553 -24.010  0.00  0.00    -0.268 N 
ATOM      6  C   UNL     1      31.872  -9.390 -22.126  0.00  0.00    +0.031 C 
ATOM      7  C   UNL     1      31.408 -10.422 -21.377  0.00  0.00    +0.103 C 
ATOM      8  C   UNL     1      32.731 -11.518 -22.739  0.00  0.00    +0.166 C 
ATOM      9  C   UNL     1      33.433 -13.888 -23.118  0.00  0.00    +0.310 C 
ATOM     10  H   UNL     1      34.014 -12.196 -24.132  0.00  0.00    +0.158 HD
ATOM     11  H   UNL     1      34.754 -13.986 -24.668  0.00  0.00    +0.156 HD
ENDROOT
BRANCH   5  12
ATOM     12  C   UNL     1      34.573 -15.938 -24.079  0.00  0.00    +0.052 C 
ATOM     13  C   UNL     1      35.571 -17.901 -23.125  0.00  0.00    +0.073 C 
ATOM     14  C   UNL     1      35.294 -16.535 -23.057  0.00  0.00    +0.019 C 
ATOM     15  C   UNL     1      34.120 -16.669 -25.165  0.00  0.00    +0.015 C 
ATOM     16  C   UNL     1      35.122 -18.651 -24.212  0.00  0.00    +0.004 C 
ATOM     17  C   UNL     1      34.397 -18.035 -25.232  0.00  0.00    +0.001 C 
BRANCH  13  21
ATOM     18  F   UNL     1      36.331 -17.868 -20.857  0.00  0.00    -0.166 F 
ATOM     19  F   UNL     1      35.890 -19.808 -21.718  0.00  0.00    -0.166 F 
ATOM     20  F   UNL     1      37.664 -18.720 -22.349  0.00  0.00    -0.166 F 
ATOM     21  C   UNL     1      36.345 -18.560 -22.034  0.00  0.00    +0.419 C 
ENDBRANCH  13  21
ENDBRANCH   5  12
BRANCH   6  22
ATOM     22  C   UNL     1      31.543  -7.920 -22.014  0.00  0.00    +0.056 C 
BRANCH  22  23
ATOM     23  C   UNL     1      32.759  -7.025 -22.253  0.00  0.00    +0.093 C 
BRANCH  23  24
ATOM     24  N   UNL     1      32.475  -6.023 -23.238  0.00  0.00    -0.320 N 
ATOM     25  N   UNL     1      31.991  -3.911 -25.427  0.00  0.00    -0.220 N 
ATOM     26  N   UNL     1      32.105  -3.131 -26.518  0.00  0.00    -0.178 NA
ATOM     27  N   UNL     1      34.429  -6.510 -24.526  0.00  0.00    -0.232 NA
ATOM     28  N   UNL     1      34.978  -5.306 -26.574  0.00  0.00    -0.245 NA
ATOM     29  C   UNL     1      33.007  -4.810 -25.282  0.00  0.00    +0.185 C 
ATOM     30  C   UNL     1      33.303  -5.784 -24.347  0.00  0.00    +0.128 C 
ATOM     31  C   UNL     1      33.844  -4.597 -26.365  0.00  0.00    +0.103 C 
ATOM     32  C   UNL     1      33.239  -3.553 -27.088  0.00  0.00    +0.134 C 
ATOM     33  C   UNL     1      30.854  -3.725 -24.556  0.00  0.00    +0.135 C 
ATOM     34  C   UNL     1      35.187  -6.231 -25.613  0.00  0.00    +0.251 C 
ATOM     35  H   UNL     1      31.662  -5.479 -23.132  0.00  0.00    +0.148 HD
ENDBRANCH  23  24
ENDBRANCH  22  23
ENDBRANCH   6  22
TORSDOF 5
ENDMDL
