MODEL 1
REMARK VINA RESULT:     -13.7      0.000      0.000
REMARK  Name = 51039095
REMARK  7 active torsions:
REMARK  status: ('A' for Active; 'I' for Inactive)
REMARK    1  A    between atoms: C_5  and  C_16
REMARK    2  A    between atoms: C_6  and  C_27
REMARK    3  A    between atoms: C_11  and  N_17
REMARK    4  A    between atoms: C_27  and  C_28
REMARK    5  A    between atoms: C_28  and  C_29
REMARK    6  A    between atoms: C_32  and  O_35
REMARK    7  A    between atoms: C_33  and  O_37
REMARK                            x       y       z     vdW  Elec       q    Type
REMARK                         _______ _______ _______ _____ _____    ______ ____
ROOT
ATOM      1  O   UNL     1      34.042 -21.505 -20.020  0.00  0.00    -0.270 OA
ATOM      2  N   UNL     1      36.107 -20.411 -20.225  0.00  0.00    -0.265 N 
ATOM      3  N   UNL     1      36.376 -18.440 -23.071  0.00  0.00    -0.239 N 
ATOM      4  N   UNL     1      36.927 -18.916 -21.941  0.00  0.00    -0.166 NA
ATOM      5  C   UNL     1      35.180 -21.251 -19.594  0.00  0.00    +0.251 C 
ATOM      6  C   UNL     1      35.105 -18.885 -23.294  0.00  0.00    +0.046 C 
ATOM      7  C   UNL     1      35.963 -19.691 -21.437  0.00  0.00    +0.153 C 
ATOM      8  C   UNL     1      34.806 -19.710 -22.238  0.00  0.00    +0.048 C 
ATOM      9  H   UNL     1      36.972 -20.307 -19.767  0.00  0.00    +0.157 HD
ATOM     10  H   UNL     1      36.845 -17.826 -23.680  0.00  0.00    +0.174 HD
ENDROOT
BRANCH   5  16
ATOM     11  C   UNL     1      36.488 -23.080 -15.994  0.00  0.00    +0.048 C 
ATOM     12  C   UNL     1      35.173 -23.252 -16.426  0.00  0.00    +0.015 C 
ATOM     13  C   UNL     1      37.375 -22.308 -16.746  0.00  0.00    +0.015 C 
ATOM     14  C   UNL     1      34.743 -22.651 -17.609  0.00  0.00    +0.006 C 
ATOM     15  C   UNL     1      36.944 -21.707 -17.929  0.00  0.00    +0.006 C 
ATOM     16  C   UNL     1      35.629 -21.879 -18.361  0.00  0.00    +0.054 C 
BRANCH  11  17
ATOM     17  N   UNL     1      36.921 -23.682 -14.808  0.00  0.00    -0.312 N 
ATOM     18  N   UNL     1      37.726 -25.112 -12.477  0.00  0.00    +0.389 N 
ATOM     19  C   UNL     1      36.742 -24.029 -12.373  0.00  0.00    -0.042 C 
ATOM     20  C   UNL     1      38.699 -24.826 -13.536  0.00  0.00    -0.042 C 
ATOM     21  C   UNL     1      35.980 -23.855 -13.695  0.00  0.00    +0.069 C 
ATOM     22  C   UNL     1      37.996 -24.679 -14.893  0.00  0.00    +0.069 C 
ATOM     23  C   UNL     1      39.731 -25.951 -13.583  0.00  0.00    -0.022 C 
ATOM     24  C   UNL     1      35.773 -24.341 -11.233  0.00  0.00    -0.022 C 
ATOM     25  H   UNL     1      37.241 -25.984 -12.693  0.00  0.00    -0.084 HD
ATOM     26  H   UNL     1      38.220 -25.194 -11.589  0.00  0.00    -0.084 HD
ENDBRANCH  11  17
ENDBRANCH   5  16
BRANCH   6  27
ATOM     27  C   UNL     1      34.329 -18.479 -24.476  0.00  0.00    +0.047 C 
BRANCH  27  28
ATOM     28  C   UNL     1      34.913 -17.271 -25.252  0.00  0.00    +0.033 C 
BRANCH  28  29
ATOM     29  C   UNL     1      34.383 -15.945 -24.762  0.00  0.00    -0.016 C 
ATOM     30  C   UNL     1      33.948 -14.986 -25.677  0.00  0.00    +0.033 C 
ATOM     31  C   UNL     1      34.327 -15.680 -23.395  0.00  0.00    +0.033 C 
ATOM     32  C   UNL     1      33.838 -14.455 -22.940  0.00  0.00    +0.141 C 
ATOM     33  C   UNL     1      33.458 -13.762 -25.224  0.00  0.00    +0.141 C 
ATOM     34  C   UNL     1      33.403 -13.496 -23.855  0.00  0.00    +0.074 C 
BRANCH  32  35
ATOM     35  O   UNL     1      33.783 -14.195 -21.605  0.00  0.00    -0.471 OA
ATOM     36  C   UNL     1      32.488 -14.007 -21.035  0.00  0.00    +0.252 C 
ENDBRANCH  32  35
BRANCH  33  37
ATOM     37  O   UNL     1      33.032 -12.826 -26.116  0.00  0.00    -0.471 OA
ATOM     38  C   UNL     1      32.917 -13.233 -27.479  0.00  0.00    +0.252 C 
ENDBRANCH  33  37
ENDBRANCH  28  29
ENDBRANCH  27  28
ENDBRANCH   6  27
TORSDOF 7
ENDMDL
MODEL 2
REMARK VINA RESULT:     -13.7      0.067      2.138
REMARK  Name = 51039095
REMARK  7 active torsions:
REMARK  status: ('A' for Active; 'I' for Inactive)
REMARK    1  A    between atoms: C_5  and  C_16
REMARK    2  A    between atoms: C_6  and  C_27
REMARK    3  A    between atoms: C_11  and  N_17
REMARK    4  A    between atoms: C_27  and  C_28
REMARK    5  A    between atoms: C_28  and  C_29
REMARK    6  A    between atoms: C_32  and  O_35
REMARK    7  A    between atoms: C_33  and  O_37
REMARK                            x       y       z     vdW  Elec       q    Type
REMARK                         _______ _______ _______ _____ _____    ______ ____
ROOT
ATOM      1  O   UNL     1      34.049 -21.513 -20.024  0.00  0.00    -0.270 OA
ATOM      2  N   UNL     1      36.112 -20.413 -20.223  0.00  0.00    -0.265 N 
ATOM      3  N   UNL     1      36.382 -18.439 -23.066  0.00  0.00    -0.239 N 
ATOM      4  N   UNL     1      36.932 -18.915 -21.936  0.00  0.00    -0.166 NA
ATOM      5  C   UNL     1      35.186 -21.257 -19.595  0.00  0.00    +0.251 C 
ATOM      6  C   UNL     1      35.113 -18.887 -23.293  0.00  0.00    +0.046 C 
ATOM      7  C   UNL     1      35.969 -19.693 -21.435  0.00  0.00    +0.153 C 
ATOM      8  C   UNL     1      34.814 -19.715 -22.238  0.00  0.00    +0.048 C 
ATOM      9  H   UNL     1      36.975 -20.307 -19.762  0.00  0.00    +0.157 HD
ATOM     10  H   UNL     1      36.851 -17.823 -23.673  0.00  0.00    +0.174 HD
ENDROOT
BRANCH   5  16
ATOM     11  C   UNL     1      36.490 -23.085 -15.993  0.00  0.00    +0.048 C 
ATOM     12  C   UNL     1      35.173 -23.250 -16.422  0.00  0.00    +0.015 C 
ATOM     13  C   UNL     1      37.380 -22.320 -16.748  0.00  0.00    +0.015 C 
ATOM     14  C   UNL     1      34.745 -22.650 -17.606  0.00  0.00    +0.006 C 
ATOM     15  C   UNL     1      36.950 -21.719 -17.932  0.00  0.00    +0.006 C 
ATOM     16  C   UNL     1      35.634 -21.884 -18.361  0.00  0.00    +0.054 C 
BRANCH  11  17
ATOM     17  N   UNL     1      36.922 -23.687 -14.806  0.00  0.00    -0.312 N 
ATOM     18  N   UNL     1      37.725 -25.116 -12.475  0.00  0.00    +0.389 N 
ATOM     19  C   UNL     1      36.737 -24.037 -12.372  0.00  0.00    -0.042 C 
ATOM     20  C   UNL     1      38.700 -24.825 -13.531  0.00  0.00    -0.042 C 
ATOM     21  C   UNL     1      35.978 -23.865 -13.696  0.00  0.00    +0.069 C 
ATOM     22  C   UNL     1      38.001 -24.680 -14.890  0.00  0.00    +0.069 C 
ATOM     23  C   UNL     1      39.736 -25.947 -13.576  0.00  0.00    -0.022 C 
ATOM     24  C   UNL     1      35.766 -24.354 -11.236  0.00  0.00    -0.022 C 
ATOM     25  H   UNL     1      37.245 -25.990 -12.694  0.00  0.00    -0.084 HD
ATOM     26  H   UNL     1      38.217 -25.197 -11.585  0.00  0.00    -0.084 HD
ENDBRANCH  11  17
ENDBRANCH   5  16
BRANCH   6  27
ATOM     27  C   UNL     1      34.339 -18.483 -24.477  0.00  0.00    +0.047 C 
BRANCH  27  28
ATOM     28  C   UNL     1      34.919 -17.270 -25.248  0.00  0.00    +0.033 C 
BRANCH  28  29
ATOM     29  C   UNL     1      34.385 -15.947 -24.751  0.00  0.00    -0.016 C 
ATOM     30  C   UNL     1      34.354 -15.676 -23.383  0.00  0.00    +0.033 C 
ATOM     31  C   UNL     1      33.926 -14.996 -25.661  0.00  0.00    +0.033 C 
ATOM     32  C   UNL     1      33.433 -13.773 -25.205  0.00  0.00    +0.141 C 
ATOM     33  C   UNL     1      33.862 -14.454 -22.926  0.00  0.00    +0.141 C 
ATOM     34  C   UNL     1      33.401 -13.502 -23.836  0.00  0.00    +0.074 C 
BRANCH  32  35
ATOM     35  O   UNL     1      32.985 -12.844 -26.093  0.00  0.00    -0.471 OA
ATOM     36  C   UNL     1      32.969 -13.218 -27.469  0.00  0.00    +0.252 C 
ENDBRANCH  32  35
BRANCH  33  37
ATOM     37  O   UNL     1      33.832 -14.188 -21.592  0.00  0.00    -0.471 OA
ATOM     38  C   UNL     1      32.580 -14.350 -20.926  0.00  0.00    +0.252 C 
ENDBRANCH  33  37
ENDBRANCH  28  29
ENDBRANCH  27  28
ENDBRANCH   6  27
TORSDOF 7
ENDMDL
MODEL 3
REMARK VINA RESULT:     -13.6      0.242      2.709
REMARK  Name = 51039095
REMARK  7 active torsions:
REMARK  status: ('A' for Active; 'I' for Inactive)
REMARK    1  A    between atoms: C_5  and  C_16
REMARK    2  A    between atoms: C_6  and  C_27
REMARK    3  A    between atoms: C_11  and  N_17
REMARK    4  A    between atoms: C_27  and  C_28
REMARK    5  A    between atoms: C_28  and  C_29
REMARK    6  A    between atoms: C_32  and  O_35
REMARK    7  A    between atoms: C_33  and  O_37
REMARK                            x       y       z     vdW  Elec       q    Type
REMARK                         _______ _______ _______ _____ _____    ______ ____
ROOT
ATOM      1  O   UNL     1      33.958 -21.497 -20.085  0.00  0.00    -0.270 OA
ATOM      2  N   UNL     1      36.039 -20.429 -20.274  0.00  0.00    -0.265 N 
ATOM      3  N   UNL     1      36.327 -18.404 -23.080  0.00  0.00    -0.239 N 
ATOM      4  N   UNL     1      36.874 -18.911 -21.962  0.00  0.00    -0.166 NA
ATOM      5  C   UNL     1      35.101 -21.269 -19.657  0.00  0.00    +0.251 C 
ATOM      6  C   UNL     1      35.050 -18.827 -23.309  0.00  0.00    +0.046 C 
ATOM      7  C   UNL     1      35.902 -19.683 -21.471  0.00  0.00    +0.153 C 
ATOM      8  C   UNL     1      34.741 -19.669 -22.268  0.00  0.00    +0.048 C 
ATOM      9  H   UNL     1      36.906 -20.346 -19.816  0.00  0.00    +0.157 HD
ATOM     10  H   UNL     1      36.803 -17.784 -23.678  0.00  0.00    +0.174 HD
ENDROOT
BRANCH   5  16
ATOM     11  C   UNL     1      36.399 -23.194 -16.105  0.00  0.00    +0.048 C 
ATOM     12  C   UNL     1      37.288 -22.405 -16.835  0.00  0.00    +0.015 C 
ATOM     13  C   UNL     1      35.083 -23.350 -16.540  0.00  0.00    +0.015 C 
ATOM     14  C   UNL     1      36.861 -21.773 -18.002  0.00  0.00    +0.006 C 
ATOM     15  C   UNL     1      34.657 -22.717 -17.708  0.00  0.00    +0.006 C 
ATOM     16  C   UNL     1      35.545 -21.928 -18.439  0.00  0.00    +0.054 C 
BRANCH  11  17
ATOM     17  N   UNL     1      36.826 -23.829 -14.933  0.00  0.00    -0.312 N 
ATOM     18  N   UNL     1      37.773 -24.915 -12.474  0.00  0.00    +0.389 N 
ATOM     19  C   UNL     1      38.308 -25.404 -13.749  0.00  0.00    -0.042 C 
ATOM     20  C   UNL     1      36.362 -24.539 -12.617  0.00  0.00    -0.042 C 
ATOM     21  C   UNL     1      38.204 -24.323 -14.834  0.00  0.00    +0.069 C 
ATOM     22  C   UNL     1      36.200 -23.430 -13.665  0.00  0.00    +0.069 C 
ATOM     23  C   UNL     1      35.828 -24.080 -11.261  0.00  0.00    -0.022 C 
ATOM     24  C   UNL     1      39.763 -25.827 -13.551  0.00  0.00    -0.022 C 
ATOM     25  H   UNL     1      38.308 -24.100 -12.176  0.00  0.00    -0.084 HD
ATOM     26  H   UNL     1      37.847 -25.659 -11.780  0.00  0.00    -0.084 HD
ENDBRANCH  11  17
ENDBRANCH   5  16
BRANCH   6  27
ATOM     27  C   UNL     1      34.276 -18.385 -24.480  0.00  0.00    +0.047 C 
BRANCH  27  28
ATOM     28  C   UNL     1      34.897 -17.198 -25.257  0.00  0.00    +0.033 C 
BRANCH  28  29
ATOM     29  C   UNL     1      34.390 -15.856 -24.785  0.00  0.00    -0.016 C 
ATOM     30  C   UNL     1      34.329 -15.573 -23.421  0.00  0.00    +0.033 C 
ATOM     31  C   UNL     1      33.986 -14.898 -25.714  0.00  0.00    +0.033 C 
ATOM     32  C   UNL     1      33.518 -13.658 -25.280  0.00  0.00    +0.141 C 
ATOM     33  C   UNL     1      33.863 -14.333 -22.986  0.00  0.00    +0.141 C 
ATOM     34  C   UNL     1      33.457 -13.375 -23.915  0.00  0.00    +0.074 C 
BRANCH  32  35
ATOM     35  O   UNL     1      33.123 -12.722 -26.186  0.00  0.00    -0.471 OA
ATOM     36  C   UNL     1      32.683 -13.197 -27.458  0.00  0.00    +0.252 C 
ENDBRANCH  32  35
BRANCH  33  37
ATOM     37  O   UNL     1      33.803 -14.056 -21.654  0.00  0.00    -0.471 OA
ATOM     38  C   UNL     1      32.506 -13.963 -21.068  0.00  0.00    +0.252 C 
ENDBRANCH  33  37
ENDBRANCH  28  29
ENDBRANCH  27  28
ENDBRANCH   6  27
TORSDOF 7
ENDMDL
MODEL 4
REMARK VINA RESULT:     -13.5      0.252      1.472
REMARK  Name = 51039095
REMARK  7 active torsions:
REMARK  status: ('A' for Active; 'I' for Inactive)
REMARK    1  A    between atoms: C_5  and  C_16
REMARK    2  A    between atoms: C_6  and  C_27
REMARK    3  A    between atoms: C_11  and  N_17
REMARK    4  A    between atoms: C_27  and  C_28
REMARK    5  A    between atoms: C_28  and  C_29
REMARK    6  A    between atoms: C_32  and  O_35
REMARK    7  A    between atoms: C_33  and  O_37
REMARK                            x       y       z     vdW  Elec       q    Type
REMARK                         _______ _______ _______ _____ _____    ______ ____
ROOT
ATOM      1  O   UNL     1      33.951 -21.501 -20.076  0.00  0.00    -0.270 OA
ATOM      2  N   UNL     1      36.037 -20.445 -20.270  0.00  0.00    -0.265 N 
ATOM      3  N   UNL     1      36.334 -18.427 -23.080  0.00  0.00    -0.239 N 
ATOM      4  N   UNL     1      36.880 -18.936 -21.962  0.00  0.00    -0.166 NA
ATOM      5  C   UNL     1      35.096 -21.279 -19.651  0.00  0.00    +0.251 C 
ATOM      6  C   UNL     1      35.053 -18.842 -23.306  0.00  0.00    +0.046 C 
ATOM      7  C   UNL     1      35.903 -19.700 -21.468  0.00  0.00    +0.153 C 
ATOM      8  C   UNL     1      34.742 -19.681 -22.264  0.00  0.00    +0.048 C 
ATOM      9  H   UNL     1      36.906 -20.367 -19.814  0.00  0.00    +0.157 HD
ATOM     10  H   UNL     1      36.813 -17.811 -23.680  0.00  0.00    +0.174 HD
ENDROOT
BRANCH   5  16
ATOM     11  C   UNL     1      36.382 -23.200 -16.091  0.00  0.00    +0.048 C 
ATOM     12  C   UNL     1      35.067 -23.353 -16.531  0.00  0.00    +0.015 C 
ATOM     13  C   UNL     1      37.276 -22.416 -16.822  0.00  0.00    +0.015 C 
ATOM     14  C   UNL     1      34.645 -22.722 -17.700  0.00  0.00    +0.006 C 
ATOM     15  C   UNL     1      36.852 -21.785 -17.992  0.00  0.00    +0.006 C 
ATOM     16  C   UNL     1      35.538 -21.938 -18.432  0.00  0.00    +0.054 C 
BRANCH  11  17
ATOM     17  N   UNL     1      36.808 -23.833 -14.918  0.00  0.00    -0.312 N 
ATOM     18  N   UNL     1      37.752 -24.915 -12.457  0.00  0.00    +0.389 N 
ATOM     19  C   UNL     1      38.287 -25.409 -13.730  0.00  0.00    -0.042 C 
ATOM     20  C   UNL     1      36.343 -24.536 -12.600  0.00  0.00    -0.042 C 
ATOM     21  C   UNL     1      38.185 -24.330 -14.819  0.00  0.00    +0.069 C 
ATOM     22  C   UNL     1      36.183 -23.429 -13.652  0.00  0.00    +0.069 C 
ATOM     23  C   UNL     1      35.810 -24.072 -11.245  0.00  0.00    -0.022 C 
ATOM     24  C   UNL     1      39.741 -25.834 -13.531  0.00  0.00    -0.022 C 
ATOM     25  H   UNL     1      38.290 -24.100 -12.161  0.00  0.00    -0.084 HD
ATOM     26  H   UNL     1      37.825 -25.657 -11.760  0.00  0.00    -0.084 HD
ENDBRANCH  11  17
ENDBRANCH   5  16
BRANCH   6  27
ATOM     27  C   UNL     1      34.280 -18.399 -24.477  0.00  0.00    +0.047 C 
BRANCH  27  28
ATOM     28  C   UNL     1      34.890 -17.195 -25.238  0.00  0.00    +0.033 C 
BRANCH  28  29
ATOM     29  C   UNL     1      34.353 -15.865 -24.763  0.00  0.00    -0.016 C 
ATOM     30  C   UNL     1      33.963 -14.899 -25.690  0.00  0.00    +0.033 C 
ATOM     31  C   UNL     1      34.246 -15.605 -23.398  0.00  0.00    +0.033 C 
ATOM     32  C   UNL     1      33.749 -14.378 -22.958  0.00  0.00    +0.141 C 
ATOM     33  C   UNL     1      33.466 -13.672 -25.251  0.00  0.00    +0.141 C 
ATOM     34  C   UNL     1      33.359 -13.411 -23.885  0.00  0.00    +0.074 C 
BRANCH  32  35
ATOM     35  O   UNL     1      33.644 -14.123 -21.625  0.00  0.00    -0.471 OA
ATOM     36  C   UNL     1      32.419 -13.551 -21.170  0.00  0.00    +0.252 C 
ENDBRANCH  32  35
BRANCH  33  37
ATOM     37  O   UNL     1      33.084 -12.729 -26.155  0.00  0.00    -0.471 OA
ATOM     38  C   UNL     1      32.747 -13.184 -27.465  0.00  0.00    +0.252 C 
ENDBRANCH  33  37
ENDBRANCH  28  29
ENDBRANCH  27  28
ENDBRANCH   6  27
TORSDOF 7
ENDMDL
MODEL 5
REMARK VINA RESULT:     -12.6      4.783     13.243
REMARK  Name = 51039095
REMARK  7 active torsions:
REMARK  status: ('A' for Active; 'I' for Inactive)
REMARK    1  A    between atoms: C_5  and  C_16
REMARK    2  A    between atoms: C_6  and  C_27
REMARK    3  A    between atoms: C_11  and  N_17
REMARK    4  A    between atoms: C_27  and  C_28
REMARK    5  A    between atoms: C_28  and  C_29
REMARK    6  A    between atoms: C_32  and  O_35
REMARK    7  A    between atoms: C_33  and  O_37
REMARK                            x       y       z     vdW  Elec       q    Type
REMARK                         _______ _______ _______ _____ _____    ______ ____
ROOT
ATOM      1  O   UNL     1      32.955 -14.348 -21.278  0.00  0.00    -0.270 OA
ATOM      2  N   UNL     1      34.233 -14.318 -23.246  0.00  0.00    -0.265 N 
ATOM      3  N   UNL     1      35.739 -17.358 -23.988  0.00  0.00    -0.239 N 
ATOM      4  N   UNL     1      35.517 -16.071 -24.308  0.00  0.00    -0.166 NA
ATOM      5  C   UNL     1      33.403 -13.750 -22.270  0.00  0.00    +0.251 C 
ATOM      6  C   UNL     1      35.118 -17.754 -22.839  0.00  0.00    +0.046 C 
ATOM      7  C   UNL     1      34.727 -15.644 -23.321  0.00  0.00    +0.153 C 
ATOM      8  C   UNL     1      34.445 -16.650 -22.376  0.00  0.00    +0.048 C 
ATOM      9  H   UNL     1      34.510 -13.718 -23.975  0.00  0.00    +0.157 HD
ATOM     10  H   UNL     1      36.296 -17.959 -24.533  0.00  0.00    +0.174 HD
ENDROOT
BRANCH   5  16
ATOM     11  C   UNL     1      32.470  -9.643 -22.796  0.00  0.00    +0.048 C 
ATOM     12  C   UNL     1      31.846 -10.376 -21.787  0.00  0.00    +0.015 C 
ATOM     13  C   UNL     1      33.401 -10.259 -23.633  0.00  0.00    +0.015 C 
ATOM     14  C   UNL     1      32.153 -11.726 -21.614  0.00  0.00    +0.006 C 
ATOM     15  C   UNL     1      33.708 -11.609 -23.459  0.00  0.00    +0.006 C 
ATOM     16  C   UNL     1      33.085 -12.342 -22.450  0.00  0.00    +0.054 C 
BRANCH  11  17
ATOM     17  N   UNL     1      32.163  -8.289 -22.971  0.00  0.00    -0.312 N 
ATOM     18  N   UNL     1      31.752  -5.482 -23.249  0.00  0.00    +0.389 N 
ATOM     19  C   UNL     1      30.894  -6.266 -22.354  0.00  0.00    -0.042 C 
ATOM     20  C   UNL     1      32.159  -6.284 -24.408  0.00  0.00    -0.042 C 
ATOM     21  C   UNL     1      31.633  -7.513 -21.844  0.00  0.00    +0.069 C 
ATOM     22  C   UNL     1      32.938  -7.529 -23.960  0.00  0.00    +0.069 C 
ATOM     23  C   UNL     1      33.011  -5.422 -25.338  0.00  0.00    -0.022 C 
ATOM     24  C   UNL     1      30.456  -5.387 -21.184  0.00  0.00    -0.022 C 
ATOM     25  H   UNL     1      32.585  -5.185 -22.739  0.00  0.00    -0.084 HD
ATOM     26  H   UNL     1      31.230  -4.671 -23.577  0.00  0.00    -0.084 HD
ENDBRANCH  11  17
ENDBRANCH   5  16
BRANCH   6  27
ATOM     27  C   UNL     1      35.236 -19.125 -22.317  0.00  0.00    +0.047 C 
BRANCH  27  28
ATOM     28  C   UNL     1      33.934 -19.699 -21.704  0.00  0.00    +0.033 C 
BRANCH  28  29
ATOM     29  C   UNL     1      34.190 -20.629 -20.542  0.00  0.00    -0.016 C 
ATOM     30  C   UNL     1      33.124 -21.268 -19.910  0.00  0.00    +0.033 C 
ATOM     31  C   UNL     1      35.495 -20.850 -20.102  0.00  0.00    +0.033 C 
ATOM     32  C   UNL     1      35.734 -21.709 -19.030  0.00  0.00    +0.141 C 
ATOM     33  C   UNL     1      33.362 -22.127 -18.838  0.00  0.00    +0.141 C 
ATOM     34  C   UNL     1      34.667 -22.348 -18.397  0.00  0.00    +0.074 C 
BRANCH  32  35
ATOM     35  O   UNL     1      37.007 -21.926 -18.600  0.00  0.00    -0.471 OA
ATOM     36  C   UNL     1      37.218 -21.960 -17.189  0.00  0.00    +0.252 C 
ENDBRANCH  32  35
BRANCH  33  37
ATOM     37  O   UNL     1      32.321 -22.752 -18.222  0.00  0.00    -0.471 OA
ATOM     38  C   UNL     1      32.544 -23.226 -16.894  0.00  0.00    +0.252 C 
ENDBRANCH  33  37
ENDBRANCH  28  29
ENDBRANCH  27  28
ENDBRANCH   6  27
TORSDOF 7
ENDMDL
MODEL 6
REMARK VINA RESULT:     -12.6      4.777     13.229
REMARK  Name = 51039095
REMARK  7 active torsions:
REMARK  status: ('A' for Active; 'I' for Inactive)
REMARK    1  A    between atoms: C_5  and  C_16
REMARK    2  A    between atoms: C_6  and  C_27
REMARK    3  A    between atoms: C_11  and  N_17
REMARK    4  A    between atoms: C_27  and  C_28
REMARK    5  A    between atoms: C_28  and  C_29
REMARK    6  A    between atoms: C_32  and  O_35
REMARK    7  A    between atoms: C_33  and  O_37
REMARK                            x       y       z     vdW  Elec       q    Type
REMARK                         _______ _______ _______ _____ _____    ______ ____
ROOT
ATOM      1  O   UNL     1      32.945 -14.360 -21.278  0.00  0.00    -0.270 OA
ATOM      2  N   UNL     1      34.226 -14.332 -23.244  0.00  0.00    -0.265 N 
ATOM      3  N   UNL     1      35.730 -17.372 -23.984  0.00  0.00    -0.239 N 
ATOM      4  N   UNL     1      35.509 -16.086 -24.305  0.00  0.00    -0.166 NA
ATOM      5  C   UNL     1      33.395 -13.763 -22.269  0.00  0.00    +0.251 C 
ATOM      6  C   UNL     1      35.108 -17.768 -22.835  0.00  0.00    +0.046 C 
ATOM      7  C   UNL     1      34.718 -15.658 -23.318  0.00  0.00    +0.153 C 
ATOM      8  C   UNL     1      34.435 -16.663 -22.373  0.00  0.00    +0.048 C 
ATOM      9  H   UNL     1      34.504 -13.732 -23.973  0.00  0.00    +0.157 HD
ATOM     10  H   UNL     1      36.287 -17.974 -24.528  0.00  0.00    +0.174 HD
ENDROOT
BRANCH   5  16
ATOM     11  C   UNL     1      32.464  -9.656 -22.797  0.00  0.00    +0.048 C 
ATOM     12  C   UNL     1      31.842 -10.387 -21.785  0.00  0.00    +0.015 C 
ATOM     13  C   UNL     1      33.393 -10.273 -23.635  0.00  0.00    +0.015 C 
ATOM     14  C   UNL     1      32.148 -11.737 -21.612  0.00  0.00    +0.006 C 
ATOM     15  C   UNL     1      33.699 -11.623 -23.460  0.00  0.00    +0.006 C 
ATOM     16  C   UNL     1      33.077 -12.355 -22.449  0.00  0.00    +0.054 C 
BRANCH  11  17
ATOM     17  N   UNL     1      32.158  -8.301 -22.972  0.00  0.00    -0.312 N 
ATOM     18  N   UNL     1      31.751  -5.495 -23.253  0.00  0.00    +0.389 N 
ATOM     19  C   UNL     1      30.897  -6.275 -22.352  0.00  0.00    -0.042 C 
ATOM     20  C   UNL     1      32.149  -6.299 -24.413  0.00  0.00    -0.042 C 
ATOM     21  C   UNL     1      31.636  -7.522 -21.844  0.00  0.00    +0.069 C 
ATOM     22  C   UNL     1      32.930  -7.544 -23.967  0.00  0.00    +0.069 C 
ATOM     23  C   UNL     1      32.997  -5.439 -25.348  0.00  0.00    -0.022 C 
ATOM     24  C   UNL     1      30.467  -5.393 -21.180  0.00  0.00    -0.022 C 
ATOM     25  H   UNL     1      32.586  -5.197 -22.748  0.00  0.00    -0.084 HD
ATOM     26  H   UNL     1      31.228  -4.683 -23.579  0.00  0.00    -0.084 HD
ENDBRANCH  11  17
ENDBRANCH   5  16
BRANCH   6  27
ATOM     27  C   UNL     1      35.224 -19.139 -22.313  0.00  0.00    +0.047 C 
BRANCH  27  28
ATOM     28  C   UNL     1      33.922 -19.711 -21.698  0.00  0.00    +0.033 C 
BRANCH  28  29
ATOM     29  C   UNL     1      34.179 -20.641 -20.537  0.00  0.00    -0.016 C 
ATOM     30  C   UNL     1      35.483 -20.861 -20.093  0.00  0.00    +0.033 C 
ATOM     31  C   UNL     1      33.111 -21.280 -19.907  0.00  0.00    +0.033 C 
ATOM     32  C   UNL     1      33.346 -22.139 -18.834  0.00  0.00    +0.141 C 
ATOM     33  C   UNL     1      35.718 -21.719 -19.020  0.00  0.00    +0.141 C 
ATOM     34  C   UNL     1      34.651 -22.359 -18.390  0.00  0.00    +0.074 C 
BRANCH  32  35
ATOM     35  O   UNL     1      32.304 -22.762 -18.218  0.00  0.00    -0.471 OA
ATOM     36  C   UNL     1      32.517 -23.210 -16.880  0.00  0.00    +0.252 C 
ENDBRANCH  32  35
BRANCH  33  37
ATOM     37  O   UNL     1      36.991 -21.933 -18.585  0.00  0.00    -0.471 OA
ATOM     38  C   UNL     1      37.212 -21.888 -17.176  0.00  0.00    +0.252 C 
ENDBRANCH  33  37
ENDBRANCH  28  29
ENDBRANCH  27  28
ENDBRANCH   6  27
TORSDOF 7
ENDMDL
MODEL 7
REMARK VINA RESULT:     -12.3      4.635     12.841
REMARK  Name = 51039095
REMARK  7 active torsions:
REMARK  status: ('A' for Active; 'I' for Inactive)
REMARK    1  A    between atoms: C_5  and  C_16
REMARK    2  A    between atoms: C_6  and  C_27
REMARK    3  A    between atoms: C_11  and  N_17
REMARK    4  A    between atoms: C_27  and  C_28
REMARK    5  A    between atoms: C_28  and  C_29
REMARK    6  A    between atoms: C_32  and  O_35
REMARK    7  A    between atoms: C_33  and  O_37
REMARK                            x       y       z     vdW  Elec       q    Type
REMARK                         _______ _______ _______ _____ _____    ______ ____
ROOT
ATOM      1  O   UNL     1      32.332 -14.976 -21.082  0.00  0.00    -0.270 OA
ATOM      2  N   UNL     1      34.157 -14.640 -22.518  0.00  0.00    -0.265 N 
ATOM      3  N   UNL     1      35.875 -17.552 -23.309  0.00  0.00    -0.239 N 
ATOM      4  N   UNL     1      35.740 -16.221 -23.438  0.00  0.00    -0.166 NA
ATOM      5  C   UNL     1      33.054 -14.226 -21.758  0.00  0.00    +0.251 C 
ATOM      6  C   UNL     1      34.937 -18.125 -22.501  0.00  0.00    +0.046 C 
ATOM      7  C   UNL     1      34.674 -15.949 -22.681  0.00  0.00    +0.153 C 
ATOM      8  C   UNL     1      34.133 -17.097 -22.072  0.00  0.00    +0.048 C 
ATOM      9  H   UNL     1      34.635 -13.929 -23.002  0.00  0.00    +0.157 HD
ATOM     10  H   UNL     1      36.586 -18.065 -23.756  0.00  0.00    +0.174 HD
ENDROOT
BRANCH   5  16
ATOM     11  C   UNL     1      32.252 -10.058 -21.775  0.00  0.00    +0.048 C 
ATOM     12  C   UNL     1      31.972 -10.818 -20.639  0.00  0.00    +0.015 C 
ATOM     13  C   UNL     1      32.797 -10.667 -22.906  0.00  0.00    +0.015 C 
ATOM     14  C   UNL     1      32.236 -12.187 -20.634  0.00  0.00    +0.006 C 
ATOM     15  C   UNL     1      33.060 -12.037 -22.900  0.00  0.00    +0.006 C 
ATOM     16  C   UNL     1      32.781 -12.797 -21.764  0.00  0.00    +0.054 C 
BRANCH  11  17
ATOM     17  N   UNL     1      31.988  -8.684 -21.782  0.00  0.00    -0.312 N 
ATOM     18  N   UNL     1      31.659  -5.855 -21.898  0.00  0.00    +0.389 N 
ATOM     19  C   UNL     1      31.653  -6.544 -20.603  0.00  0.00    -0.042 C 
ATOM     20  C   UNL     1      31.072  -6.706 -22.938  0.00  0.00    -0.042 C 
ATOM     21  C   UNL     1      32.464  -7.847 -20.675  0.00  0.00    +0.069 C 
ATOM     22  C   UNL     1      31.868  -8.012 -23.083  0.00  0.00    +0.069 C 
ATOM     23  C   UNL     1      31.054  -5.939 -24.259  0.00  0.00    -0.022 C 
ATOM     24  C   UNL     1      32.230  -5.612 -19.538  0.00  0.00    -0.022 C 
ATOM     25  H   UNL     1      32.621  -5.629 -22.152  0.00  0.00    -0.084 HD
ATOM     26  H   UNL     1      31.104  -5.003 -21.819  0.00  0.00    -0.084 HD
ENDBRANCH  11  17
ENDBRANCH   5  16
BRANCH   6  27
ATOM     27  C   UNL     1      34.912 -19.571 -22.231  0.00  0.00    +0.047 C 
BRANCH  27  28
ATOM     28  C   UNL     1      36.125 -20.101 -21.425  0.00  0.00    +0.033 C 
BRANCH  28  29
ATOM     29  C   UNL     1      35.720 -20.906 -20.214  0.00  0.00    -0.016 C 
ATOM     30  C   UNL     1      34.391 -21.294 -20.046  0.00  0.00    +0.033 C 
ATOM     31  C   UNL     1      36.676 -21.264 -19.264  0.00  0.00    +0.033 C 
ATOM     32  C   UNL     1      36.304 -22.008 -18.145  0.00  0.00    +0.141 C 
ATOM     33  C   UNL     1      34.018 -22.039 -18.927  0.00  0.00    +0.141 C 
ATOM     34  C   UNL     1      34.974 -22.396 -17.976  0.00  0.00    +0.074 C 
BRANCH  32  35
ATOM     35  O   UNL     1      37.237 -22.358 -17.217  0.00  0.00    -0.471 OA
ATOM     36  C   UNL     1      36.759 -22.717 -15.921  0.00  0.00    +0.252 C 
ENDBRANCH  32  35
BRANCH  33  37
ATOM     37  O   UNL     1      32.721 -22.419 -18.763  0.00  0.00    -0.471 OA
ATOM     38  C   UNL     1      32.348 -22.914 -17.478  0.00  0.00    +0.252 C 
ENDBRANCH  33  37
ENDBRANCH  28  29
ENDBRANCH  27  28
ENDBRANCH   6  27
TORSDOF 7
ENDMDL
MODEL 8
REMARK VINA RESULT:     -12.1      5.062     13.557
REMARK  Name = 51039095
REMARK  7 active torsions:
REMARK  status: ('A' for Active; 'I' for Inactive)
REMARK    1  A    between atoms: C_5  and  C_16
REMARK    2  A    between atoms: C_6  and  C_27
REMARK    3  A    between atoms: C_11  and  N_17
REMARK    4  A    between atoms: C_27  and  C_28
REMARK    5  A    between atoms: C_28  and  C_29
REMARK    6  A    between atoms: C_32  and  O_35
REMARK    7  A    between atoms: C_33  and  O_37
REMARK                            x       y       z     vdW  Elec       q    Type
REMARK                         _______ _______ _______ _____ _____    ______ ____
ROOT
ATOM      1  O   UNL     1      34.083 -13.832 -24.407  0.00  0.00    -0.270 OA
ATOM      2  N   UNL     1      34.239 -13.820 -22.065  0.00  0.00    -0.265 N 
ATOM      3  N   UNL     1      35.121 -16.889 -20.701  0.00  0.00    -0.239 N 
ATOM      4  N   UNL     1      34.801 -15.596 -20.522  0.00  0.00    -0.166 NA
ATOM      5  C   UNL     1      34.005 -13.238 -23.319  0.00  0.00    +0.251 C 
ATOM      6  C   UNL     1      35.132 -17.277 -22.009  0.00  0.00    +0.046 C 
ATOM      7  C   UNL     1      34.603 -15.156 -21.767  0.00  0.00    +0.153 C 
ATOM      8  C   UNL     1      34.795 -16.161 -22.735  0.00  0.00    +0.048 C 
ATOM      9  H   UNL     1      34.138 -13.222 -21.290  0.00  0.00    +0.157 HD
ATOM     10  H   UNL     1      35.329 -17.499 -19.957  0.00  0.00    +0.174 HD
ENDROOT
BRANCH   5  16
ATOM     11  C   UNL     1      32.874  -9.148 -23.276  0.00  0.00    +0.048 C 
ATOM     12  C   UNL     1      34.038  -9.543 -23.935  0.00  0.00    +0.015 C 
ATOM     13  C   UNL     1      32.080 -10.097 -22.632  0.00  0.00    +0.015 C 
ATOM     14  C   UNL     1      34.409 -10.887 -23.949  0.00  0.00    +0.006 C 
ATOM     15  C   UNL     1      32.452 -11.442 -22.646  0.00  0.00    +0.006 C 
ATOM     16  C   UNL     1      33.616 -11.837 -23.305  0.00  0.00    +0.054 C 
BRANCH  11  17
ATOM     17  N   UNL     1      32.500  -7.800 -23.261  0.00  0.00    -0.312 N 
ATOM     18  N   UNL     1      31.527  -5.121 -23.305  0.00  0.00    +0.389 N 
ATOM     19  C   UNL     1      32.669  -5.503 -24.142  0.00  0.00    -0.042 C 
ATOM     20  C   UNL     1      31.529  -5.882 -22.051  0.00  0.00    -0.042 C 
ATOM     21  C   UNL     1      32.618  -6.999 -24.485  0.00  0.00    +0.069 C 
ATOM     22  C   UNL     1      31.440  -7.389 -22.331  0.00  0.00    +0.069 C 
ATOM     23  C   UNL     1      30.354  -5.424 -21.188  0.00  0.00    -0.022 C 
ATOM     24  C   UNL     1      32.658  -4.660 -25.417  0.00  0.00    -0.022 C 
ATOM     25  H   UNL     1      30.662  -5.312 -23.811  0.00  0.00    -0.084 HD
ATOM     26  H   UNL     1      31.597  -4.127 -23.087  0.00  0.00    -0.084 HD
ENDBRANCH  11  17
ENDBRANCH   5  16
BRANCH   6  27
ATOM     27  C   UNL     1      35.459 -18.653 -22.416  0.00  0.00    +0.047 C 
BRANCH  27  28
ATOM     28  C   UNL     1      34.307 -19.673 -22.233  0.00  0.00    +0.033 C 
BRANCH  28  29
ATOM     29  C   UNL     1      34.446 -20.500 -20.977  0.00  0.00    -0.016 C 
ATOM     30  C   UNL     1      33.310 -20.994 -20.336  0.00  0.00    +0.033 C 
ATOM     31  C   UNL     1      35.712 -20.772 -20.460  0.00  0.00    +0.033 C 
ATOM     32  C   UNL     1      35.842 -21.537 -19.300  0.00  0.00    +0.141 C 
ATOM     33  C   UNL     1      33.439 -21.758 -19.178  0.00  0.00    +0.141 C 
ATOM     34  C   UNL     1      34.705 -22.029 -18.659  0.00  0.00    +0.074 C 
BRANCH  32  35
ATOM     35  O   UNL     1      37.078 -21.803 -18.794  0.00  0.00    -0.471 OA
ATOM     36  C   UNL     1      37.177 -21.967 -17.380  0.00  0.00    +0.252 C 
ENDBRANCH  32  35
BRANCH  33  37
ATOM     37  O   UNL     1      32.331 -22.241 -18.552  0.00  0.00    -0.471 OA
ATOM     38  C   UNL     1      32.535 -22.989 -17.354  0.00  0.00    +0.252 C 
ENDBRANCH  33  37
ENDBRANCH  28  29
ENDBRANCH  27  28
ENDBRANCH   6  27
TORSDOF 7
ENDMDL
MODEL 9
REMARK VINA RESULT:     -12.0      4.558     12.923
REMARK  Name = 51039095
REMARK  7 active torsions:
REMARK  status: ('A' for Active; 'I' for Inactive)
REMARK    1  A    between atoms: C_5  and  C_16
REMARK    2  A    between atoms: C_6  and  C_27
REMARK    3  A    between atoms: C_11  and  N_17
REMARK    4  A    between atoms: C_27  and  C_28
REMARK    5  A    between atoms: C_28  and  C_29
REMARK    6  A    between atoms: C_32  and  O_35
REMARK    7  A    between atoms: C_33  and  O_37
REMARK                            x       y       z     vdW  Elec       q    Type
REMARK                         _______ _______ _______ _____ _____    ______ ____
ROOT
ATOM      1  O   UNL     1      32.425 -15.071 -21.180  0.00  0.00    -0.270 OA
ATOM      2  N   UNL     1      34.270 -14.787 -22.602  0.00  0.00    -0.265 N 
ATOM      3  N   UNL     1      36.015 -17.720 -23.240  0.00  0.00    -0.239 N 
ATOM      4  N   UNL     1      35.874 -16.397 -23.430  0.00  0.00    -0.166 NA
ATOM      5  C   UNL     1      33.154 -14.347 -21.877  0.00  0.00    +0.251 C 
ATOM      6  C   UNL     1      35.068 -18.264 -22.422  0.00  0.00    +0.046 C 
ATOM      7  C   UNL     1      34.796 -16.099 -22.701  0.00  0.00    +0.153 C 
ATOM      8  C   UNL     1      34.252 -17.223 -22.050  0.00  0.00    +0.048 C 
ATOM      9  H   UNL     1      34.751 -14.095 -23.110  0.00  0.00    +0.157 HD
ATOM     10  H   UNL     1      36.734 -18.248 -23.655  0.00  0.00    +0.174 HD
ENDROOT
BRANCH   5  16
ATOM     11  C   UNL     1      32.329 -10.189 -22.088  0.00  0.00    +0.048 C 
ATOM     12  C   UNL     1      31.914 -10.927 -20.979  0.00  0.00    +0.015 C 
ATOM     13  C   UNL     1      33.017 -10.816 -23.127  0.00  0.00    +0.015 C 
ATOM     14  C   UNL     1      32.185 -12.293 -20.910  0.00  0.00    +0.006 C 
ATOM     15  C   UNL     1      33.287 -12.183 -23.057  0.00  0.00    +0.006 C 
ATOM     16  C   UNL     1      32.873 -12.922 -21.949  0.00  0.00    +0.054 C 
BRANCH  11  17
ATOM     17  N   UNL     1      32.058  -8.818 -22.158  0.00  0.00    -0.312 N 
ATOM     18  N   UNL     1      31.293  -6.073 -22.222  0.00  0.00    +0.389 N 
ATOM     19  C   UNL     1      31.700  -6.752 -23.457  0.00  0.00    -0.042 C 
ATOM     20  C   UNL     1      32.034  -6.603 -21.073  0.00  0.00    -0.042 C 
ATOM     21  C   UNL     1      31.432  -8.262 -23.363  0.00  0.00    +0.069 C 
ATOM     22  C   UNL     1      31.773  -8.106 -20.905  0.00  0.00    +0.069 C 
ATOM     23  C   UNL     1      31.616  -5.841 -19.816  0.00  0.00    -0.022 C 
ATOM     24  C   UNL     1      30.941  -6.145 -24.636  0.00  0.00    -0.022 C 
ATOM     25  H   UNL     1      30.294  -6.220 -22.073  0.00  0.00    -0.084 HD
ATOM     26  H   UNL     1      31.494  -5.078 -22.313  0.00  0.00    -0.084 HD
ENDBRANCH  11  17
ENDBRANCH   5  16
BRANCH   6  27
ATOM     27  C   UNL     1      35.047 -19.697 -22.090  0.00  0.00    +0.047 C 
BRANCH  27  28
ATOM     28  C   UNL     1      33.811 -20.156 -21.277  0.00  0.00    +0.033 C 
BRANCH  28  29
ATOM     29  C   UNL     1      34.172 -21.042 -20.108  0.00  0.00    -0.016 C 
ATOM     30  C   UNL     1      35.495 -21.121 -19.674  0.00  0.00    +0.033 C 
ATOM     31  C   UNL     1      33.180 -21.778 -19.461  0.00  0.00    +0.033 C 
ATOM     32  C   UNL     1      33.512 -22.596 -18.380  0.00  0.00    +0.141 C 
ATOM     33  C   UNL     1      35.827 -21.938 -18.594  0.00  0.00    +0.141 C 
ATOM     34  C   UNL     1      34.836 -22.676 -17.947  0.00  0.00    +0.074 C 
BRANCH  32  35
ATOM     35  O   UNL     1      32.545 -23.316 -17.748  0.00  0.00    -0.471 OA
ATOM     36  C   UNL     1      32.606 -23.370 -16.323  0.00  0.00    +0.252 C 
ENDBRANCH  32  35
BRANCH  33  37
ATOM     37  O   UNL     1      37.118 -22.016 -18.170  0.00  0.00    -0.471 OA
ATOM     38  C   UNL     1      37.335 -22.086 -16.761  0.00  0.00    +0.252 C 
ENDBRANCH  33  37
ENDBRANCH  28  29
ENDBRANCH  27  28
ENDBRANCH   6  27
TORSDOF 7
ENDMDL
