MODEL 1
REMARK VINA RESULT:     -15.1      0.000      0.000
REMARK  Name = 67335295
REMARK  6 active torsions:
REMARK  status: ('A' for Active; 'I' for Inactive)
REMARK    1  A    between atoms: N_2  and  C_14
REMARK    2  A    between atoms: C_7  and  O_20
REMARK    3  A    between atoms: O_20  and  C_21
REMARK    4  A    between atoms: C_21  and  C_23
REMARK    5  A    between atoms: C_22  and  C_28
REMARK    6  A    between atoms: C_28  and  N_30
REMARK                            x       y       z     vdW  Elec       q    Type
REMARK                         _______ _______ _______ _____ _____    ______ ____
ROOT
ATOM      1  O   UNL     1      33.781 -24.496 -12.848  0.00  0.00    -0.270 OA
ATOM      2  N   UNL     1      34.876 -24.234 -14.925  0.00  0.00    -0.265 N 
ATOM      3  C   UNL     1      34.512 -23.784 -16.263  0.00  0.00    +0.124 C 
ATOM      4  C   UNL     1      33.069 -23.451 -16.094  0.00  0.00    +0.036 C 
ATOM      5  C   UNL     1      33.817 -24.194 -14.026  0.00  0.00    +0.249 C 
ATOM      6  C   UNL     1      32.662 -23.692 -14.781  0.00  0.00    +0.054 C 
ATOM      7  C   UNL     1      32.169 -22.968 -17.025  0.00  0.00    +0.137 C 
ATOM      8  C   UNL     1      31.371 -23.469 -14.346  0.00  0.00    +0.004 C 
ATOM      9  C   UNL     1      30.854 -22.733 -16.612  0.00  0.00    +0.037 C 
ATOM     10  C   UNL     1      30.459 -22.981 -15.283  0.00  0.00    +0.003 C 
ENDROOT
BRANCH   2  14
ATOM     11  O   UNL     1      36.935 -22.494 -15.309  0.00  0.00    -0.273 OA
ATOM     12  O   UNL     1      40.050 -25.880 -15.505  0.00  0.00    -0.275 OA
ATOM     13  N   UNL     1      38.455 -24.218 -15.423  0.00  0.00    -0.254 N 
ATOM     14  C   UNL     1      36.200 -24.675 -14.570  0.00  0.00    +0.153 C 
ATOM     15  C   UNL     1      36.463 -26.086 -15.074  0.00  0.00    +0.039 C 
ATOM     16  C   UNL     1      37.878 -26.495 -14.706  0.00  0.00    +0.088 C 
ATOM     17  C   UNL     1      37.193 -23.687 -15.155  0.00  0.00    +0.246 C 
ATOM     18  C   UNL     1      38.895 -25.528 -15.263  0.00  0.00    +0.228 C 
ATOM     19  H   UNL     1      39.121 -23.581 -15.770  0.00  0.00    +0.158 HD
ENDBRANCH   2  14
BRANCH   7  20
ATOM     20  O   UNL     1      32.541 -22.728 -18.309  0.00  0.00    -0.471 OA
BRANCH  20  21
ATOM     21  C   UNL     1      33.894 -23.019 -18.661  0.00  0.00    +0.232 C 
BRANCH  21  23
ATOM     22  C   UNL     1      35.470 -19.762 -20.967  0.00  0.00    -0.043 C 
ATOM     23  C   UNL     1      34.445 -21.881 -19.469  0.00  0.00    +0.021 C 
ATOM     24  C   UNL     1      36.338 -20.650 -20.329  0.00  0.00    -0.007 C 
ATOM     25  C   UNL     1      34.091 -19.934 -20.855  0.00  0.00    -0.007 C 
ATOM     26  C   UNL     1      35.825 -21.709 -19.580  0.00  0.00    -0.001 C 
ATOM     27  C   UNL     1      33.578 -20.994 -20.107  0.00  0.00    -0.001 C 
BRANCH  22  28
ATOM     28  C   UNL     1      36.019 -18.629 -21.767  0.00  0.00    -0.050 C 
BRANCH  28  30
ATOM     29  O   UNL     1      34.486 -17.198 -25.402  0.00  0.00    -0.358 OA
ATOM     30  N   UNL     1      35.088 -18.173 -22.796  0.00  0.00    +0.393 N 
ATOM     31  C   UNL     1      35.379 -16.786 -23.184  0.00  0.00    -0.044 C 
ATOM     32  C   UNL     1      35.143 -19.048 -23.976  0.00  0.00    -0.044 C 
ATOM     33  C   UNL     1      34.173 -18.544 -25.041  0.00  0.00    +0.119 C 
ATOM     34  C   UNL     1      34.403 -16.336 -24.267  0.00  0.00    +0.119 C 
ATOM     35  H   UNL     1      34.146 -18.211 -22.406  0.00  0.00    -0.079 HD
ENDBRANCH  28  30
ENDBRANCH  22  28
ENDBRANCH  21  23
ENDBRANCH  20  21
ENDBRANCH   7  20
TORSDOF 6
ENDMDL
MODEL 2
REMARK VINA RESULT:     -14.6      3.390     11.598
REMARK  Name = 67335295
REMARK  6 active torsions:
REMARK  status: ('A' for Active; 'I' for Inactive)
REMARK    1  A    between atoms: N_2  and  C_14
REMARK    2  A    between atoms: C_7  and  O_20
REMARK    3  A    between atoms: O_20  and  C_21
REMARK    4  A    between atoms: C_21  and  C_23
REMARK    5  A    between atoms: C_22  and  C_28
REMARK    6  A    between atoms: C_28  and  N_30
REMARK                            x       y       z     vdW  Elec       q    Type
REMARK                         _______ _______ _______ _____ _____    ______ ____
ROOT
ATOM      1  O   UNL     1      33.450 -14.051 -25.444  0.00  0.00    -0.270 OA
ATOM      2  N   UNL     1      34.056 -14.118 -23.161  0.00  0.00    -0.265 N 
ATOM      3  C   UNL     1      34.571 -15.118 -22.233  0.00  0.00    +0.124 C 
ATOM      4  C   UNL     1      34.678 -16.322 -23.105  0.00  0.00    +0.036 C 
ATOM      5  C   UNL     1      33.862 -14.613 -24.445  0.00  0.00    +0.249 C 
ATOM      6  C   UNL     1      34.261 -16.024 -24.402  0.00  0.00    +0.054 C 
ATOM      7  C   UNL     1      35.112 -17.595 -22.786  0.00  0.00    +0.137 C 
ATOM      8  C   UNL     1      34.257 -16.960 -25.418  0.00  0.00    +0.004 C 
ATOM      9  C   UNL     1      35.118 -18.562 -23.796  0.00  0.00    +0.037 C 
ATOM     10  C   UNL     1      34.694 -18.246 -25.101  0.00  0.00    +0.003 C 
ENDROOT
BRANCH   2  14
ATOM     11  O   UNL     1      32.058 -13.684 -21.363  0.00  0.00    -0.273 OA
ATOM     12  O   UNL     1      31.422  -9.351 -22.783  0.00  0.00    -0.275 OA
ATOM     13  N   UNL     1      31.759 -11.532 -22.118  0.00  0.00    -0.254 N 
ATOM     14  C   UNL     1      33.778 -12.757 -22.786  0.00  0.00    +0.153 C 
ATOM     15  C   UNL     1      33.739 -11.848 -24.004  0.00  0.00    +0.039 C 
ATOM     16  C   UNL     1      33.410 -10.432 -23.565  0.00  0.00    +0.088 C 
ATOM     17  C   UNL     1      32.454 -12.739 -22.043  0.00  0.00    +0.246 C 
ATOM     18  C   UNL     1      32.102 -10.376 -22.813  0.00  0.00    +0.228 C 
ATOM     19  H   UNL     1      30.915 -11.494 -21.613  0.00  0.00    +0.158 HD
ENDBRANCH   2  14
BRANCH   7  20
ATOM     20  O   UNL     1      35.520 -17.909 -21.530  0.00  0.00    -0.471 OA
BRANCH  20  21
ATOM     21  C   UNL     1      36.381 -19.039 -21.387  0.00  0.00    +0.232 C 
BRANCH  21  23
ATOM     22  C   UNL     1      34.290 -22.140 -19.283  0.00  0.00    -0.043 C 
ATOM     23  C   UNL     1      35.650 -20.122 -20.649  0.00  0.00    +0.021 C 
ATOM     24  C   UNL     1      35.682 -22.061 -19.208  0.00  0.00    -0.007 C 
ATOM     25  C   UNL     1      33.579 -21.210 -20.041  0.00  0.00    -0.007 C 
ATOM     26  C   UNL     1      36.361 -21.053 -19.892  0.00  0.00    -0.001 C 
ATOM     27  C   UNL     1      34.259 -20.200 -20.724  0.00  0.00    -0.001 C 
BRANCH  22  28
ATOM     28  C   UNL     1      33.564 -23.218 -18.553  0.00  0.00    -0.050 C 
BRANCH  28  30
ATOM     29  O   UNL     1      32.875 -23.696 -14.440  0.00  0.00    -0.358 OA
ATOM     30  N   UNL     1      33.436 -22.934 -17.125  0.00  0.00    +0.393 N 
ATOM     31  C   UNL     1      32.061 -23.177 -16.666  0.00  0.00    -0.044 C 
ATOM     32  C   UNL     1      34.378 -23.748 -16.344  0.00  0.00    -0.044 C 
ATOM     33  C   UNL     1      34.218 -23.444 -14.857  0.00  0.00    +0.119 C 
ATOM     34  C   UNL     1      31.956 -22.885 -15.172  0.00  0.00    +0.119 C 
ATOM     35  H   UNL     1      33.659 -21.949 -16.980  0.00  0.00    -0.079 HD
ENDBRANCH  28  30
ENDBRANCH  22  28
ENDBRANCH  21  23
ENDBRANCH  20  21
ENDBRANCH   7  20
TORSDOF 6
ENDMDL
MODEL 3
REMARK VINA RESULT:     -14.5      5.263      9.545
REMARK  Name = 67335295
REMARK  6 active torsions:
REMARK  status: ('A' for Active; 'I' for Inactive)
REMARK    1  A    between atoms: N_2  and  C_14
REMARK    2  A    between atoms: C_7  and  O_20
REMARK    3  A    between atoms: O_20  and  C_21
REMARK    4  A    between atoms: C_21  and  C_23
REMARK    5  A    between atoms: C_22  and  C_28
REMARK    6  A    between atoms: C_28  and  N_30
REMARK                            x       y       z     vdW  Elec       q    Type
REMARK                         _______ _______ _______ _____ _____    ______ ____
ROOT
ATOM      1  O   UNL     1      35.240 -20.172 -24.266  0.00  0.00    -0.270 OA
ATOM      2  N   UNL     1      35.148 -19.267 -22.084  0.00  0.00    -0.265 N 
ATOM      3  C   UNL     1      34.976 -17.945 -21.494  0.00  0.00    +0.124 C 
ATOM      4  C   UNL     1      34.843 -17.083 -22.703  0.00  0.00    +0.036 C 
ATOM      5  C   UNL     1      35.127 -19.254 -23.474  0.00  0.00    +0.249 C 
ATOM      6  C   UNL     1      34.932 -17.852 -23.864  0.00  0.00    +0.054 C 
ATOM      7  C   UNL     1      34.656 -15.716 -22.785  0.00  0.00    +0.137 C 
ATOM      8  C   UNL     1      34.841 -17.307 -25.130  0.00  0.00    +0.004 C 
ATOM      9  C   UNL     1      34.561 -15.138 -24.054  0.00  0.00    +0.037 C 
ATOM     10  C   UNL     1      34.653 -15.927 -25.217  0.00  0.00    +0.003 C 
ENDROOT
BRANCH   2  14
ATOM     11  O   UNL     1      32.918 -20.435 -21.047  0.00  0.00    -0.273 OA
ATOM     12  O   UNL     1      35.306 -22.570 -17.740  0.00  0.00    -0.275 OA
ATOM     13  N   UNL     1      34.147 -21.466 -19.397  0.00  0.00    -0.254 N 
ATOM     14  C   UNL     1      35.321 -20.466 -21.307  0.00  0.00    +0.153 C 
ATOM     15  C   UNL     1      36.473 -20.323 -20.325  0.00  0.00    +0.039 C 
ATOM     16  C   UNL     1      36.597 -21.595 -19.506  0.00  0.00    +0.088 C 
ATOM     17  C   UNL     1      34.015 -20.747 -20.585  0.00  0.00    +0.246 C 
ATOM     18  C   UNL     1      35.311 -21.913 -18.780  0.00  0.00    +0.228 C 
ATOM     19  H   UNL     1      33.305 -21.685 -18.936  0.00  0.00    +0.158 HD
ENDBRANCH   2  14
BRANCH   7  20
ATOM     20  O   UNL     1      34.569 -14.947 -21.669  0.00  0.00    -0.471 OA
BRANCH  20  21
ATOM     21  C   UNL     1      33.290 -14.852 -21.041  0.00  0.00    +0.232 C 
BRANCH  21  23
ATOM     22  C   UNL     1      31.694 -10.925 -21.709  0.00  0.00    -0.043 C 
ATOM     23  C   UNL     1      32.730 -13.480 -21.275  0.00  0.00    +0.021 C 
ATOM     24  C   UNL     1      32.023 -11.740 -22.795  0.00  0.00    -0.007 C 
ATOM     25  C   UNL     1      31.884 -11.389 -20.408  0.00  0.00    -0.007 C 
ATOM     26  C   UNL     1      32.541 -13.017 -22.577  0.00  0.00    -0.001 C 
ATOM     27  C   UNL     1      32.401 -12.666 -20.190  0.00  0.00    -0.001 C 
BRANCH  22  28
ATOM     28  C   UNL     1      31.142  -9.560 -21.943  0.00  0.00    -0.050 C 
BRANCH  28  30
ATOM     29  O   UNL     1      33.297  -6.274 -23.418  0.00  0.00    -0.358 OA
ATOM     30  N   UNL     1      32.025  -8.736 -22.766  0.00  0.00    +0.393 N 
ATOM     31  C   UNL     1      31.282  -7.625 -23.377  0.00  0.00    -0.044 C 
ATOM     32  C   UNL     1      33.144  -8.215 -21.968  0.00  0.00    -0.044 C 
ATOM     33  C   UNL     1      34.045  -7.348 -22.844  0.00  0.00    +0.119 C 
ATOM     34  C   UNL     1      32.226  -6.773 -24.220  0.00  0.00    +0.119 C 
ATOM     35  H   UNL     1      32.400  -9.325 -23.509  0.00  0.00    -0.079 HD
ENDBRANCH  28  30
ENDBRANCH  22  28
ENDBRANCH  21  23
ENDBRANCH  20  21
ENDBRANCH   7  20
TORSDOF 6
ENDMDL
MODEL 4
REMARK VINA RESULT:     -13.9      7.473     14.648
REMARK  Name = 67335295
REMARK  6 active torsions:
REMARK  status: ('A' for Active; 'I' for Inactive)
REMARK    1  A    between atoms: N_2  and  C_14
REMARK    2  A    between atoms: C_7  and  O_20
REMARK    3  A    between atoms: O_20  and  C_21
REMARK    4  A    between atoms: C_21  and  C_23
REMARK    5  A    between atoms: C_22  and  C_28
REMARK    6  A    between atoms: C_28  and  N_30
REMARK                            x       y       z     vdW  Elec       q    Type
REMARK                         _______ _______ _______ _____ _____    ______ ____
ROOT
ATOM      1  O   UNL     1      32.885  -6.700 -20.666  0.00  0.00    -0.270 OA
ATOM      2  N   UNL     1      33.150  -7.724 -22.779  0.00  0.00    -0.265 N 
ATOM      3  C   UNL     1      32.973  -9.060 -23.337  0.00  0.00    +0.124 C 
ATOM      4  C   UNL     1      32.513  -9.832 -22.147  0.00  0.00    +0.036 C 
ATOM      5  C   UNL     1      32.846  -7.651 -21.425  0.00  0.00    +0.249 C 
ATOM      6  C   UNL     1      32.439  -9.004 -21.026  0.00  0.00    +0.054 C 
ATOM      7  C   UNL     1      32.180 -11.170 -22.050  0.00  0.00    +0.137 C 
ATOM      8  C   UNL     1      32.039  -9.461 -19.786  0.00  0.00    +0.004 C 
ATOM      9  C   UNL     1      31.772 -11.659 -20.805  0.00  0.00    +0.037 C 
ATOM     10  C   UNL     1      31.702 -10.811 -19.683  0.00  0.00    +0.003 C 
ENDROOT
BRANCH   2  14
ATOM     11  O   UNL     1      31.248  -6.082 -23.828  0.00  0.00    -0.273 OA
ATOM     12  O   UNL     1      34.080  -4.538 -27.114  0.00  0.00    -0.275 OA
ATOM     13  N   UNL     1      32.689  -5.354 -25.467  0.00  0.00    -0.254 N 
ATOM     14  C   UNL     1      33.594  -6.595 -23.553  0.00  0.00    +0.153 C 
ATOM     15  C   UNL     1      34.692  -6.993 -24.528  0.00  0.00    +0.039 C 
ATOM     16  C   UNL     1      35.105  -5.781 -25.343  0.00  0.00    +0.088 C 
ATOM     17  C   UNL     1      32.391  -6.026 -24.282  0.00  0.00    +0.246 C 
ATOM     18  C   UNL     1      33.929  -5.181 -26.076  0.00  0.00    +0.228 C 
ATOM     19  H   UNL     1      31.922  -4.950 -25.934  0.00  0.00    +0.158 HD
ENDBRANCH   2  14
BRANCH   7  20
ATOM     20  O   UNL     1      32.247 -11.995 -23.126  0.00  0.00    -0.471 OA
BRANCH  20  21
ATOM     21  C   UNL     1      33.513 -12.119 -23.775  0.00  0.00    +0.232 C 
BRANCH  21  23
ATOM     22  C   UNL     1      34.657 -16.254 -23.848  0.00  0.00    -0.043 C 
ATOM     23  C   UNL     1      33.911 -13.565 -23.800  0.00  0.00    +0.021 C 
ATOM     24  C   UNL     1      34.917 -15.477 -22.717  0.00  0.00    -0.007 C 
ATOM     25  C   UNL     1      34.026 -15.686 -24.954  0.00  0.00    -0.007 C 
ATOM     26  C   UNL     1      34.544 -14.133 -22.694  0.00  0.00    -0.001 C 
ATOM     27  C   UNL     1      33.652 -14.341 -24.930  0.00  0.00    -0.001 C 
BRANCH  22  28
ATOM     28  C   UNL     1      35.057 -17.690 -23.873  0.00  0.00    -0.050 C 
BRANCH  28  30
ATOM     29  O   UNL     1      36.285 -20.229 -20.764  0.00  0.00    -0.358 OA
ATOM     30  N   UNL     1      35.348 -18.209 -22.538  0.00  0.00    +0.393 N 
ATOM     31  C   UNL     1      34.560 -19.419 -22.266  0.00  0.00    -0.044 C 
ATOM     32  C   UNL     1      36.782 -18.499 -22.392  0.00  0.00    -0.044 C 
ATOM     33  C   UNL     1      37.060 -19.051 -20.997  0.00  0.00    +0.119 C 
ATOM     34  C   UNL     1      34.890 -19.948 -20.873  0.00  0.00    +0.119 C 
ATOM     35  H   UNL     1      35.090 -17.492 -21.860  0.00  0.00    -0.079 HD
ENDBRANCH  28  30
ENDBRANCH  22  28
ENDBRANCH  21  23
ENDBRANCH  20  21
ENDBRANCH   7  20
TORSDOF 6
ENDMDL
MODEL 5
REMARK VINA RESULT:     -13.9      2.988     11.246
REMARK  Name = 67335295
REMARK  6 active torsions:
REMARK  status: ('A' for Active; 'I' for Inactive)
REMARK    1  A    between atoms: N_2  and  C_14
REMARK    2  A    between atoms: C_7  and  O_20
REMARK    3  A    between atoms: O_20  and  C_21
REMARK    4  A    between atoms: C_21  and  C_23
REMARK    5  A    between atoms: C_22  and  C_28
REMARK    6  A    between atoms: C_28  and  N_30
REMARK                            x       y       z     vdW  Elec       q    Type
REMARK                         _______ _______ _______ _____ _____    ______ ____
ROOT
ATOM      1  O   UNL     1      33.820 -15.247 -25.110  0.00  0.00    -0.270 OA
ATOM      2  N   UNL     1      34.259 -15.278 -22.788  0.00  0.00    -0.265 N 
ATOM      3  C   UNL     1      34.700 -16.264 -21.809  0.00  0.00    +0.124 C 
ATOM      4  C   UNL     1      34.863 -17.483 -22.651  0.00  0.00    +0.036 C 
ATOM      5  C   UNL     1      34.155 -15.793 -24.075  0.00  0.00    +0.249 C 
ATOM      6  C   UNL     1      34.543 -17.205 -23.980  0.00  0.00    +0.054 C 
ATOM      7  C   UNL     1      35.266 -18.753 -22.280  0.00  0.00    +0.137 C 
ATOM      8  C   UNL     1      34.608 -18.158 -24.978  0.00  0.00    +0.004 C 
ATOM      9  C   UNL     1      35.340 -19.736 -23.271  0.00  0.00    +0.037 C 
ATOM     10  C   UNL     1      35.014 -19.441 -24.609  0.00  0.00    +0.003 C 
ENDROOT
BRANCH   2  14
ATOM     11  O   UNL     1      32.216 -14.813 -21.049  0.00  0.00    -0.273 OA
ATOM     12  O   UNL     1      31.579 -10.525 -22.601  0.00  0.00    -0.275 OA
ATOM     13  N   UNL     1      31.917 -12.684 -21.869  0.00  0.00    -0.254 N 
ATOM     14  C   UNL     1      33.961 -13.909 -22.457  0.00  0.00    +0.153 C 
ATOM     15  C   UNL     1      33.943 -13.034 -23.701  0.00  0.00    +0.039 C 
ATOM     16  C   UNL     1      33.593 -11.610 -23.308  0.00  0.00    +0.088 C 
ATOM     17  C   UNL     1      32.620 -13.882 -21.745  0.00  0.00    +0.246 C 
ATOM     18  C   UNL     1      32.268 -11.545 -22.587  0.00  0.00    +0.228 C 
ATOM     19  H   UNL     1      31.062 -12.639 -21.384  0.00  0.00    +0.158 HD
ENDBRANCH   2  14
BRANCH   7  20
ATOM     20  O   UNL     1      35.580 -19.047 -20.993  0.00  0.00    -0.471 OA
BRANCH  20  21
ATOM     21  C   UNL     1      36.504 -20.113 -20.774  0.00  0.00    +0.232 C 
BRANCH  21  23
ATOM     22  C   UNL     1      35.024 -22.634 -17.632  0.00  0.00    -0.043 C 
ATOM     23  C   UNL     1      35.986 -20.993 -19.674  0.00  0.00    +0.021 C 
ATOM     24  C   UNL     1      36.329 -22.141 -17.576  0.00  0.00    -0.007 C 
ATOM     25  C   UNL     1      34.202 -22.307 -18.710  0.00  0.00    -0.007 C 
ATOM     26  C   UNL     1      36.809 -21.320 -18.597  0.00  0.00    -0.001 C 
ATOM     27  C   UNL     1      34.682 -21.486 -19.731  0.00  0.00    -0.001 C 
BRANCH  22  28
ATOM     28  C   UNL     1      34.512 -23.511 -16.541  0.00  0.00    -0.050 C 
BRANCH  28  30
ATOM     29  O   UNL     1      36.463 -25.122 -13.192  0.00  0.00    -0.358 OA
ATOM     30  N   UNL     1      35.557 -23.883 -15.589  0.00  0.00    +0.393 N 
ATOM     31  C   UNL     1      35.297 -23.288 -14.271  0.00  0.00    -0.044 C 
ATOM     32  C   UNL     1      35.659 -25.344 -15.471  0.00  0.00    -0.044 C 
ATOM     33  C   UNL     1      36.746 -25.708 -14.464  0.00  0.00    +0.119 C 
ATOM     34  C   UNL     1      36.394 -23.699 -13.293  0.00  0.00    +0.119 C 
ATOM     35  H   UNL     1      36.444 -23.521 -15.941  0.00  0.00    -0.079 HD
ENDBRANCH  28  30
ENDBRANCH  22  28
ENDBRANCH  21  23
ENDBRANCH  20  21
ENDBRANCH   7  20
TORSDOF 6
ENDMDL
MODEL 6
REMARK VINA RESULT:     -13.8      6.260     11.035
REMARK  Name = 67335295
REMARK  6 active torsions:
REMARK  status: ('A' for Active; 'I' for Inactive)
REMARK    1  A    between atoms: N_2  and  C_14
REMARK    2  A    between atoms: C_7  and  O_20
REMARK    3  A    between atoms: O_20  and  C_21
REMARK    4  A    between atoms: C_21  and  C_23
REMARK    5  A    between atoms: C_22  and  C_28
REMARK    6  A    between atoms: C_28  and  N_30
REMARK                            x       y       z     vdW  Elec       q    Type
REMARK                         _______ _______ _______ _____ _____    ______ ____
ROOT
ATOM      1  O   UNL     1      34.964 -18.426 -25.279  0.00  0.00    -0.270 OA
ATOM      2  N   UNL     1      35.141 -17.616 -23.067  0.00  0.00    -0.265 N 
ATOM      3  C   UNL     1      34.775 -16.398 -22.354  0.00  0.00    +0.124 C 
ATOM      4  C   UNL     1      34.154 -15.582 -23.437  0.00  0.00    +0.036 C 
ATOM      5  C   UNL     1      34.802 -17.585 -24.414  0.00  0.00    +0.249 C 
ATOM      6  C   UNL     1      34.171 -16.280 -24.645  0.00  0.00    +0.054 C 
ATOM      7  C   UNL     1      33.609 -14.314 -23.371  0.00  0.00    +0.137 C 
ATOM      8  C   UNL     1      33.658 -15.758 -25.816  0.00  0.00    +0.004 C 
ATOM      9  C   UNL     1      33.083 -13.761 -24.543  0.00  0.00    +0.037 C 
ATOM     10  C   UNL     1      33.107 -14.477 -25.755  0.00  0.00    +0.003 C 
ENDROOT
BRANCH   2  14
ATOM     11  O   UNL     1      33.584 -19.726 -22.335  0.00  0.00    -0.273 OA
ATOM     12  O   UNL     1      36.617 -21.152 -19.177  0.00  0.00    -0.275 OA
ATOM     13  N   UNL     1      35.117 -20.391 -20.753  0.00  0.00    -0.254 N 
ATOM     14  C   UNL     1      35.787 -18.738 -22.438  0.00  0.00    +0.153 C 
ATOM     15  C   UNL     1      36.771 -18.280 -21.373  0.00  0.00    +0.039 C 
ATOM     16  C   UNL     1      37.403 -19.494 -20.716  0.00  0.00    +0.088 C 
ATOM     17  C   UNL     1      34.709 -19.626 -21.845  0.00  0.00    +0.246 C 
ATOM     18  C   UNL     1      36.358 -20.408 -20.123  0.00  0.00    +0.228 C 
ATOM     19  H   UNL     1      34.438 -20.998 -20.379  0.00  0.00    +0.158 HD
ENDBRANCH   2  14
BRANCH   7  20
ATOM     20  O   UNL     1      33.584 -13.615 -22.208  0.00  0.00    -0.471 OA
BRANCH  20  21
ATOM     21  C   UNL     1      32.301 -13.290 -21.670  0.00  0.00    +0.232 C 
BRANCH  21  23
ATOM     22  C   UNL     1      31.944  -9.025 -21.363  0.00  0.00    -0.043 C 
ATOM     23  C   UNL     1      32.178 -11.798 -21.563  0.00  0.00    +0.021 C 
ATOM     24  C   UNL     1      31.889  -9.815 -20.214  0.00  0.00    -0.007 C 
ATOM     25  C   UNL     1      32.117  -9.622 -22.612  0.00  0.00    -0.007 C 
ATOM     26  C   UNL     1      32.005 -11.201 -20.314  0.00  0.00    -0.001 C 
ATOM     27  C   UNL     1      32.234 -11.009 -22.711  0.00  0.00    -0.001 C 
BRANCH  22  28
ATOM     28  C   UNL     1      31.819  -7.543 -21.256  0.00  0.00    -0.050 C 
BRANCH  28  30
ATOM     29  O   UNL     1      32.574  -4.700 -24.250  0.00  0.00    -0.358 OA
ATOM     30  N   UNL     1      31.884  -6.883 -22.559  0.00  0.00    +0.393 N 
ATOM     31  C   UNL     1      31.117  -5.630 -22.546  0.00  0.00    -0.044 C 
ATOM     32  C   UNL     1      33.278  -6.617 -22.939  0.00  0.00    -0.044 C 
ATOM     33  C   UNL     1      33.320  -5.917 -24.295  0.00  0.00    +0.119 C 
ATOM     34  C   UNL     1      31.210  -4.954 -23.911  0.00  0.00    +0.119 C 
ATOM     35  H   UNL     1      31.471  -7.511 -23.248  0.00  0.00    -0.079 HD
ENDBRANCH  28  30
ENDBRANCH  22  28
ENDBRANCH  21  23
ENDBRANCH  20  21
ENDBRANCH   7  20
TORSDOF 6
ENDMDL
MODEL 7
REMARK VINA RESULT:     -13.7      2.298      5.345
REMARK  Name = 67335295
REMARK  6 active torsions:
REMARK  status: ('A' for Active; 'I' for Inactive)
REMARK    1  A    between atoms: N_2  and  C_14
REMARK    2  A    between atoms: C_7  and  O_20
REMARK    3  A    between atoms: O_20  and  C_21
REMARK    4  A    between atoms: C_21  and  C_23
REMARK    5  A    between atoms: C_22  and  C_28
REMARK    6  A    between atoms: C_28  and  N_30
REMARK                            x       y       z     vdW  Elec       q    Type
REMARK                         _______ _______ _______ _____ _____    ______ ____
ROOT
ATOM      1  O   UNL     1      31.951 -25.176 -13.128  0.00  0.00    -0.270 OA
ATOM      2  N   UNL     1      31.714 -23.743 -14.992  0.00  0.00    -0.265 N 
ATOM      3  C   UNL     1      32.602 -23.120 -15.967  0.00  0.00    +0.124 C 
ATOM      4  C   UNL     1      33.938 -23.616 -15.528  0.00  0.00    +0.036 C 
ATOM      5  C   UNL     1      32.387 -24.527 -14.062  0.00  0.00    +0.249 C 
ATOM      6  C   UNL     1      33.810 -24.440 -14.410  0.00  0.00    +0.054 C 
ATOM      7  C   UNL     1      35.184 -23.363 -16.069  0.00  0.00    +0.137 C 
ATOM      8  C   UNL     1      34.892 -25.037 -13.795  0.00  0.00    +0.004 C 
ATOM      9  C   UNL     1      36.298 -23.955 -15.465  0.00  0.00    +0.037 C 
ATOM     10  C   UNL     1      36.153 -24.785 -14.338  0.00  0.00    +0.003 C 
ENDROOT
BRANCH   2  14
ATOM     11  O   UNL     1      30.205 -25.636 -16.237  0.00  0.00    -0.273 OA
ATOM     12  O   UNL     1      26.685 -22.734 -16.862  0.00  0.00    -0.275 OA
ATOM     13  N   UNL     1      28.479 -24.147 -16.549  0.00  0.00    -0.254 N 
ATOM     14  C   UNL     1      30.286 -23.565 -14.994  0.00  0.00    +0.153 C 
ATOM     15  C   UNL     1      29.911 -22.132 -15.337  0.00  0.00    +0.039 C 
ATOM     16  C   UNL     1      28.399 -22.000 -15.360  0.00  0.00    +0.088 C 
ATOM     17  C   UNL     1      29.695 -24.544 -15.993  0.00  0.00    +0.246 C 
ATOM     18  C   UNL     1      27.773 -22.967 -16.337  0.00  0.00    +0.228 C 
ATOM     19  H   UNL     1      28.066 -24.788 -17.172  0.00  0.00    +0.158 HD
ENDBRANCH   2  14
BRANCH   7  20
ATOM     20  O   UNL     1      35.334 -22.562 -17.155  0.00  0.00    -0.471 OA
BRANCH  20  21
ATOM     21  C   UNL     1      34.421 -22.754 -18.238  0.00  0.00    +0.232 C 
BRANCH  21  23
ATOM     22  C   UNL     1      35.306 -19.923 -21.339  0.00  0.00    -0.043 C 
ATOM     23  C   UNL     1      34.731 -21.762 -19.321  0.00  0.00    +0.021 C 
ATOM     24  C   UNL     1      33.980 -20.193 -20.997  0.00  0.00    -0.007 C 
ATOM     25  C   UNL     1      36.344 -20.573 -20.671  0.00  0.00    -0.007 C 
ATOM     26  C   UNL     1      33.693 -21.112 -19.988  0.00  0.00    -0.001 C 
ATOM     27  C   UNL     1      36.056 -21.492 -19.662  0.00  0.00    -0.001 C 
BRANCH  22  28
ATOM     28  C   UNL     1      35.612 -18.940 -22.417  0.00  0.00    -0.050 C 
BRANCH  28  30
ATOM     29  O   UNL     1      34.638 -14.866 -22.152  0.00  0.00    -0.358 OA
ATOM     30  N   UNL     1      34.848 -17.702 -22.275  0.00  0.00    +0.393 N 
ATOM     31  C   UNL     1      35.292 -16.949 -21.094  0.00  0.00    -0.044 C 
ATOM     32  C   UNL     1      34.974 -16.870 -23.480  0.00  0.00    -0.044 C 
ATOM     33  C   UNL     1      34.179 -15.579 -23.303  0.00  0.00    +0.119 C 
ATOM     34  C   UNL     1      34.489 -15.657 -20.973  0.00  0.00    +0.119 C 
ATOM     35  H   UNL     1      33.867 -17.952 -22.152  0.00  0.00    -0.079 HD
ENDBRANCH  28  30
ENDBRANCH  22  28
ENDBRANCH  21  23
ENDBRANCH  20  21
ENDBRANCH   7  20
TORSDOF 6
ENDMDL
MODEL 8
REMARK VINA RESULT:     -13.4     10.017     14.738
REMARK  Name = 67335295
REMARK  6 active torsions:
REMARK  status: ('A' for Active; 'I' for Inactive)
REMARK    1  A    between atoms: N_2  and  C_14
REMARK    2  A    between atoms: C_7  and  O_20
REMARK    3  A    between atoms: O_20  and  C_21
REMARK    4  A    between atoms: C_21  and  C_23
REMARK    5  A    between atoms: C_22  and  C_28
REMARK    6  A    between atoms: C_28  and  N_30
REMARK                            x       y       z     vdW  Elec       q    Type
REMARK                         _______ _______ _______ _____ _____    ______ ____
ROOT
ATOM      1  O   UNL     1      32.000 -13.964 -20.661  0.00  0.00    -0.270 OA
ATOM      2  N   UNL     1      32.781 -13.080 -22.709  0.00  0.00    -0.265 N 
ATOM      3  C   UNL     1      33.003 -11.754 -23.273  0.00  0.00    +0.124 C 
ATOM      4  C   UNL     1      32.582 -10.868 -22.150  0.00  0.00    +0.036 C 
ATOM      5  C   UNL     1      32.289 -13.048 -21.410  0.00  0.00    +0.249 C 
ATOM      6  C   UNL     1      32.163 -11.629 -21.058  0.00  0.00    +0.054 C 
ATOM      7  C   UNL     1      32.566  -9.487 -22.086  0.00  0.00    +0.137 C 
ATOM      8  C   UNL     1      31.720 -11.061 -19.879  0.00  0.00    +0.004 C 
ATOM      9  C   UNL     1      32.121  -8.887 -20.904  0.00  0.00    +0.037 C 
ATOM     10  C   UNL     1      31.702  -9.668 -19.810  0.00  0.00    +0.003 C 
ENDROOT
BRANCH   2  14
ATOM     11  O   UNL     1      34.876 -14.607 -21.877  0.00  0.00    -0.273 OA
ATOM     12  O   UNL     1      35.304 -16.648 -25.982  0.00  0.00    -0.275 OA
ATOM     13  N   UNL     1      35.070 -15.586 -23.950  0.00  0.00    -0.254 N 
ATOM     14  C   UNL     1      33.046 -14.300 -23.425  0.00  0.00    +0.153 C 
ATOM     15  C   UNL     1      32.983 -14.080 -24.929  0.00  0.00    +0.039 C 
ATOM     16  C   UNL     1      33.301 -15.382 -25.642  0.00  0.00    +0.088 C 
ATOM     17  C   UNL     1      34.413 -14.804 -23.000  0.00  0.00    +0.246 C 
ATOM     18  C   UNL     1      34.652 -15.920 -25.235  0.00  0.00    +0.228 C 
ATOM     19  H   UNL     1      35.942 -15.949 -23.675  0.00  0.00    +0.158 HD
ENDBRANCH   2  14
BRANCH   7  20
ATOM     20  O   UNL     1      32.967  -8.726 -23.136  0.00  0.00    -0.471 OA
BRANCH  20  21
ATOM     21  C   UNL     1      33.831  -7.625 -22.852  0.00  0.00    +0.232 C 
BRANCH  21  23
ATOM     22  C   UNL     1      34.023  -5.078 -26.300  0.00  0.00    -0.043 C 
ATOM     23  C   UNL     1      33.899  -6.732 -24.057  0.00  0.00    +0.021 C 
ATOM     24  C   UNL     1      32.838  -5.175 -25.569  0.00  0.00    -0.007 C 
ATOM     25  C   UNL     1      35.145  -5.808 -25.909  0.00  0.00    -0.007 C 
ATOM     26  C   UNL     1      32.776  -6.003 -24.448  0.00  0.00    -0.001 C 
ATOM     27  C   UNL     1      35.083  -6.635 -24.787  0.00  0.00    -0.001 C 
BRANCH  22  28
ATOM     28  C   UNL     1      34.088  -4.194 -27.499  0.00  0.00    -0.050 C 
BRANCH  28  30
ATOM     29  O   UNL     1      31.016  -2.484 -29.793  0.00  0.00    -0.358 OA
ATOM     30  N   UNL     1      32.763  -3.883 -28.033  0.00  0.00    +0.393 N 
ATOM     31  C   UNL     1      32.439  -2.464 -27.827  0.00  0.00    -0.044 C 
ATOM     32  C   UNL     1      32.686  -4.214 -29.463  0.00  0.00    -0.044 C 
ATOM     33  C   UNL     1      31.300  -3.869 -30.000  0.00  0.00    +0.119 C 
ATOM     34  C   UNL     1      31.058  -2.161 -28.402  0.00  0.00    +0.119 C 
ATOM     35  H   UNL     1      32.082  -4.450 -27.529  0.00  0.00    -0.079 HD
ENDBRANCH  28  30
ENDBRANCH  22  28
ENDBRANCH  21  23
ENDBRANCH  20  21
ENDBRANCH   7  20
TORSDOF 6
ENDMDL
MODEL 9
REMARK VINA RESULT:     -13.1      9.931     14.720
REMARK  Name = 67335295
REMARK  6 active torsions:
REMARK  status: ('A' for Active; 'I' for Inactive)
REMARK    1  A    between atoms: N_2  and  C_14
REMARK    2  A    between atoms: C_7  and  O_20
REMARK    3  A    between atoms: O_20  and  C_21
REMARK    4  A    between atoms: C_21  and  C_23
REMARK    5  A    between atoms: C_22  and  C_28
REMARK    6  A    between atoms: C_28  and  N_30
REMARK                            x       y       z     vdW  Elec       q    Type
REMARK                         _______ _______ _______ _____ _____    ______ ____
ROOT
ATOM      1  O   UNL     1      32.011 -14.003 -20.621  0.00  0.00    -0.270 OA
ATOM      2  N   UNL     1      32.802 -13.149 -22.678  0.00  0.00    -0.265 N 
ATOM      3  C   UNL     1      33.034 -11.831 -23.256  0.00  0.00    +0.124 C 
ATOM      4  C   UNL     1      32.619 -10.930 -22.145  0.00  0.00    +0.036 C 
ATOM      5  C   UNL     1      32.308 -13.099 -21.380  0.00  0.00    +0.249 C 
ATOM      6  C   UNL     1      32.192 -11.675 -21.044  0.00  0.00    +0.054 C 
ATOM      7  C   UNL     1      32.613  -9.548 -22.096  0.00  0.00    +0.137 C 
ATOM      8  C   UNL     1      31.751 -11.091 -19.873  0.00  0.00    +0.004 C 
ATOM      9  C   UNL     1      32.171  -8.931 -20.922  0.00  0.00    +0.037 C 
ATOM     10  C   UNL     1      31.744  -9.696 -19.820  0.00  0.00    +0.003 C 
ENDROOT
BRANCH   2  14
ATOM     11  O   UNL     1      34.883 -14.684 -21.824  0.00  0.00    -0.273 OA
ATOM     12  O   UNL     1      35.303 -16.774 -25.905  0.00  0.00    -0.275 OA
ATOM     13  N   UNL     1      35.072 -15.687 -23.886  0.00  0.00    -0.254 N 
ATOM     14  C   UNL     1      33.058 -14.380 -23.380  0.00  0.00    +0.153 C 
ATOM     15  C   UNL     1      33.000 -14.176 -24.886  0.00  0.00    +0.039 C 
ATOM     16  C   UNL     1      33.309 -15.488 -25.583  0.00  0.00    +0.088 C 
ATOM     17  C   UNL     1      34.420 -14.890 -22.946  0.00  0.00    +0.246 C 
ATOM     18  C   UNL     1      34.655 -16.032 -25.168  0.00  0.00    +0.228 C 
ATOM     19  H   UNL     1      35.942 -16.054 -23.605  0.00  0.00    +0.158 HD
ENDBRANCH   2  14
BRANCH   7  20
ATOM     20  O   UNL     1      33.021  -8.802 -23.155  0.00  0.00    -0.471 OA
BRANCH  20  21
ATOM     21  C   UNL     1      33.843  -7.668 -22.875  0.00  0.00    +0.232 C 
BRANCH  21  23
ATOM     22  C   UNL     1      33.753  -5.004 -26.239  0.00  0.00    -0.043 C 
ATOM     23  C   UNL     1      33.811  -6.738 -24.053  0.00  0.00    +0.021 C 
ATOM     24  C   UNL     1      34.916  -5.720 -25.945  0.00  0.00    -0.007 C 
ATOM     25  C   UNL     1      32.621  -5.157 -25.439  0.00  0.00    -0.007 C 
ATOM     26  C   UNL     1      34.944  -6.586 -24.852  0.00  0.00    -0.001 C 
ATOM     27  C   UNL     1      32.649  -6.024 -24.347  0.00  0.00    -0.001 C 
BRANCH  22  28
ATOM     28  C   UNL     1      33.723  -4.078 -27.407  0.00  0.00    -0.050 C 
BRANCH  28  30
ATOM     29  O   UNL     1      36.833  -1.934 -29.237  0.00  0.00    -0.358 OA
ATOM     30  N   UNL     1      35.060  -3.631 -27.796  0.00  0.00    +0.393 N 
ATOM     31  C   UNL     1      35.257  -3.779 -29.244  0.00  0.00    -0.044 C 
ATOM     32  C   UNL     1      35.279  -2.234 -27.397  0.00  0.00    -0.044 C 
ATOM     33  C   UNL     1      36.674  -1.786 -27.825  0.00  0.00    +0.119 C 
ATOM     34  C   UNL     1      36.653  -3.295 -29.627  0.00  0.00    +0.119 C 
ATOM     35  H   UNL     1      35.739  -4.218 -27.312  0.00  0.00    -0.079 HD
ENDBRANCH  28  30
ENDBRANCH  22  28
ENDBRANCH  21  23
ENDBRANCH  20  21
ENDBRANCH   7  20
TORSDOF 6
ENDMDL
