MODEL 1
REMARK VINA RESULT:     -12.7      0.000      0.000
REMARK  Name = 24832041
REMARK  6 active torsions:
REMARK  status: ('A' for Active; 'I' for Inactive)
REMARK    1  A    between atoms: C_1  and  C_18
REMARK    2  A    between atoms: C_4  and  C_7
REMARK    3  A    between atoms: C_10  and  C_15
REMARK    4  A    between atoms: C_18  and  N_19
REMARK    5  A    between atoms: C_18  and  C_23
REMARK    6  A    between atoms: C_23  and  C_26
REMARK                            x       y       z     vdW  Elec       q    Type
REMARK                         _______ _______ _______ _____ _____    ______ ____
ROOT
ATOM      1  C   UNL     1      32.580 -12.320 -22.278  0.00  0.00    -0.042 C 
ATOM      2  C   UNL     1      32.443 -13.411 -21.420  0.00  0.00    -0.006 C 
ATOM      3  C   UNL     1      33.321 -12.446 -23.453  0.00  0.00    -0.006 C 
ATOM      4  C   UNL     1      33.789 -14.754 -22.911  0.00  0.00    -0.000 C 
ATOM      5  C   UNL     1      33.047 -14.628 -21.736  0.00  0.00    -0.000 C 
ATOM      6  C   UNL     1      33.926 -13.662 -23.769  0.00  0.00    -0.000 C 
ENDROOT
BRANCH   4   7
ATOM      7  C   UNL     1      34.414 -16.015 -23.240  0.00  0.00    +0.000 C 
ATOM      8  C   UNL     1      35.094 -16.734 -22.255  0.00  0.00    +0.005 C 
ATOM      9  C   UNL     1      34.338 -16.514 -24.539  0.00  0.00    +0.000 C 
ATOM     10  C   UNL     1      35.698 -17.951 -22.572  0.00  0.00    +0.053 C 
ATOM     11  C   UNL     1      34.942 -17.731 -24.856  0.00  0.00    +0.000 C 
ATOM     12  C   UNL     1      35.622 -18.450 -23.873  0.00  0.00    +0.005 C 
BRANCH  10  15
ATOM     13  O   UNL     1      35.793 -19.311 -20.651  0.00  0.00    -0.270 OA
ATOM     14  N   UNL     1      37.795 -18.732 -21.609  0.00  0.00    -0.325 N 
ATOM     15  C   UNL     1      36.405 -18.701 -21.546  0.00  0.00    +0.243 C 
ATOM     16  H   UNL     1      38.308 -19.229 -20.931  0.00  0.00    +0.145 HD
ATOM     17  H   UNL     1      38.266 -18.256 -22.330  0.00  0.00    +0.145 HD
ENDBRANCH  10  15
ENDBRANCH   4   7
BRANCH   1  18
ATOM     18  C   UNL     1      31.934 -11.020 -21.941  0.00  0.00    -0.038 C 
BRANCH  18  19
ATOM     19  N   UNL     1      30.477 -11.163 -21.729  0.00  0.00    +0.384 N 
ATOM     20  H   UNL     1      29.977 -10.553 -22.377  0.00  0.00    -0.089 HD
ATOM     21  H   UNL     1      30.245 -10.902 -20.770  0.00  0.00    -0.089 HD
ATOM     22  H   UNL     1      30.202 -12.130 -21.894  0.00  0.00    -0.089 HD
ENDBRANCH  18  19
BRANCH  18  23
ATOM     23  C   UNL     1      32.157  -9.901 -22.999  0.00  0.00    +0.011 C 
BRANCH  23  26
ATOM     24  F   UNL     1      30.771  -7.819 -24.335  0.00  0.00    -0.205 F 
ATOM     25  F   UNL     1      32.933  -6.634 -19.453  0.00  0.00    -0.204 F 
ATOM     26  C   UNL     1      31.999  -8.511 -22.425  0.00  0.00    +0.006 C 
ATOM     27  C   UNL     1      31.303  -7.535 -23.138  0.00  0.00    +0.136 C 
ATOM     28  C   UNL     1      32.549  -8.208 -21.180  0.00  0.00    +0.028 C 
ATOM     29  C   UNL     1      32.404  -6.927 -20.648  0.00  0.00    +0.140 C 
ATOM     30  C   UNL     1      31.159  -6.254 -22.606  0.00  0.00    +0.032 C 
ATOM     31  C   UNL     1      31.708  -5.949 -21.361  0.00  0.00    +0.032 C 
ENDBRANCH  23  26
ENDBRANCH  18  23
ENDBRANCH   1  18
TORSDOF 6
ENDMDL
MODEL 2
REMARK VINA RESULT:     -12.7      4.994      8.479
REMARK  Name = 24832041
REMARK  6 active torsions:
REMARK  status: ('A' for Active; 'I' for Inactive)
REMARK    1  A    between atoms: C_1  and  C_18
REMARK    2  A    between atoms: C_4  and  C_7
REMARK    3  A    between atoms: C_10  and  C_15
REMARK    4  A    between atoms: C_18  and  N_19
REMARK    5  A    between atoms: C_18  and  C_23
REMARK    6  A    between atoms: C_23  and  C_26
REMARK                            x       y       z     vdW  Elec       q    Type
REMARK                         _______ _______ _______ _____ _____    ______ ____
ROOT
ATOM      1  C   UNL     1      34.807 -19.756 -21.829  0.00  0.00    -0.042 C 
ATOM      2  C   UNL     1      36.021 -20.171 -21.283  0.00  0.00    -0.006 C 
ATOM      3  C   UNL     1      33.606 -20.126 -21.223  0.00  0.00    -0.006 C 
ATOM      4  C   UNL     1      34.835 -21.329 -19.524  0.00  0.00    -0.000 C 
ATOM      5  C   UNL     1      36.035 -20.958 -20.131  0.00  0.00    -0.000 C 
ATOM      6  C   UNL     1      33.620 -20.913 -20.071  0.00  0.00    -0.000 C 
ENDROOT
BRANCH   4   7
ATOM      7  C   UNL     1      34.850 -22.143 -18.330  0.00  0.00    +0.000 C 
ATOM      8  C   UNL     1      36.000 -22.205 -17.542  0.00  0.00    +0.005 C 
ATOM      9  C   UNL     1      33.716 -22.867 -17.965  0.00  0.00    +0.000 C 
ATOM     10  C   UNL     1      36.015 -22.991 -16.390  0.00  0.00    +0.053 C 
ATOM     11  C   UNL     1      33.731 -23.653 -16.812  0.00  0.00    +0.000 C 
ATOM     12  C   UNL     1      34.880 -23.715 -16.024  0.00  0.00    +0.005 C 
BRANCH  10  15
ATOM     13  O   UNL     1      38.345 -22.898 -16.057  0.00  0.00    -0.270 OA
ATOM     14  N   UNL     1      37.050 -23.278 -14.203  0.00  0.00    -0.325 N 
ATOM     15  C   UNL     1      37.213 -23.054 -15.567  0.00  0.00    +0.243 C 
ATOM     16  H   UNL     1      37.838 -23.327 -13.614  0.00  0.00    +0.145 HD
ATOM     17  H   UNL     1      36.147 -23.386 -13.826  0.00  0.00    +0.145 HD
ENDBRANCH  10  15
ENDBRANCH   4   7
BRANCH   1  18
ATOM     18  C   UNL     1      34.791 -18.915 -23.060  0.00  0.00    -0.038 C 
BRANCH  18  19
ATOM     19  N   UNL     1      34.994 -19.719 -24.284  0.00  0.00    +0.384 N 
ATOM     20  H   UNL     1      34.260 -19.503 -24.959  0.00  0.00    -0.089 HD
ATOM     21  H   UNL     1      34.957 -20.712 -24.049  0.00  0.00    -0.089 HD
ATOM     22  H   UNL     1      35.903 -19.499 -24.689  0.00  0.00    -0.089 HD
ENDBRANCH  18  19
BRANCH  18  23
ATOM     23  C   UNL     1      35.839 -17.764 -23.062  0.00  0.00    +0.011 C 
BRANCH  23  26
ATOM     24  F   UNL     1      35.132 -16.826 -20.481  0.00  0.00    -0.205 F 
ATOM     25  F   UNL     1      34.162 -13.478 -24.696  0.00  0.00    -0.204 F 
ATOM     26  C   UNL     1      35.220 -16.407 -22.816  0.00  0.00    +0.006 C 
ATOM     27  C   UNL     1      34.897 -16.011 -21.518  0.00  0.00    +0.136 C 
ATOM     28  C   UNL     1      34.972 -15.552 -23.889  0.00  0.00    +0.028 C 
ATOM     29  C   UNL     1      34.400 -14.300 -23.665  0.00  0.00    +0.140 C 
ATOM     30  C   UNL     1      34.325 -14.758 -21.294  0.00  0.00    +0.032 C 
ATOM     31  C   UNL     1      34.077 -13.902 -22.367  0.00  0.00    +0.032 C 
ENDBRANCH  23  26
ENDBRANCH  18  23
ENDBRANCH   1  18
TORSDOF 6
ENDMDL
MODEL 3
REMARK VINA RESULT:     -12.4      0.867      1.655
REMARK  Name = 24832041
REMARK  6 active torsions:
REMARK  status: ('A' for Active; 'I' for Inactive)
REMARK    1  A    between atoms: C_1  and  C_18
REMARK    2  A    between atoms: C_4  and  C_7
REMARK    3  A    between atoms: C_10  and  C_15
REMARK    4  A    between atoms: C_18  and  N_19
REMARK    5  A    between atoms: C_18  and  C_23
REMARK    6  A    between atoms: C_23  and  C_26
REMARK                            x       y       z     vdW  Elec       q    Type
REMARK                         _______ _______ _______ _____ _____    ______ ____
ROOT
ATOM      1  C   UNL     1      32.555 -12.455 -22.086  0.00  0.00    -0.042 C 
ATOM      2  C   UNL     1      32.543 -13.507 -21.171  0.00  0.00    -0.006 C 
ATOM      3  C   UNL     1      33.189 -12.612 -23.319  0.00  0.00    -0.006 C 
ATOM      4  C   UNL     1      33.799 -14.872 -22.719  0.00  0.00    -0.000 C 
ATOM      5  C   UNL     1      33.164 -14.715 -21.486  0.00  0.00    -0.000 C 
ATOM      6  C   UNL     1      33.811 -13.819 -23.635  0.00  0.00    -0.000 C 
ENDROOT
BRANCH   4   7
ATOM      7  C   UNL     1      34.443 -16.124 -23.046  0.00  0.00    +0.000 C 
ATOM      8  C   UNL     1      35.054 -16.878 -22.043  0.00  0.00    +0.005 C 
ATOM      9  C   UNL     1      34.453 -16.580 -24.364  0.00  0.00    +0.000 C 
ATOM     10  C   UNL     1      35.675 -18.086 -22.358  0.00  0.00    +0.053 C 
ATOM     11  C   UNL     1      35.075 -17.788 -24.679  0.00  0.00    +0.000 C 
ATOM     12  C   UNL     1      35.686 -18.542 -23.677  0.00  0.00    +0.005 C 
BRANCH  10  15
ATOM     13  O   UNL     1      35.643 -19.577 -20.535  0.00  0.00    -0.270 OA
ATOM     14  N   UNL     1      37.698 -18.828 -21.222  0.00  0.00    -0.325 N 
ATOM     15  C   UNL     1      36.310 -18.873 -21.313  0.00  0.00    +0.243 C 
ATOM     16  H   UNL     1      38.163 -19.347 -20.526  0.00  0.00    +0.145 HD
ATOM     17  H   UNL     1      38.216 -18.277 -21.852  0.00  0.00    +0.145 HD
ENDBRANCH  10  15
ENDBRANCH   4   7
BRANCH   1  18
ATOM     18  C   UNL     1      31.890 -11.164 -21.750  0.00  0.00    -0.038 C 
BRANCH  18  19
ATOM     19  N   UNL     1      30.417 -11.260 -21.837  0.00  0.00    +0.384 N 
ATOM     20  H   UNL     1      30.003 -10.938 -20.962  0.00  0.00    -0.089 HD
ATOM     21  H   UNL     1      30.149 -12.231 -22.003  0.00  0.00    -0.089 HD
ATOM     22  H   UNL     1      30.082 -10.678 -22.604  0.00  0.00    -0.089 HD
ENDBRANCH  18  19
BRANCH  18  23
ATOM     23  C   UNL     1      32.345  -9.962 -22.629  0.00  0.00    +0.011 C 
BRANCH  23  26
ATOM     24  F   UNL     1      32.976  -9.409 -19.920  0.00  0.00    -0.205 F 
ATOM     25  F   UNL     1      30.697  -5.369 -22.818  0.00  0.00    -0.204 F 
ATOM     26  C   UNL     1      32.081  -8.626 -21.974  0.00  0.00    +0.006 C 
ATOM     27  C   UNL     1      32.418  -8.423 -20.636  0.00  0.00    +0.136 C 
ATOM     28  C   UNL     1      31.501  -7.594 -22.712  0.00  0.00    +0.028 C 
ATOM     29  C   UNL     1      31.255  -6.360 -22.111  0.00  0.00    +0.140 C 
ATOM     30  C   UNL     1      32.172  -7.189 -20.035  0.00  0.00    +0.032 C 
ATOM     31  C   UNL     1      31.592  -6.157 -20.772  0.00  0.00    +0.032 C 
ENDBRANCH  23  26
ENDBRANCH  18  23
ENDBRANCH   1  18
TORSDOF 6
ENDMDL
MODEL 4
REMARK VINA RESULT:     -12.4      5.036      8.376
REMARK  Name = 24832041
REMARK  6 active torsions:
REMARK  status: ('A' for Active; 'I' for Inactive)
REMARK    1  A    between atoms: C_1  and  C_18
REMARK    2  A    between atoms: C_4  and  C_7
REMARK    3  A    between atoms: C_10  and  C_15
REMARK    4  A    between atoms: C_18  and  N_19
REMARK    5  A    between atoms: C_18  and  C_23
REMARK    6  A    between atoms: C_23  and  C_26
REMARK                            x       y       z     vdW  Elec       q    Type
REMARK                         _______ _______ _______ _____ _____    ______ ____
ROOT
ATOM      1  C   UNL     1      34.771 -19.794 -21.755  0.00  0.00    -0.042 C 
ATOM      2  C   UNL     1      35.964 -20.238 -21.185  0.00  0.00    -0.006 C 
ATOM      3  C   UNL     1      33.550 -20.152 -21.183  0.00  0.00    -0.006 C 
ATOM      4  C   UNL     1      34.716 -21.397 -19.471  0.00  0.00    -0.000 C 
ATOM      5  C   UNL     1      35.937 -21.039 -20.044  0.00  0.00    -0.000 C 
ATOM      6  C   UNL     1      33.522 -20.953 -20.041  0.00  0.00    -0.000 C 
ENDROOT
BRANCH   4   7
ATOM      7  C   UNL     1      34.688 -22.226 -18.287  0.00  0.00    +0.000 C 
ATOM      8  C   UNL     1      35.852 -22.419 -17.543  0.00  0.00    +0.005 C 
ATOM      9  C   UNL     1      33.498 -22.834 -17.890  0.00  0.00    +0.000 C 
ATOM     10  C   UNL     1      35.826 -23.219 -16.401  0.00  0.00    +0.053 C 
ATOM     11  C   UNL     1      33.471 -23.635 -16.747  0.00  0.00    +0.000 C 
ATOM     12  C   UNL     1      34.635 -23.828 -16.003  0.00  0.00    +0.005 C 
BRANCH  10  15
ATOM     13  O   UNL     1      37.654 -22.460 -15.125  0.00  0.00    -0.270 OA
ATOM     14  N   UNL     1      37.480 -24.725 -15.435  0.00  0.00    -0.325 N 
ATOM     15  C   UNL     1      37.038 -23.419 -15.623  0.00  0.00    +0.243 C 
ATOM     16  H   UNL     1      38.297 -24.899 -14.915  0.00  0.00    +0.145 HD
ATOM     17  H   UNL     1      36.975 -25.476 -15.823  0.00  0.00    +0.145 HD
ENDBRANCH  10  15
ENDBRANCH   4   7
BRANCH   1  18
ATOM     18  C   UNL     1      34.799 -18.938 -22.974  0.00  0.00    -0.038 C 
BRANCH  18  19
ATOM     19  N   UNL     1      35.189 -19.701 -24.180  0.00  0.00    +0.384 N 
ATOM     20  H   UNL     1      35.119 -20.701 -23.987  0.00  0.00    -0.089 HD
ATOM     21  H   UNL     1      36.150 -19.470 -24.432  0.00  0.00    -0.089 HD
ATOM     22  H   UNL     1      34.568 -19.460 -24.951  0.00  0.00    -0.089 HD
ENDBRANCH  18  19
BRANCH  18  23
ATOM     23  C   UNL     1      35.738 -17.701 -22.865  0.00  0.00    +0.011 C 
BRANCH  23  26
ATOM     24  F   UNL     1      34.937 -16.579 -25.344  0.00  0.00    -0.205 F 
ATOM     25  F   UNL     1      33.674 -13.774 -20.822  0.00  0.00    -0.204 F 
ATOM     26  C   UNL     1      34.994 -16.390 -22.979  0.00  0.00    +0.006 C 
ATOM     27  C   UNL     1      34.630 -15.897 -24.232  0.00  0.00    +0.136 C 
ATOM     28  C   UNL     1      34.670 -15.673 -21.826  0.00  0.00    +0.028 C 
ATOM     29  C   UNL     1      33.984 -14.463 -21.928  0.00  0.00    +0.140 C 
ATOM     30  C   UNL     1      33.944 -14.687 -24.333  0.00  0.00    +0.032 C 
ATOM     31  C   UNL     1      33.620 -13.970 -23.182  0.00  0.00    +0.032 C 
ENDBRANCH  23  26
ENDBRANCH  18  23
ENDBRANCH   1  18
TORSDOF 6
ENDMDL
MODEL 5
REMARK VINA RESULT:     -12.3      7.497     12.559
REMARK  Name = 24832041
REMARK  6 active torsions:
REMARK  status: ('A' for Active; 'I' for Inactive)
REMARK    1  A    between atoms: C_1  and  C_18
REMARK    2  A    between atoms: C_4  and  C_7
REMARK    3  A    between atoms: C_10  and  C_15
REMARK    4  A    between atoms: C_18  and  N_19
REMARK    5  A    between atoms: C_18  and  C_23
REMARK    6  A    between atoms: C_23  and  C_26
REMARK                            x       y       z     vdW  Elec       q    Type
REMARK                         _______ _______ _______ _____ _____    ______ ____
ROOT
ATOM      1  C   UNL     1      34.477 -22.182 -18.699  0.00  0.00    -0.042 C 
ATOM      2  C   UNL     1      33.339 -21.634 -19.291  0.00  0.00    -0.006 C 
ATOM      3  C   UNL     1      35.744 -21.791 -19.130  0.00  0.00    -0.006 C 
ATOM      4  C   UNL     1      34.736 -20.304 -20.747  0.00  0.00    -0.000 C 
ATOM      5  C   UNL     1      33.468 -20.695 -20.315  0.00  0.00    -0.000 C 
ATOM      6  C   UNL     1      35.874 -20.853 -20.154  0.00  0.00    -0.000 C 
ENDROOT
BRANCH   4   7
ATOM      7  C   UNL     1      34.870 -19.330 -21.807  0.00  0.00    +0.000 C 
ATOM      8  C   UNL     1      34.816 -17.967 -21.513  0.00  0.00    +0.005 C 
ATOM      9  C   UNL     1      35.053 -19.753 -23.123  0.00  0.00    +0.000 C 
ATOM     10  C   UNL     1      34.945 -17.028 -22.536  0.00  0.00    +0.053 C 
ATOM     11  C   UNL     1      35.182 -18.813 -24.146  0.00  0.00    +0.000 C 
ATOM     12  C   UNL     1      35.128 -17.451 -23.853  0.00  0.00    +0.005 C 
BRANCH  10  15
ATOM     13  O   UNL     1      35.078 -14.747 -23.110  0.00  0.00    -0.270 OA
ATOM     14  N   UNL     1      34.604 -15.237 -20.921  0.00  0.00    -0.325 N 
ATOM     15  C   UNL     1      34.891 -15.607 -22.231  0.00  0.00    +0.243 C 
ATOM     16  H   UNL     1      34.560 -14.284 -20.677  0.00  0.00    +0.145 HD
ATOM     17  H   UNL     1      34.445 -15.927 -20.237  0.00  0.00    +0.145 HD
ENDBRANCH  10  15
ENDBRANCH   4   7
BRANCH   1  18
ATOM     18  C   UNL     1      34.339 -23.185 -17.605  0.00  0.00    -0.038 C 
BRANCH  18  19
ATOM     19  N   UNL     1      32.928 -23.559 -17.369  0.00  0.00    +0.384 N 
ATOM     20  H   UNL     1      32.397 -22.731 -17.098  0.00  0.00    -0.089 HD
ATOM     21  H   UNL     1      32.880 -24.253 -16.623  0.00  0.00    -0.089 HD
ATOM     22  H   UNL     1      32.532 -23.951 -18.224  0.00  0.00    -0.089 HD
ENDBRANCH  18  19
BRANCH  18  23
ATOM     23  C   UNL     1      34.949 -22.735 -16.245  0.00  0.00    +0.011 C 
BRANCH  23  26
ATOM     24  F   UNL     1      37.652 -21.879 -16.169  0.00  0.00    -0.205 F 
ATOM     25  F   UNL     1      36.622 -27.009 -14.574  0.00  0.00    -0.204 F 
ATOM     26  C   UNL     1      36.086 -23.623 -15.792  0.00  0.00    +0.006 C 
ATOM     27  C   UNL     1      37.392 -23.135 -15.780  0.00  0.00    +0.136 C 
ATOM     28  C   UNL     1      35.825 -24.931 -15.384  0.00  0.00    +0.028 C 
ATOM     29  C   UNL     1      36.871 -25.753 -14.965  0.00  0.00    +0.140 C 
ATOM     30  C   UNL     1      38.439 -23.957 -15.361  0.00  0.00    +0.032 C 
ATOM     31  C   UNL     1      38.179 -25.265 -14.953  0.00  0.00    +0.032 C 
ENDBRANCH  23  26
ENDBRANCH  18  23
ENDBRANCH   1  18
TORSDOF 6
ENDMDL
MODEL 6
REMARK VINA RESULT:     -12.2      4.975      9.968
REMARK  Name = 24832041
REMARK  6 active torsions:
REMARK  status: ('A' for Active; 'I' for Inactive)
REMARK    1  A    between atoms: C_1  and  C_18
REMARK    2  A    between atoms: C_4  and  C_7
REMARK    3  A    between atoms: C_10  and  C_15
REMARK    4  A    between atoms: C_18  and  N_19
REMARK    5  A    between atoms: C_18  and  C_23
REMARK    6  A    between atoms: C_23  and  C_26
REMARK                            x       y       z     vdW  Elec       q    Type
REMARK                         _______ _______ _______ _____ _____    ______ ____
ROOT
ATOM      1  C   UNL     1      35.315 -17.052 -22.146  0.00  0.00    -0.042 C 
ATOM      2  C   UNL     1      34.924 -16.290 -21.045  0.00  0.00    -0.006 C 
ATOM      3  C   UNL     1      35.160 -16.544 -23.436  0.00  0.00    -0.006 C 
ATOM      4  C   UNL     1      34.224 -14.511 -22.524  0.00  0.00    -0.000 C 
ATOM      5  C   UNL     1      34.379 -15.020 -21.233  0.00  0.00    -0.000 C 
ATOM      6  C   UNL     1      34.615 -15.274 -23.625  0.00  0.00    -0.000 C 
ENDROOT
BRANCH   4   7
ATOM      7  C   UNL     1      33.660 -13.195 -22.719  0.00  0.00    +0.000 C 
ATOM      8  C   UNL     1      32.752 -12.680 -21.792  0.00  0.00    +0.005 C 
ATOM      9  C   UNL     1      34.022 -12.439 -23.833  0.00  0.00    +0.000 C 
ATOM     10  C   UNL     1      32.207 -11.410 -21.980  0.00  0.00    +0.053 C 
ATOM     11  C   UNL     1      33.477 -11.168 -24.021  0.00  0.00    +0.000 C 
ATOM     12  C   UNL     1      32.570 -10.654 -23.095  0.00  0.00    +0.005 C 
BRANCH  10  15
ATOM     13  O   UNL     1      30.053 -11.154 -21.063  0.00  0.00    -0.270 OA
ATOM     14  N   UNL     1      31.762 -10.041 -20.015  0.00  0.00    -0.325 N 
ATOM     15  C   UNL     1      31.263 -10.872 -21.013  0.00  0.00    +0.243 C 
ATOM     16  H   UNL     1      31.153  -9.657 -19.343  0.00  0.00    +0.145 HD
ATOM     17  H   UNL     1      32.724  -9.836 -19.979  0.00  0.00    +0.145 HD
ENDBRANCH  10  15
ENDBRANCH   4   7
BRANCH   1  18
ATOM     18  C   UNL     1      35.898 -18.409 -21.945  0.00  0.00    -0.038 C 
BRANCH  18  19
ATOM     19  N   UNL     1      37.035 -18.664 -22.855  0.00  0.00    +0.384 N 
ATOM     20  H   UNL     1      36.741 -18.507 -23.820  0.00  0.00    -0.089 HD
ATOM     21  H   UNL     1      37.347 -19.629 -22.748  0.00  0.00    -0.089 HD
ATOM     22  H   UNL     1      37.802 -18.031 -22.628  0.00  0.00    -0.089 HD
ENDBRANCH  18  19
BRANCH  18  23
ATOM     23  C   UNL     1      34.880 -19.574 -22.112  0.00  0.00    +0.011 C 
BRANCH  23  26
ATOM     24  F   UNL     1      32.448 -20.540 -21.017  0.00  0.00    -0.205 F 
ATOM     25  F   UNL     1      37.076 -22.080 -18.541  0.00  0.00    -0.204 F 
ATOM     26  C   UNL     1      34.819 -20.476 -20.900  0.00  0.00    +0.006 C 
ATOM     27  C   UNL     1      33.587 -20.913 -20.415  0.00  0.00    +0.136 C 
ATOM     28  C   UNL     1      35.998 -20.870 -20.268  0.00  0.00    +0.028 C 
ATOM     29  C   UNL     1      35.945 -21.702 -19.149  0.00  0.00    +0.140 C 
ATOM     30  C   UNL     1      33.534 -21.745 -19.297  0.00  0.00    +0.032 C 
ATOM     31  C   UNL     1      34.712 -22.140 -18.664  0.00  0.00    +0.032 C 
ENDBRANCH  23  26
ENDBRANCH  18  23
ENDBRANCH   1  18
TORSDOF 6
ENDMDL
MODEL 7
REMARK VINA RESULT:     -12.2      5.401      8.700
REMARK  Name = 24832041
REMARK  6 active torsions:
REMARK  status: ('A' for Active; 'I' for Inactive)
REMARK    1  A    between atoms: C_1  and  C_18
REMARK    2  A    between atoms: C_4  and  C_7
REMARK    3  A    between atoms: C_10  and  C_15
REMARK    4  A    between atoms: C_18  and  N_19
REMARK    5  A    between atoms: C_18  and  C_23
REMARK    6  A    between atoms: C_23  and  C_26
REMARK                            x       y       z     vdW  Elec       q    Type
REMARK                         _______ _______ _______ _____ _____    ______ ____
ROOT
ATOM      1  C   UNL     1      34.591 -19.792 -21.873  0.00  0.00    -0.042 C 
ATOM      2  C   UNL     1      35.688 -20.378 -21.243  0.00  0.00    -0.006 C 
ATOM      3  C   UNL     1      33.309 -19.974 -21.354  0.00  0.00    -0.006 C 
ATOM      4  C   UNL     1      34.223 -21.330 -19.574  0.00  0.00    -0.000 C 
ATOM      5  C   UNL     1      35.505 -21.147 -20.094  0.00  0.00    -0.000 C 
ATOM      6  C   UNL     1      33.125 -20.743 -20.205  0.00  0.00    -0.000 C 
ENDROOT
BRANCH   4   7
ATOM      7  C   UNL     1      34.033 -22.126 -18.382  0.00  0.00    +0.000 C 
ATOM      8  C   UNL     1      32.744 -22.463 -17.967  0.00  0.00    +0.005 C 
ATOM      9  C   UNL     1      35.137 -22.557 -17.648  0.00  0.00    +0.000 C 
ATOM     10  C   UNL     1      32.560 -23.231 -16.817  0.00  0.00    +0.053 C 
ATOM     11  C   UNL     1      34.953 -23.325 -16.498  0.00  0.00    +0.000 C 
ATOM     12  C   UNL     1      33.666 -23.662 -16.082  0.00  0.00    +0.005 C 
BRANCH  10  15
ATOM     13  O   UNL     1      31.018 -24.518 -15.587  0.00  0.00    -0.270 OA
ATOM     14  N   UNL     1      30.158 -22.830 -16.878  0.00  0.00    -0.325 N 
ATOM     15  C   UNL     1      31.218 -23.585 -16.384  0.00  0.00    +0.243 C 
ATOM     16  H   UNL     1      29.235 -23.041 -16.608  0.00  0.00    +0.145 HD
ATOM     17  H   UNL     1      30.331 -22.085 -17.498  0.00  0.00    +0.145 HD
ENDBRANCH  10  15
ENDBRANCH   4   7
BRANCH   1  18
ATOM     18  C   UNL     1      34.786 -18.969 -23.101  0.00  0.00    -0.038 C 
BRANCH  18  19
ATOM     19  N   UNL     1      35.144 -19.798 -24.273  0.00  0.00    +0.384 N 
ATOM     20  H   UNL     1      34.602 -19.495 -25.082  0.00  0.00    -0.089 HD
ATOM     21  H   UNL     1      34.937 -20.777 -24.072  0.00  0.00    -0.089 HD
ATOM     22  H   UNL     1      36.138 -19.695 -24.472  0.00  0.00    -0.089 HD
ENDBRANCH  18  19
BRANCH  18  23
ATOM     23  C   UNL     1      35.860 -17.852 -22.958  0.00  0.00    +0.011 C 
BRANCH  23  26
ATOM     24  F   UNL     1      35.099 -16.895 -20.399  0.00  0.00    -0.205 F 
ATOM     25  F   UNL     1      34.294 -13.546 -24.648  0.00  0.00    -0.204 F 
ATOM     26  C   UNL     1      35.256 -16.485 -22.732  0.00  0.00    +0.006 C 
ATOM     27  C   UNL     1      34.905 -16.079 -21.445  0.00  0.00    +0.136 C 
ATOM     28  C   UNL     1      35.050 -15.630 -23.814  0.00  0.00    +0.028 C 
ATOM     29  C   UNL     1      34.492 -14.367 -23.609  0.00  0.00    +0.140 C 
ATOM     30  C   UNL     1      34.347 -14.817 -21.240  0.00  0.00    +0.032 C 
ATOM     31  C   UNL     1      34.141 -13.961 -22.321  0.00  0.00    +0.032 C 
ENDBRANCH  23  26
ENDBRANCH  18  23
ENDBRANCH   1  18
TORSDOF 6
ENDMDL
MODEL 8
REMARK VINA RESULT:     -12.1      5.543      8.715
REMARK  Name = 24832041
REMARK  6 active torsions:
REMARK  status: ('A' for Active; 'I' for Inactive)
REMARK    1  A    between atoms: C_1  and  C_18
REMARK    2  A    between atoms: C_4  and  C_7
REMARK    3  A    between atoms: C_10  and  C_15
REMARK    4  A    between atoms: C_18  and  N_19
REMARK    5  A    between atoms: C_18  and  C_23
REMARK    6  A    between atoms: C_23  and  C_26
REMARK                            x       y       z     vdW  Elec       q    Type
REMARK                         _______ _______ _______ _____ _____    ______ ____
ROOT
ATOM      1  C   UNL     1      34.572 -19.896 -21.613  0.00  0.00    -0.042 C 
ATOM      2  C   UNL     1      35.650 -20.489 -20.957  0.00  0.00    -0.006 C 
ATOM      3  C   UNL     1      33.275 -20.091 -21.138  0.00  0.00    -0.006 C 
ATOM      4  C   UNL     1      34.135 -21.472 -19.351  0.00  0.00    -0.000 C 
ATOM      5  C   UNL     1      35.433 -21.276 -19.827  0.00  0.00    -0.000 C 
ATOM      6  C   UNL     1      33.056 -20.878 -20.008  0.00  0.00    -0.000 C 
ENDROOT
BRANCH   4   7
ATOM      7  C   UNL     1      33.910 -22.287 -18.180  0.00  0.00    +0.000 C 
ATOM      8  C   UNL     1      32.607 -22.592 -17.781  0.00  0.00    +0.005 C 
ATOM      9  C   UNL     1      34.993 -22.770 -17.447  0.00  0.00    +0.000 C 
ATOM     10  C   UNL     1      32.389 -23.379 -16.650  0.00  0.00    +0.053 C 
ATOM     11  C   UNL     1      34.775 -23.557 -16.316  0.00  0.00    +0.000 C 
ATOM     12  C   UNL     1      33.474 -23.862 -15.917  0.00  0.00    +0.005 C 
BRANCH  10  15
ATOM     13  O   UNL     1      30.804 -24.580 -15.390  0.00  0.00    -0.270 OA
ATOM     14  N   UNL     1      29.993 -22.969 -16.805  0.00  0.00    -0.325 N 
ATOM     15  C   UNL     1      31.033 -23.698 -16.236  0.00  0.00    +0.243 C 
ATOM     16  H   UNL     1      29.061 -23.158 -16.550  0.00  0.00    +0.145 HD
ATOM     17  H   UNL     1      30.189 -22.264 -17.464  0.00  0.00    +0.145 HD
ENDBRANCH  10  15
ENDBRANCH   4   7
BRANCH   1  18
ATOM     18  C   UNL     1      34.804 -19.053 -22.820  0.00  0.00    -0.038 C 
BRANCH  18  19
ATOM     19  N   UNL     1      35.293 -19.849 -23.967  0.00  0.00    +0.384 N 
ATOM     20  H   UNL     1      35.138 -20.841 -23.783  0.00  0.00    -0.089 HD
ATOM     21  H   UNL     1      36.291 -19.680 -24.098  0.00  0.00    -0.089 HD
ATOM     22  H   UNL     1      34.788 -19.578 -24.810  0.00  0.00    -0.089 HD
ENDBRANCH  18  19
BRANCH  18  23
ATOM     23  C   UNL     1      35.796 -17.875 -22.597  0.00  0.00    +0.011 C 
BRANCH  23  26
ATOM     24  F   UNL     1      35.392 -16.616 -25.106  0.00  0.00    -0.205 F 
ATOM     25  F   UNL     1      33.675 -13.921 -20.667  0.00  0.00    -0.204 F 
ATOM     26  C   UNL     1      35.140 -16.521 -22.747  0.00  0.00    +0.006 C 
ATOM     27  C   UNL     1      34.974 -15.962 -24.014  0.00  0.00    +0.136 C 
ATOM     28  C   UNL     1      34.701 -15.833 -21.617  0.00  0.00    +0.028 C 
ATOM     29  C   UNL     1      34.096 -14.583 -21.752  0.00  0.00    +0.140 C 
ATOM     30  C   UNL     1      34.368 -14.712 -24.149  0.00  0.00    +0.032 C 
ATOM     31  C   UNL     1      33.929 -14.023 -23.019  0.00  0.00    +0.032 C 
ENDBRANCH  23  26
ENDBRANCH  18  23
ENDBRANCH   1  18
TORSDOF 6
ENDMDL
MODEL 9
REMARK VINA RESULT:     -12.0      4.443      9.551
REMARK  Name = 24832041
REMARK  6 active torsions:
REMARK  status: ('A' for Active; 'I' for Inactive)
REMARK    1  A    between atoms: C_1  and  C_18
REMARK    2  A    between atoms: C_4  and  C_7
REMARK    3  A    between atoms: C_10  and  C_15
REMARK    4  A    between atoms: C_18  and  N_19
REMARK    5  A    between atoms: C_18  and  C_23
REMARK    6  A    between atoms: C_23  and  C_26
REMARK                            x       y       z     vdW  Elec       q    Type
REMARK                         _______ _______ _______ _____ _____    ______ ____
ROOT
ATOM      1  C   UNL     1      33.132 -13.472 -22.318  0.00  0.00    -0.042 C 
ATOM      2  C   UNL     1      32.267 -12.895 -21.390  0.00  0.00    -0.006 C 
ATOM      3  C   UNL     1      33.653 -12.702 -23.358  0.00  0.00    -0.006 C 
ATOM      4  C   UNL     1      32.444 -10.777 -22.540  0.00  0.00    -0.000 C 
ATOM      5  C   UNL     1      31.923 -11.547 -21.500  0.00  0.00    -0.000 C 
ATOM      6  C   UNL     1      33.310 -11.355 -23.469  0.00  0.00    -0.000 C 
ENDROOT
BRANCH   4   7
ATOM      7  C   UNL     1      32.088  -9.380 -22.653  0.00  0.00    +0.000 C 
ATOM      8  C   UNL     1      32.167  -8.547 -21.537  0.00  0.00    +0.005 C 
ATOM      9  C   UNL     1      31.665  -8.866 -23.878  0.00  0.00    +0.000 C 
ATOM     10  C   UNL     1      31.824  -7.199 -21.646  0.00  0.00    +0.053 C 
ATOM     11  C   UNL     1      31.322  -7.518 -23.987  0.00  0.00    +0.000 C 
ATOM     12  C   UNL     1      31.401  -6.685 -22.872  0.00  0.00    +0.005 C 
BRANCH  10  15
ATOM     13  O   UNL     1      32.639  -6.609 -19.516  0.00  0.00    -0.270 OA
ATOM     14  N   UNL     1      31.155  -5.160 -20.494  0.00  0.00    -0.325 N 
ATOM     15  C   UNL     1      31.908  -6.330 -20.483  0.00  0.00    +0.243 C 
ATOM     16  H   UNL     1      31.186  -4.547 -19.724  0.00  0.00    +0.145 HD
ATOM     17  H   UNL     1      30.591  -4.944 -21.272  0.00  0.00    +0.145 HD
ENDBRANCH  10  15
ENDBRANCH   4   7
BRANCH   1  18
ATOM     18  C   UNL     1      33.500 -14.912 -22.201  0.00  0.00    -0.038 C 
BRANCH  18  19
ATOM     19  N   UNL     1      33.616 -15.341 -20.790  0.00  0.00    +0.384 N 
ATOM     20  H   UNL     1      33.698 -16.357 -20.749  0.00  0.00    -0.089 HD
ATOM     21  H   UNL     1      32.786 -15.046 -20.276  0.00  0.00    -0.089 HD
ATOM     22  H   UNL     1      34.444 -14.917 -20.372  0.00  0.00    -0.089 HD
ENDBRANCH  18  19
BRANCH  18  23
ATOM     23  C   UNL     1      34.821 -15.295 -22.929  0.00  0.00    +0.011 C 
BRANCH  23  26
ATOM     24  F   UNL     1      34.248 -16.038 -25.606  0.00  0.00    -0.205 F 
ATOM     25  F   UNL     1      35.427 -20.071 -22.104  0.00  0.00    -0.204 F 
ATOM     26  C   UNL     1      34.830 -16.728 -23.410  0.00  0.00    +0.006 C 
ATOM     27  C   UNL     1      34.538 -17.021 -24.742  0.00  0.00    +0.136 C 
ATOM     28  C   UNL     1      35.131 -17.758 -22.519  0.00  0.00    +0.028 C 
ATOM     29  C   UNL     1      35.139 -19.082 -22.959  0.00  0.00    +0.140 C 
ATOM     30  C   UNL     1      34.547 -18.345 -25.183  0.00  0.00    +0.032 C 
ATOM     31  C   UNL     1      34.847 -19.375 -24.292  0.00  0.00    +0.032 C 
ENDBRANCH  23  26
ENDBRANCH  18  23
ENDBRANCH   1  18
TORSDOF 6
ENDMDL
