MODEL 1
REMARK VINA RESULT:     -14.1      0.000      0.000
REMARK  Name = 16750097
REMARK  3 active torsions:
REMARK  status: ('A' for Active; 'I' for Inactive)
REMARK    1  A    between atoms: N_3  and  C_10
REMARK    2  A    between atoms: N_3  and  C_23
REMARK    3  A    between atoms: C_23  and  C_24
REMARK                            x       y       z     vdW  Elec       q    Type
REMARK                         _______ _______ _______ _____ _____    ______ ____
ROOT
ATOM      1  O   UNL     1      33.809 -15.668 -26.553  0.00  0.00    -0.209 OA
ATOM      2  N   UNL     1      35.169 -19.286 -22.993  0.00  0.00    -0.305 N 
ATOM      3  N   UNL     1      35.468 -18.245 -21.054  0.00  0.00    -0.305 N 
ATOM      4  N   UNL     1      34.363 -13.844 -23.030  0.00  0.00    -0.275 N 
ATOM      5  N   UNL     1      33.808 -13.724 -25.341  0.00  0.00    -0.302 NA
ATOM      6  N   UNL     1      33.848 -11.820 -23.978  0.00  0.00    -0.320 N 
ATOM      7  C   UNL     1      34.916 -17.961 -23.246  0.00  0.00    +0.061 C 
ATOM      8  C   UNL     1      35.109 -17.333 -22.019  0.00  0.00    +0.061 C 
ATOM      9  C   UNL     1      35.495 -19.405 -21.671  0.00  0.00    +0.208 C 
ATOM     10  C   UNL     1      34.556 -15.228 -23.074  0.00  0.00    +0.064 C 
ATOM     11  C   UNL     1      34.369 -15.898 -24.292  0.00  0.00    +0.110 C 
ATOM     12  C   UNL     1      34.546 -17.285 -24.409  0.00  0.00    +0.030 C 
ATOM     13  C   UNL     1      34.928 -15.943 -21.923  0.00  0.00    +0.031 C 
ATOM     14  C   UNL     1      33.975 -15.090 -25.482  0.00  0.00    +0.208 C 
ATOM     15  C   UNL     1      33.999 -13.170 -24.173  0.00  0.00    +0.248 C 
ATOM     16  H   UNL     1      35.124 -20.020 -23.647  0.00  0.00    +0.150 HD
ATOM     17  H   UNL     1      35.664 -18.066 -20.105  0.00  0.00    +0.150 HD
ATOM     18  H   UNL     1      34.488 -13.354 -22.186  0.00  0.00    +0.156 HD
ATOM     19  H   UNL     1      33.999 -11.432 -23.085  0.00  0.00    +0.146 HD
ATOM     20  H   UNL     1      33.589 -11.240 -24.730  0.00  0.00    +0.146 HD
ENDROOT
BRANCH   9  21
ATOM     21  N   UNL     1      35.787 -20.633 -21.191  0.00  0.00    -0.263 NA
ATOM     22  H   UNL     1      35.559 -21.410 -21.751  0.00  0.00    +0.127 HD
BRANCH  21  23
ATOM     23  C   UNL     1      36.416 -20.886 -19.907  0.00  0.00    +0.098 C 
BRANCH  23  24
ATOM     24  C   UNL     1      35.495 -21.670 -19.014  0.00  0.00    -0.006 C 
ATOM     25  C   UNL     1      35.913 -22.176 -17.773  0.00  0.00    -0.003 C 
ATOM     26  C   UNL     1      34.996 -22.907 -16.979  0.00  0.00    -0.000 C 
ATOM     27  C   UNL     1      34.192 -21.881 -19.466  0.00  0.00    -0.003 C 
ATOM     28  C   UNL     1      37.220 -21.974 -17.302  0.00  0.00    -0.000 C 
ATOM     29  C   UNL     1      33.689 -23.109 -17.450  0.00  0.00    -0.000 C 
ATOM     30  C   UNL     1      33.290 -22.598 -18.686  0.00  0.00    -0.000 C 
ATOM     31  C   UNL     1      35.414 -23.413 -15.738  0.00  0.00    -0.000 C 
ATOM     32  C   UNL     1      37.619 -22.486 -16.066  0.00  0.00    -0.000 C 
ATOM     33  C   UNL     1      36.717 -23.203 -15.285  0.00  0.00    -0.000 C 
ENDBRANCH  23  24
ENDBRANCH  21  23
ENDBRANCH   9  21
TORSDOF 3
ENDMDL
MODEL 2
REMARK VINA RESULT:     -13.9      0.685      1.949
REMARK  Name = 16750097
REMARK  3 active torsions:
REMARK  status: ('A' for Active; 'I' for Inactive)
REMARK    1  A    between atoms: N_3  and  C_10
REMARK    2  A    between atoms: N_3  and  C_23
REMARK    3  A    between atoms: C_23  and  C_24
REMARK                            x       y       z     vdW  Elec       q    Type
REMARK                         _______ _______ _______ _____ _____    ______ ____
ROOT
ATOM      1  O   UNL     1      33.744 -15.889 -26.592  0.00  0.00    -0.209 OA
ATOM      2  N   UNL     1      35.169 -19.283 -22.843  0.00  0.00    -0.305 N 
ATOM      3  N   UNL     1      35.491 -18.127 -20.973  0.00  0.00    -0.305 N 
ATOM      4  N   UNL     1      34.339 -13.856 -23.193  0.00  0.00    -0.275 N 
ATOM      5  N   UNL     1      33.752 -13.877 -25.499  0.00  0.00    -0.302 NA
ATOM      6  N   UNL     1      33.802 -11.894 -24.252  0.00  0.00    -0.320 N 
ATOM      7  C   UNL     1      34.908 -17.977 -23.170  0.00  0.00    +0.061 C 
ATOM      8  C   UNL     1      35.115 -17.276 -21.986  0.00  0.00    +0.061 C 
ATOM      9  C   UNL     1      35.514 -19.322 -21.520  0.00  0.00    +0.208 C 
ATOM     10  C   UNL     1      34.537 -15.239 -23.156  0.00  0.00    +0.064 C 
ATOM     11  C   UNL     1      34.337 -15.982 -24.330  0.00  0.00    +0.110 C 
ATOM     12  C   UNL     1      34.518 -17.372 -24.367  0.00  0.00    +0.030 C 
ATOM     13  C   UNL     1      34.928 -15.883 -21.971  0.00  0.00    +0.031 C 
ATOM     14  C   UNL     1      33.923 -15.248 -25.561  0.00  0.00    +0.208 C 
ATOM     15  C   UNL     1      33.956 -13.252 -24.368  0.00  0.00    +0.248 C 
ATOM     16  H   UNL     1      35.118 -20.055 -23.450  0.00  0.00    +0.150 HD
ATOM     17  H   UNL     1      35.699 -17.892 -20.040  0.00  0.00    +0.150 HD
ATOM     18  H   UNL     1      34.474 -13.316 -22.381  0.00  0.00    +0.156 HD
ATOM     19  H   UNL     1      33.964 -11.453 -23.387  0.00  0.00    +0.146 HD
ATOM     20  H   UNL     1      33.530 -11.361 -25.033  0.00  0.00    +0.146 HD
ENDROOT
BRANCH   9  21
ATOM     21  N   UNL     1      35.819 -20.518 -20.972  0.00  0.00    -0.263 NA
ATOM     22  H   UNL     1      36.753 -20.823 -21.028  0.00  0.00    +0.127 HD
BRANCH  21  23
ATOM     23  C   UNL     1      34.864 -21.385 -20.304  0.00  0.00    +0.098 C 
BRANCH  23  24
ATOM     24  C   UNL     1      35.384 -21.804 -18.958  0.00  0.00    -0.006 C 
ATOM     25  C   UNL     1      34.559 -22.406 -17.995  0.00  0.00    -0.003 C 
ATOM     26  C   UNL     1      35.109 -22.778 -16.745  0.00  0.00    -0.000 C 
ATOM     27  C   UNL     1      36.734 -21.572 -18.692  0.00  0.00    -0.003 C 
ATOM     28  C   UNL     1      33.198 -22.647 -18.244  0.00  0.00    -0.000 C 
ATOM     29  C   UNL     1      36.470 -22.536 -16.495  0.00  0.00    -0.000 C 
ATOM     30  C   UNL     1      37.277 -21.937 -17.464  0.00  0.00    -0.000 C 
ATOM     31  C   UNL     1      34.284 -23.379 -15.782  0.00  0.00    -0.000 C 
ATOM     32  C   UNL     1      32.391 -23.245 -17.274  0.00  0.00    -0.000 C 
ATOM     33  C   UNL     1      32.934 -23.611 -16.046  0.00  0.00    -0.000 C 
ENDBRANCH  23  24
ENDBRANCH  21  23
ENDBRANCH   9  21
TORSDOF 3
ENDMDL
MODEL 3
REMARK VINA RESULT:     -13.5      3.935      9.726
REMARK  Name = 16750097
REMARK  3 active torsions:
REMARK  status: ('A' for Active; 'I' for Inactive)
REMARK    1  A    between atoms: N_3  and  C_10
REMARK    2  A    between atoms: N_3  and  C_23
REMARK    3  A    between atoms: C_23  and  C_24
REMARK                            x       y       z     vdW  Elec       q    Type
REMARK                         _______ _______ _______ _____ _____    ______ ____
ROOT
ATOM      1  O   UNL     1      37.908 -22.930 -14.903  0.00  0.00    -0.209 OA
ATOM      2  N   UNL     1      36.462 -20.951 -19.551  0.00  0.00    -0.305 N 
ATOM      3  N   UNL     1      34.334 -21.495 -19.884  0.00  0.00    -0.305 N 
ATOM      4  N   UNL     1      34.073 -23.883 -15.556  0.00  0.00    -0.275 N 
ATOM      5  N   UNL     1      36.003 -23.967 -14.167  0.00  0.00    -0.302 NA
ATOM      6  N   UNL     1      33.985 -24.982 -13.545  0.00  0.00    -0.320 N 
ATOM      7  C   UNL     1      36.089 -21.667 -18.442  0.00  0.00    +0.061 C 
ATOM      8  C   UNL     1      34.757 -21.994 -18.673  0.00  0.00    +0.061 C 
ATOM      9  C   UNL     1      35.380 -20.876 -20.383  0.00  0.00    +0.208 C 
ATOM     10  C   UNL     1      34.726 -23.138 -16.542  0.00  0.00    +0.064 C 
ATOM     11  C   UNL     1      36.070 -22.787 -16.345  0.00  0.00    +0.110 C 
ATOM     12  C   UNL     1      36.787 -22.041 -17.292  0.00  0.00    +0.030 C 
ATOM     13  C   UNL     1      34.056 -22.742 -17.712  0.00  0.00    +0.031 C 
ATOM     14  C   UNL     1      36.732 -23.233 -15.085  0.00  0.00    +0.208 C 
ATOM     15  C   UNL     1      34.753 -24.256 -14.420  0.00  0.00    +0.248 C 
ATOM     16  H   UNL     1      37.349 -20.561 -19.719  0.00  0.00    +0.150 HD
ATOM     17  H   UNL     1      33.440 -21.584 -20.288  0.00  0.00    +0.150 HD
ATOM     18  H   UNL     1      33.130 -24.139 -15.673  0.00  0.00    +0.156 HD
ATOM     19  H   UNL     1      33.047 -25.184 -13.764  0.00  0.00    +0.146 HD
ATOM     20  H   UNL     1      34.373 -25.302 -12.699  0.00  0.00    +0.146 HD
ENDROOT
BRANCH   9  21
ATOM     21  N   UNL     1      35.514 -20.212 -21.551  0.00  0.00    -0.263 NA
ATOM     22  H   UNL     1      35.226 -20.669 -22.374  0.00  0.00    +0.127 HD
BRANCH  21  23
ATOM     23  C   UNL     1      36.053 -18.869 -21.677  0.00  0.00    +0.098 C 
BRANCH  23  24
ATOM     24  C   UNL     1      35.431 -18.159 -22.848  0.00  0.00    -0.006 C 
ATOM     25  C   UNL     1      34.951 -16.843 -22.750  0.00  0.00    -0.003 C 
ATOM     26  C   UNL     1      34.376 -16.230 -23.889  0.00  0.00    -0.000 C 
ATOM     27  C   UNL     1      35.344 -18.861 -24.050  0.00  0.00    -0.003 C 
ATOM     28  C   UNL     1      35.029 -16.121 -21.548  0.00  0.00    -0.000 C 
ATOM     29  C   UNL     1      34.297 -16.952 -25.092  0.00  0.00    -0.000 C 
ATOM     30  C   UNL     1      34.780 -18.259 -25.170  0.00  0.00    -0.000 C 
ATOM     31  C   UNL     1      33.896 -14.914 -23.792  0.00  0.00    -0.000 C 
ATOM     32  C   UNL     1      34.547 -14.814 -21.470  0.00  0.00    -0.000 C 
ATOM     33  C   UNL     1      33.982 -14.212 -22.590  0.00  0.00    -0.000 C 
ENDBRANCH  23  24
ENDBRANCH  21  23
ENDBRANCH   9  21
TORSDOF 3
ENDMDL
MODEL 4
REMARK VINA RESULT:     -13.4      3.195      9.157
REMARK  Name = 16750097
REMARK  3 active torsions:
REMARK  status: ('A' for Active; 'I' for Inactive)
REMARK    1  A    between atoms: N_3  and  C_10
REMARK    2  A    between atoms: N_3  and  C_23
REMARK    3  A    between atoms: C_23  and  C_24
REMARK                            x       y       z     vdW  Elec       q    Type
REMARK                         _______ _______ _______ _____ _____    ______ ____
ROOT
ATOM      1  O   UNL     1      32.647 -23.360 -17.491  0.00  0.00    -0.209 OA
ATOM      2  N   UNL     1      33.985 -20.166 -21.442  0.00  0.00    -0.305 N 
ATOM      3  N   UNL     1      36.159 -19.747 -21.264  0.00  0.00    -0.305 N 
ATOM      4  N   UNL     1      36.564 -22.570 -17.220  0.00  0.00    -0.275 N 
ATOM      5  N   UNL     1      34.625 -23.665 -16.379  0.00  0.00    -0.302 NA
ATOM      6  N   UNL     1      36.717 -23.885 -15.346  0.00  0.00    -0.320 N 
ATOM      7  C   UNL     1      34.402 -20.860 -20.336  0.00  0.00    +0.061 C 
ATOM      8  C   UNL     1      35.763 -20.583 -20.246  0.00  0.00    +0.061 C 
ATOM      9  C   UNL     1      35.070 -19.516 -21.962  0.00  0.00    +0.208 C 
ATOM     10  C   UNL     1      35.862 -21.982 -18.276  0.00  0.00    +0.064 C 
ATOM     11  C   UNL     1      34.488 -22.239 -18.401  0.00  0.00    +0.110 C 
ATOM     12  C   UNL     1      33.722 -21.683 -19.436  0.00  0.00    +0.030 C 
ATOM     13  C   UNL     1      36.513 -21.150 -19.202  0.00  0.00    +0.031 C 
ATOM     14  C   UNL     1      33.848 -23.130 -17.390  0.00  0.00    +0.208 C 
ATOM     15  C   UNL     1      35.901 -23.382 -16.328  0.00  0.00    +0.248 C 
ATOM     16  H   UNL     1      33.068 -20.138 -21.799  0.00  0.00    +0.150 HD
ATOM     17  H   UNL     1      37.064 -19.396 -21.433  0.00  0.00    +0.150 HD
ATOM     18  H   UNL     1      37.528 -22.404 -17.114  0.00  0.00    +0.156 HD
ATOM     19  H   UNL     1      37.673 -23.652 -15.335  0.00  0.00    +0.146 HD
ATOM     20  H   UNL     1      36.346 -24.477 -14.654  0.00  0.00    +0.146 HD
ENDROOT
BRANCH   9  21
ATOM     21  N   UNL     1      34.895 -18.759 -23.067  0.00  0.00    -0.263 NA
ATOM     22  H   UNL     1      34.181 -19.021 -23.693  0.00  0.00    +0.127 HD
BRANCH  21  23
ATOM     23  C   UNL     1      35.686 -17.587 -23.395  0.00  0.00    +0.098 C 
BRANCH  23  24
ATOM     24  C   UNL     1      34.804 -16.484 -23.912  0.00  0.00    -0.006 C 
ATOM     25  C   UNL     1      34.196 -15.553 -23.055  0.00  0.00    -0.003 C 
ATOM     26  C   UNL     1      33.376 -14.538 -23.605  0.00  0.00    -0.000 C 
ATOM     27  C   UNL     1      34.607 -16.415 -25.292  0.00  0.00    -0.003 C 
ATOM     28  C   UNL     1      34.381 -15.607 -21.664  0.00  0.00    -0.000 C 
ATOM     29  C   UNL     1      33.189 -14.485 -24.996  0.00  0.00    -0.000 C 
ATOM     30  C   UNL     1      33.803 -15.418 -25.833  0.00  0.00    -0.000 C 
ATOM     31  C   UNL     1      32.767 -13.608 -22.748  0.00  0.00    -0.000 C 
ATOM     32  C   UNL     1      33.768 -14.674 -20.827  0.00  0.00    -0.000 C 
ATOM     33  C   UNL     1      32.963 -13.676 -21.368  0.00  0.00    -0.000 C 
ENDBRANCH  23  24
ENDBRANCH  21  23
ENDBRANCH   9  21
TORSDOF 3
ENDMDL
MODEL 5
REMARK VINA RESULT:     -13.4      3.301      9.466
REMARK  Name = 16750097
REMARK  3 active torsions:
REMARK  status: ('A' for Active; 'I' for Inactive)
REMARK    1  A    between atoms: N_3  and  C_10
REMARK    2  A    between atoms: N_3  and  C_23
REMARK    3  A    between atoms: C_23  and  C_24
REMARK                            x       y       z     vdW  Elec       q    Type
REMARK                         _______ _______ _______ _____ _____    ______ ____
ROOT
ATOM      1  O   UNL     1      32.758 -23.537 -17.035  0.00  0.00    -0.209 OA
ATOM      2  N   UNL     1      33.902 -20.436 -21.119  0.00  0.00    -0.305 N 
ATOM      3  N   UNL     1      36.074 -19.978 -21.031  0.00  0.00    -0.305 N 
ATOM      4  N   UNL     1      36.668 -22.678 -16.926  0.00  0.00    -0.275 N 
ATOM      5  N   UNL     1      34.780 -23.779 -15.986  0.00  0.00    -0.302 NA
ATOM      6  N   UNL     1      36.910 -23.936 -15.023  0.00  0.00    -0.320 N 
ATOM      7  C   UNL     1      34.370 -21.092 -20.009  0.00  0.00    +0.061 C 
ATOM      8  C   UNL     1      35.728 -20.791 -19.977  0.00  0.00    +0.061 C 
ATOM      9  C   UNL     1      34.957 -19.785 -21.695  0.00  0.00    +0.208 C 
ATOM     10  C   UNL     1      35.920 -22.132 -17.973  0.00  0.00    +0.064 C 
ATOM     11  C   UNL     1      34.547 -22.413 -18.041  0.00  0.00    +0.110 C 
ATOM     12  C   UNL     1      33.736 -21.899 -19.063  0.00  0.00    +0.030 C 
ATOM     13  C   UNL     1      36.524 -21.316 -18.945  0.00  0.00    +0.031 C 
ATOM     14  C   UNL     1      33.958 -23.285 -16.983  0.00  0.00    +0.208 C 
ATOM     15  C   UNL     1      36.051 -23.474 -15.989  0.00  0.00    +0.248 C 
ATOM     16  H   UNL     1      32.973 -20.433 -21.443  0.00  0.00    +0.150 HD
ATOM     17  H   UNL     1      36.966 -19.619 -21.242  0.00  0.00    +0.150 HD
ATOM     18  H   UNL     1      37.633 -22.494 -16.860  0.00  0.00    +0.156 HD
ATOM     19  H   UNL     1      37.862 -23.688 -15.053  0.00  0.00    +0.146 HD
ATOM     20  H   UNL     1      36.573 -24.514 -14.301  0.00  0.00    +0.146 HD
ENDROOT
BRANCH   9  21
ATOM     21  N   UNL     1      34.730 -19.063 -22.814  0.00  0.00    -0.263 NA
ATOM     22  H   UNL     1      33.957 -19.311 -23.371  0.00  0.00    +0.127 HD
BRANCH  21  23
ATOM     23  C   UNL     1      35.548 -17.945 -23.253  0.00  0.00    +0.098 C 
BRANCH  23  24
ATOM     24  C   UNL     1      34.911 -16.641 -22.863  0.00  0.00    -0.006 C 
ATOM     25  C   UNL     1      34.301 -15.799 -23.807  0.00  0.00    -0.003 C 
ATOM     26  C   UNL     1      33.718 -14.583 -23.376  0.00  0.00    -0.000 C 
ATOM     27  C   UNL     1      34.947 -16.288 -21.514  0.00  0.00    -0.003 C 
ATOM     28  C   UNL     1      34.255 -16.136 -25.169  0.00  0.00    -0.000 C 
ATOM     29  C   UNL     1      33.764 -14.244 -22.013  0.00  0.00    -0.000 C 
ATOM     30  C   UNL     1      34.374 -15.094 -21.089  0.00  0.00    -0.000 C 
ATOM     31  C   UNL     1      33.108 -13.741 -24.319  0.00  0.00    -0.000 C 
ATOM     32  C   UNL     1      33.645 -15.287 -26.093  0.00  0.00    -0.000 C 
ATOM     33  C   UNL     1      33.072 -14.092 -25.669  0.00  0.00    -0.000 C 
ENDBRANCH  23  24
ENDBRANCH  21  23
ENDBRANCH   9  21
TORSDOF 3
ENDMDL
MODEL 6
REMARK VINA RESULT:     -13.4      1.244      1.929
REMARK  Name = 16750097
REMARK  3 active torsions:
REMARK  status: ('A' for Active; 'I' for Inactive)
REMARK    1  A    between atoms: N_3  and  C_10
REMARK    2  A    between atoms: N_3  and  C_23
REMARK    3  A    between atoms: C_23  and  C_24
REMARK                            x       y       z     vdW  Elec       q    Type
REMARK                         _______ _______ _______ _____ _____    ______ ____
ROOT
ATOM      1  O   UNL     1      33.520 -12.995 -22.911  0.00  0.00    -0.209 OA
ATOM      2  N   UNL     1      35.517 -17.425 -20.913  0.00  0.00    -0.305 N 
ATOM      3  N   UNL     1      35.819 -18.847 -22.593  0.00  0.00    -0.305 N 
ATOM      4  N   UNL     1      34.086 -15.599 -25.900  0.00  0.00    -0.275 N 
ATOM      5  N   UNL     1      33.371 -13.457 -25.148  0.00  0.00    -0.302 NA
ATOM      6  N   UNL     1      33.276 -14.071 -27.407  0.00  0.00    -0.320 N 
ATOM      7  C   UNL     1      35.097 -16.760 -22.036  0.00  0.00    +0.061 C 
ATOM      8  C   UNL     1      35.296 -17.668 -23.071  0.00  0.00    +0.061 C 
ATOM      9  C   UNL     1      35.939 -18.668 -21.297  0.00  0.00    +0.208 C 
ATOM     10  C   UNL     1      34.434 -16.015 -24.612  0.00  0.00    +0.064 C 
ATOM     11  C   UNL     1      34.249 -15.127 -23.542  0.00  0.00    +0.110 C 
ATOM     12  C   UNL     1      34.576 -15.478 -22.224  0.00  0.00    +0.030 C 
ATOM     13  C   UNL     1      34.962 -17.297 -24.384  0.00  0.00    +0.031 C 
ATOM     14  C   UNL     1      33.685 -13.779 -23.840  0.00  0.00    +0.208 C 
ATOM     15  C   UNL     1      33.572 -14.337 -26.094  0.00  0.00    +0.248 C 
ATOM     16  H   UNL     1      35.516 -17.073 -19.994  0.00  0.00    +0.150 HD
ATOM     17  H   UNL     1      36.053 -19.651 -23.110  0.00  0.00    +0.150 HD
ATOM     18  H   UNL     1      34.208 -16.205 -26.666  0.00  0.00    +0.156 HD
ATOM     19  H   UNL     1      33.439 -14.755 -28.097  0.00  0.00    +0.146 HD
ATOM     20  H   UNL     1      32.901 -13.197 -27.660  0.00  0.00    +0.146 HD
ENDROOT
BRANCH   9  21
ATOM     21  N   UNL     1      36.401 -19.510 -20.347  0.00  0.00    -0.263 NA
ATOM     22  H   UNL     1      36.745 -19.116 -19.513  0.00  0.00    +0.127 HD
BRANCH  21  23
ATOM     23  C   UNL     1      36.424 -20.957 -20.470  0.00  0.00    +0.098 C 
BRANCH  23  24
ATOM     24  C   UNL     1      35.442 -21.583 -19.519  0.00  0.00    -0.006 C 
ATOM     25  C   UNL     1      35.823 -22.036 -18.246  0.00  0.00    -0.003 C 
ATOM     26  C   UNL     1      34.850 -22.616 -17.397  0.00  0.00    -0.000 C 
ATOM     27  C   UNL     1      34.120 -21.701 -19.950  0.00  0.00    -0.003 C 
ATOM     28  C   UNL     1      37.148 -21.925 -17.795  0.00  0.00    -0.000 C 
ATOM     29  C   UNL     1      33.524 -22.727 -17.849  0.00  0.00    -0.000 C 
ATOM     30  C   UNL     1      33.163 -22.271 -19.117  0.00  0.00    -0.000 C 
ATOM     31  C   UNL     1      35.231 -23.069 -16.125  0.00  0.00    -0.000 C 
ATOM     32  C   UNL     1      37.509 -22.382 -16.527  0.00  0.00    -0.000 C 
ATOM     33  C   UNL     1      36.552 -22.952 -15.693  0.00  0.00    -0.000 C 
ENDBRANCH  23  24
ENDBRANCH  21  23
ENDBRANCH   9  21
TORSDOF 3
ENDMDL
MODEL 7
REMARK VINA RESULT:     -13.3      4.568     11.186
REMARK  Name = 16750097
REMARK  3 active torsions:
REMARK  status: ('A' for Active; 'I' for Inactive)
REMARK    1  A    between atoms: N_3  and  C_10
REMARK    2  A    between atoms: N_3  and  C_23
REMARK    3  A    between atoms: C_23  and  C_24
REMARK                            x       y       z     vdW  Elec       q    Type
REMARK                         _______ _______ _______ _____ _____    ______ ____
ROOT
ATOM      1  O   UNL     1      35.240 -16.912 -24.944  0.00  0.00    -0.209 OA
ATOM      2  N   UNL     1      32.288 -13.077 -22.898  0.00  0.00    -0.305 N 
ATOM      3  N   UNL     1      32.380 -13.261 -20.686  0.00  0.00    -0.305 N 
ATOM      4  N   UNL     1      35.369 -17.197 -20.951  0.00  0.00    -0.275 N 
ATOM      5  N   UNL     1      36.026 -18.004 -23.091  0.00  0.00    -0.302 NA
ATOM      6  N   UNL     1      36.752 -19.020 -21.109  0.00  0.00    -0.320 N 
ATOM      7  C   UNL     1      33.099 -14.155 -22.654  0.00  0.00    +0.061 C 
ATOM      8  C   UNL     1      33.142 -14.249 -21.266  0.00  0.00    +0.061 C 
ATOM      9  C   UNL     1      31.883 -12.577 -21.692  0.00  0.00    +0.208 C 
ATOM     10  C   UNL     1      34.599 -16.165 -21.496  0.00  0.00    +0.064 C 
ATOM     11  C   UNL     1      34.533 -16.037 -22.892  0.00  0.00    +0.110 C 
ATOM     12  C   UNL     1      33.779 -15.027 -23.507  0.00  0.00    +0.030 C 
ATOM     13  C   UNL     1      33.902 -15.268 -20.669  0.00  0.00    +0.031 C 
ATOM     14  C   UNL     1      35.291 -17.016 -23.722  0.00  0.00    +0.208 C 
ATOM     15  C   UNL     1      36.041 -18.060 -21.785  0.00  0.00    +0.248 C 
ATOM     16  H   UNL     1      32.040 -12.725 -23.783  0.00  0.00    +0.150 HD
ATOM     17  H   UNL     1      32.238 -13.102 -19.725  0.00  0.00    +0.150 HD
ATOM     18  H   UNL     1      35.430 -17.305 -19.975  0.00  0.00    +0.156 HD
ATOM     19  H   UNL     1      36.743 -19.036 -20.124  0.00  0.00    +0.146 HD
ATOM     20  H   UNL     1      37.271 -19.691 -21.608  0.00  0.00    +0.146 HD
ENDROOT
BRANCH   9  21
ATOM     21  N   UNL     1      31.066 -11.501 -21.685  0.00  0.00    -0.263 NA
ATOM     22  H   UNL     1      30.315 -11.500 -21.047  0.00  0.00    +0.127 HD
BRANCH  21  23
ATOM     23  C   UNL     1      31.217 -10.347 -22.553  0.00  0.00    +0.098 C 
BRANCH  23  24
ATOM     24  C   UNL     1      31.581  -9.128 -21.750  0.00  0.00    -0.006 C 
ATOM     25  C   UNL     1      31.737  -7.866 -22.343  0.00  0.00    -0.003 C 
ATOM     26  C   UNL     1      32.080  -6.757 -21.533  0.00  0.00    -0.000 C 
ATOM     27  C   UNL     1      31.762  -9.296 -20.377  0.00  0.00    -0.003 C 
ATOM     28  C   UNL     1      31.560  -7.677 -23.724  0.00  0.00    -0.000 C 
ATOM     29  C   UNL     1      32.258  -6.945 -20.152  0.00  0.00    -0.000 C 
ATOM     30  C   UNL     1      32.099  -8.208 -19.579  0.00  0.00    -0.000 C 
ATOM     31  C   UNL     1      32.236  -5.494 -22.126  0.00  0.00    -0.000 C 
ATOM     32  C   UNL     1      31.720  -6.415 -24.297  0.00  0.00    -0.000 C 
ATOM     33  C   UNL     1      32.057  -5.325 -23.499  0.00  0.00    -0.000 C 
ENDBRANCH  23  24
ENDBRANCH  21  23
ENDBRANCH   9  21
TORSDOF 3
ENDMDL
MODEL 8
REMARK VINA RESULT:     -13.3      2.814      9.018
REMARK  Name = 16750097
REMARK  3 active torsions:
REMARK  status: ('A' for Active; 'I' for Inactive)
REMARK    1  A    between atoms: N_3  and  C_10
REMARK    2  A    between atoms: N_3  and  C_23
REMARK    3  A    between atoms: C_23  and  C_24
REMARK                            x       y       z     vdW  Elec       q    Type
REMARK                         _______ _______ _______ _____ _____    ______ ____
ROOT
ATOM      1  O   UNL     1      33.080 -22.228 -19.531  0.00  0.00    -0.209 OA
ATOM      2  N   UNL     1      34.420 -18.686 -23.174  0.00  0.00    -0.305 N 
ATOM      3  N   UNL     1      36.531 -18.102 -22.802  0.00  0.00    -0.305 N 
ATOM      4  N   UNL     1      36.882 -21.136 -18.908  0.00  0.00    -0.275 N 
ATOM      5  N   UNL     1      34.990 -22.439 -18.287  0.00  0.00    -0.302 NA
ATOM      6  N   UNL     1      37.011 -22.551 -17.107  0.00  0.00    -0.320 N 
ATOM      7  C   UNL     1      34.814 -19.414 -22.080  0.00  0.00    +0.061 C 
ATOM      8  C   UNL     1      36.135 -19.032 -21.868  0.00  0.00    +0.061 C 
ATOM      9  C   UNL     1      35.480 -17.917 -23.568  0.00  0.00    +0.208 C 
ATOM     10  C   UNL     1      36.212 -20.542 -19.980  0.00  0.00    +0.064 C 
ATOM     11  C   UNL     1      34.878 -20.902 -20.227  0.00  0.00    +0.110 C 
ATOM     12  C   UNL     1      34.144 -20.346 -21.285  0.00  0.00    +0.030 C 
ATOM     13  C   UNL     1      36.853 -19.601 -20.803  0.00  0.00    +0.031 C 
ATOM     14  C   UNL     1      34.245 -21.906 -19.323  0.00  0.00    +0.208 C 
ATOM     15  C   UNL     1      36.229 -22.055 -18.119  0.00  0.00    +0.248 C 
ATOM     16  H   UNL     1      33.533 -18.712 -23.599  0.00  0.00    +0.150 HD
ATOM     17  H   UNL     1      37.412 -17.668 -22.878  0.00  0.00    +0.150 HD
ATOM     18  H   UNL     1      37.818 -20.899 -18.717  0.00  0.00    +0.156 HD
ATOM     19  H   UNL     1      37.941 -22.242 -17.007  0.00  0.00    +0.146 HD
ATOM     20  H   UNL     1      36.643 -23.216 -16.481  0.00  0.00    +0.146 HD
ENDROOT
BRANCH   9  21
ATOM     21  N   UNL     1      35.321 -17.108 -24.638  0.00  0.00    -0.263 NA
ATOM     22  H   UNL     1      36.126 -16.681 -25.012  0.00  0.00    +0.127 HD
BRANCH  21  23
ATOM     23  C   UNL     1      34.048 -16.826 -25.275  0.00  0.00    +0.098 C 
BRANCH  23  24
ATOM     24  C   UNL     1      33.796 -15.344 -25.317  0.00  0.00    -0.006 C 
ATOM     25  C   UNL     1      33.556 -14.596 -24.153  0.00  0.00    -0.003 C 
ATOM     26  C   UNL     1      33.326 -13.204 -24.259  0.00  0.00    -0.000 C 
ATOM     27  C   UNL     1      33.808 -14.727 -26.568  0.00  0.00    -0.003 C 
ATOM     28  C   UNL     1      33.540 -15.200 -22.885  0.00  0.00    -0.000 C 
ATOM     29  C   UNL     1      33.341 -12.600 -25.528  0.00  0.00    -0.000 C 
ATOM     30  C   UNL     1      33.582 -13.359 -26.674  0.00  0.00    -0.000 C 
ATOM     31  C   UNL     1      33.086 -12.456 -23.095  0.00  0.00    -0.000 C 
ATOM     32  C   UNL     1      33.299 -14.441 -21.738  0.00  0.00    -0.000 C 
ATOM     33  C   UNL     1      33.074 -13.072 -21.844  0.00  0.00    -0.000 C 
ENDBRANCH  23  24
ENDBRANCH  21  23
ENDBRANCH   9  21
TORSDOF 3
ENDMDL
MODEL 9
REMARK VINA RESULT:     -13.1      3.887      9.669
REMARK  Name = 16750097
REMARK  3 active torsions:
REMARK  status: ('A' for Active; 'I' for Inactive)
REMARK    1  A    between atoms: N_3  and  C_10
REMARK    2  A    between atoms: N_3  and  C_23
REMARK    3  A    between atoms: C_23  and  C_24
REMARK                            x       y       z     vdW  Elec       q    Type
REMARK                         _______ _______ _______ _____ _____    ______ ____
ROOT
ATOM      1  O   UNL     1      31.278 -23.917 -16.256  0.00  0.00    -0.209 OA
ATOM      2  N   UNL     1      33.962 -21.328 -19.957  0.00  0.00    -0.305 N 
ATOM      3  N   UNL     1      36.090 -21.261 -19.325  0.00  0.00    -0.305 N 
ATOM      4  N   UNL     1      35.128 -23.766 -15.166  0.00  0.00    -0.275 N 
ATOM      5  N   UNL     1      32.893 -24.452 -14.723  0.00  0.00    -0.302 NA
ATOM      6  N   UNL     1      34.649 -24.927 -13.247  0.00  0.00    -0.320 N 
ATOM      7  C   UNL     1      34.007 -21.987 -18.755  0.00  0.00    +0.061 C 
ATOM      8  C   UNL     1      35.347 -21.933 -18.382  0.00  0.00    +0.061 C 
ATOM      9  C   UNL     1      35.230 -20.912 -20.254  0.00  0.00    +0.208 C 
ATOM     10  C   UNL     1      34.780 -23.160 -16.377  0.00  0.00    +0.064 C 
ATOM     11  C   UNL     1      33.439 -23.196 -16.788  0.00  0.00    +0.110 C 
ATOM     12  C   UNL     1      33.018 -22.608 -17.990  0.00  0.00    +0.030 C 
ATOM     13  C   UNL     1      35.748 -22.527 -17.174  0.00  0.00    +0.031 C 
ATOM     14  C   UNL     1      32.453 -23.881 -15.904  0.00  0.00    +0.208 C 
ATOM     15  C   UNL     1      34.159 -24.380 -14.406  0.00  0.00    +0.248 C 
ATOM     16  H   UNL     1      33.160 -21.179 -20.508  0.00  0.00    +0.150 HD
ATOM     17  H   UNL     1      37.058 -21.080 -19.306  0.00  0.00    +0.150 HD
ATOM     18  H   UNL     1      36.063 -23.754 -14.858  0.00  0.00    +0.156 HD
ATOM     19  H   UNL     1      35.608 -24.856 -13.036  0.00  0.00    +0.146 HD
ATOM     20  H   UNL     1      34.041 -25.391 -12.627  0.00  0.00    +0.146 HD
ENDROOT
BRANCH   9  21
ATOM     21  N   UNL     1      35.428 -20.232 -21.404  0.00  0.00    -0.263 NA
ATOM     22  H   UNL     1      35.285 -20.712 -22.252  0.00  0.00    +0.127 HD
BRANCH  21  23
ATOM     23  C   UNL     1      35.837 -18.840 -21.477  0.00  0.00    +0.098 C 
BRANCH  23  24
ATOM     24  C   UNL     1      35.320 -18.204 -22.738  0.00  0.00    -0.006 C 
ATOM     25  C   UNL     1      34.929 -16.857 -22.786  0.00  0.00    -0.003 C 
ATOM     26  C   UNL     1      34.451 -16.317 -24.004  0.00  0.00    -0.000 C 
ATOM     27  C   UNL     1      35.239 -19.009 -23.875  0.00  0.00    -0.003 C 
ATOM     28  C   UNL     1      35.003 -16.031 -21.652  0.00  0.00    -0.000 C 
ATOM     29  C   UNL     1      34.377 -17.143 -25.138  0.00  0.00    -0.000 C 
ATOM     30  C   UNL     1      34.770 -18.480 -25.072  0.00  0.00    -0.000 C 
ATOM     31  C   UNL     1      34.060 -14.970 -24.053  0.00  0.00    -0.000 C 
ATOM     32  C   UNL     1      34.610 -14.694 -21.718  0.00  0.00    -0.000 C 
ATOM     33  C   UNL     1      34.140 -14.164 -22.917  0.00  0.00    -0.000 C 
ENDBRANCH  23  24
ENDBRANCH  21  23
ENDBRANCH   9  21
TORSDOF 3
ENDMDL
