MODEL 1
REMARK VINA RESULT:     -13.9      0.000      0.000
REMARK  Name = 23658582
REMARK  4 active torsions:
REMARK  status: ('A' for Active; 'I' for Inactive)
REMARK    1  A    between atoms: N_3  and  C_13
REMARK    2  A    between atoms: C_8  and  C_25
REMARK    3  A    between atoms: C_15  and  C_22
REMARK    4  A    between atoms: N_24  and  C_29
REMARK                            x       y       z     vdW  Elec       q    Type
REMARK                         _______ _______ _______ _____ _____    ______ ____
ROOT
ATOM      1 CL   UNL     1      32.906 -13.042 -26.987  0.00  0.00    -0.082 Cl
ATOM      2  O   UNL     1      34.542 -14.746 -22.382  0.00  0.00    -0.352 OA
ATOM      3  N   UNL     1      34.901 -18.190 -22.835  0.00  0.00    -0.295 N 
ATOM      4  N   UNL     1      34.876 -15.996 -21.873  0.00  0.00    -0.062 NA
ATOM      5  C   UNL     1      34.247 -16.206 -24.056  0.00  0.00    +0.072 A 
ATOM      6  C   UNL     1      34.168 -14.875 -23.685  0.00  0.00    +0.183 A 
ATOM      7  C   UNL     1      34.693 -16.849 -22.884  0.00  0.00    +0.174 A 
ATOM      8  C   UNL     1      33.764 -13.847 -24.532  0.00  0.00    +0.101 C 
ATOM      9  C   UNL     1      33.904 -16.570 -25.366  0.00  0.00    +0.007 C 
ATOM     10  C   UNL     1      33.425 -14.225 -25.835  0.00  0.00    +0.065 C 
ATOM     11  C   UNL     1      33.492 -15.560 -26.247  0.00  0.00    +0.012 C 
ATOM     12  H   UNL     1      34.627 -18.665 -23.652  0.00  0.00    +0.154 HD
ENDROOT
BRANCH   3  13
ATOM     13  C   UNL     1      35.438 -19.041 -21.828  0.00  0.00    +0.049 C 
ATOM     14  C   UNL     1      34.613 -19.954 -21.174  0.00  0.00    +0.018 C 
ATOM     15  C   UNL     1      35.140 -20.789 -20.188  0.00  0.00    +0.073 C 
ATOM     16  C   UNL     1      36.791 -18.962 -21.498  0.00  0.00    +0.015 C 
ATOM     17  C   UNL     1      36.492 -20.710 -19.857  0.00  0.00    +0.004 C 
ATOM     18  C   UNL     1      37.318 -19.796 -20.513  0.00  0.00    +0.001 C 
BRANCH  15  22
ATOM     19  F   UNL     1      33.037 -21.254 -19.145  0.00  0.00    -0.166 F 
ATOM     20  F   UNL     1      33.981 -22.881 -20.223  0.00  0.00    -0.166 F 
ATOM     21  F   UNL     1      34.801 -22.221 -18.321  0.00  0.00    -0.166 F 
ATOM     22  C   UNL     1      34.257 -21.765 -19.486  0.00  0.00    +0.419 C 
ENDBRANCH  15  22
ENDBRANCH   3  13
BRANCH   8  25
ATOM     23  O   UNL     1      34.546 -11.642 -24.427  0.00  0.00    -0.270 OA
ATOM     24  N   UNL     1      32.686 -12.208 -23.138  0.00  0.00    -0.278 N 
ATOM     25  C   UNL     1      33.710 -12.475 -24.055  0.00  0.00    +0.253 C 
ATOM     26  H   UNL     1      32.089 -12.962 -22.930  0.00  0.00    +0.155 HD
BRANCH  24  29
ATOM     27  N   UNL     1      31.604  -9.814 -20.529  0.00  0.00    -0.221 NA
ATOM     28  N   UNL     1      32.349  -8.583 -22.461  0.00  0.00    -0.221 NA
ATOM     29  C   UNL     1      32.399 -10.989 -22.473  0.00  0.00    +0.089 C 
ATOM     30  C   UNL     1      31.888 -10.954 -21.192  0.00  0.00    +0.117 C 
ATOM     31  C   UNL     1      32.611  -9.761 -23.065  0.00  0.00    +0.117 C 
ATOM     32  C   UNL     1      31.854  -8.682 -21.212  0.00  0.00    +0.199 C 
ENDBRANCH  24  29
ENDBRANCH   8  25
TORSDOF 4
ENDMDL
MODEL 2
REMARK VINA RESULT:     -13.6      5.213      9.600
REMARK  Name = 23658582
REMARK  4 active torsions:
REMARK  status: ('A' for Active; 'I' for Inactive)
REMARK    1  A    between atoms: N_3  and  C_13
REMARK    2  A    between atoms: C_8  and  C_25
REMARK    3  A    between atoms: C_15  and  C_22
REMARK    4  A    between atoms: N_24  and  C_29
REMARK                            x       y       z     vdW  Elec       q    Type
REMARK                         _______ _______ _______ _____ _____    ______ ____
ROOT
ATOM      1 CL   UNL     1      35.341 -19.588 -24.571  0.00  0.00    -0.082 Cl
ATOM      2  O   UNL     1      34.312 -15.600 -21.437  0.00  0.00    -0.352 OA
ATOM      3  N   UNL     1      33.493 -13.000 -23.619  0.00  0.00    -0.295 N 
ATOM      4  N   UNL     1      33.928 -14.279 -21.640  0.00  0.00    -0.062 NA
ATOM      5  C   UNL     1      34.156 -15.326 -23.655  0.00  0.00    +0.072 A 
ATOM      6  C   UNL     1      34.447 -16.221 -22.640  0.00  0.00    +0.183 A 
ATOM      7  C   UNL     1      33.841 -14.138 -22.966  0.00  0.00    +0.174 A 
ATOM      8  C   UNL     1      34.819 -17.548 -22.846  0.00  0.00    +0.101 C 
ATOM      9  C   UNL     1      34.232 -15.758 -24.987  0.00  0.00    +0.007 C 
ATOM     10  C   UNL     1      34.891 -17.963 -24.180  0.00  0.00    +0.065 C 
ATOM     11  C   UNL     1      34.604 -17.087 -25.231  0.00  0.00    +0.012 C 
ATOM     12  H   UNL     1      33.571 -13.063 -24.598  0.00  0.00    +0.154 HD
ENDROOT
BRANCH   3  13
ATOM     13  C   UNL     1      33.037 -11.732 -23.160  0.00  0.00    +0.049 C 
ATOM     14  C   UNL     1      33.734 -10.574 -23.505  0.00  0.00    +0.018 C 
ATOM     15  C   UNL     1      33.287  -9.331 -23.055  0.00  0.00    +0.073 C 
ATOM     16  C   UNL     1      31.893 -11.647 -22.366  0.00  0.00    +0.015 C 
ATOM     17  C   UNL     1      32.144  -9.247 -22.261  0.00  0.00    +0.004 C 
ATOM     18  C   UNL     1      31.447 -10.406 -21.916  0.00  0.00    +0.001 C 
BRANCH  15  22
ATOM     19  F   UNL     1      34.403  -7.337 -22.347  0.00  0.00    -0.166 F 
ATOM     20  F   UNL     1      35.191  -8.333 -24.104  0.00  0.00    -0.166 F 
ATOM     21  F   UNL     1      33.304  -7.259 -24.221  0.00  0.00    -0.166 F 
ATOM     22  C   UNL     1      34.032  -8.093 -23.422  0.00  0.00    +0.419 C 
ENDBRANCH  15  22
ENDBRANCH   3  13
BRANCH   8  25
ATOM     23  O   UNL     1      36.075 -18.197 -20.979  0.00  0.00    -0.270 OA
ATOM     24  N   UNL     1      34.241 -19.509 -21.577  0.00  0.00    -0.278 N 
ATOM     25  C   UNL     1      35.107 -18.417 -21.718  0.00  0.00    +0.253 C 
ATOM     26  H   UNL     1      33.510 -19.565 -22.234  0.00  0.00    +0.155 HD
BRANCH  24  29
ATOM     27  N   UNL     1      33.145 -22.015 -19.081  0.00  0.00    -0.221 NA
ATOM     28  N   UNL     1      35.543 -22.115 -19.291  0.00  0.00    -0.221 NA
ATOM     29  C   UNL     1      34.283 -20.544 -20.609  0.00  0.00    +0.089 C 
ATOM     30  C   UNL     1      33.142 -21.032 -20.005  0.00  0.00    +0.117 C 
ATOM     31  C   UNL     1      35.467 -21.128 -20.209  0.00  0.00    +0.117 C 
ATOM     32  C   UNL     1      34.361 -22.504 -18.775  0.00  0.00    +0.199 C 
ENDBRANCH  24  29
ENDBRANCH   8  25
TORSDOF 4
ENDMDL
MODEL 3
REMARK VINA RESULT:     -13.5      4.314      8.975
REMARK  Name = 23658582
REMARK  4 active torsions:
REMARK  status: ('A' for Active; 'I' for Inactive)
REMARK    1  A    between atoms: N_3  and  C_13
REMARK    2  A    between atoms: C_8  and  C_25
REMARK    3  A    between atoms: C_15  and  C_22
REMARK    4  A    between atoms: N_24  and  C_29
REMARK                            x       y       z     vdW  Elec       q    Type
REMARK                         _______ _______ _______ _____ _____    ______ ____
ROOT
ATOM      1 CL   UNL     1      35.303 -20.142 -24.748  0.00  0.00    -0.082 Cl
ATOM      2  O   UNL     1      34.598 -16.047 -21.663  0.00  0.00    -0.352 OA
ATOM      3  N   UNL     1      33.774 -13.464 -23.863  0.00  0.00    -0.295 N 
ATOM      4  N   UNL     1      34.257 -14.716 -21.879  0.00  0.00    -0.062 NA
ATOM      5  C   UNL     1      34.339 -15.816 -23.876  0.00  0.00    +0.072 A 
ATOM      6  C   UNL     1      34.645 -16.700 -22.856  0.00  0.00    +0.183 A 
ATOM      7  C   UNL     1      34.109 -14.601 -23.202  0.00  0.00    +0.174 A 
ATOM      8  C   UNL     1      34.952 -18.044 -23.049  0.00  0.00    +0.101 C 
ATOM      9  C   UNL     1      34.330 -16.280 -25.200  0.00  0.00    +0.007 C 
ATOM     10  C   UNL     1      34.940 -18.492 -24.373  0.00  0.00    +0.065 C 
ATOM     11  C   UNL     1      34.635 -17.628 -25.430  0.00  0.00    +0.012 C 
ATOM     12  H   UNL     1      33.799 -13.551 -24.843  0.00  0.00    +0.154 HD
ENDROOT
BRANCH   3  13
ATOM     13  C   UNL     1      33.394 -12.168 -23.412  0.00  0.00    +0.049 C 
ATOM     14  C   UNL     1      32.568 -12.032 -22.297  0.00  0.00    +0.018 C 
ATOM     15  C   UNL     1      32.197 -10.762 -21.854  0.00  0.00    +0.073 C 
ATOM     16  C   UNL     1      33.848 -11.034 -24.086  0.00  0.00    +0.015 C 
ATOM     17  C   UNL     1      32.650  -9.629 -22.528  0.00  0.00    +0.004 C 
ATOM     18  C   UNL     1      33.477  -9.765 -23.644  0.00  0.00    +0.001 C 
BRANCH  15  22
ATOM     19  F   UNL     1      31.763 -11.285 -19.560  0.00  0.00    -0.166 F 
ATOM     20  F   UNL     1      31.155  -9.323 -20.253  0.00  0.00    -0.166 F 
ATOM     21  F   UNL     1      30.050 -11.086 -20.884  0.00  0.00    -0.166 F 
ATOM     22  C   UNL     1      31.312 -10.616 -20.662  0.00  0.00    +0.419 C 
ENDBRANCH  15  22
ENDBRANCH   3  13
BRANCH   8  25
ATOM     23  O   UNL     1      36.380 -18.868 -21.384  0.00  0.00    -0.270 OA
ATOM     24  N   UNL     1      34.229 -19.761 -21.525  0.00  0.00    -0.278 N 
ATOM     25  C   UNL     1      35.263 -18.900 -21.916  0.00  0.00    +0.253 C 
ATOM     26  H   UNL     1      33.390 -19.683 -22.033  0.00  0.00    +0.155 HD
BRANCH  24  29
ATOM     27  N   UNL     1      33.048 -22.091 -18.900  0.00  0.00    -0.221 NA
ATOM     28  N   UNL     1      35.450 -22.216 -19.036  0.00  0.00    -0.221 NA
ATOM     29  C   UNL     1      34.238 -20.730 -20.489  0.00  0.00    +0.089 C 
ATOM     30  C   UNL     1      33.077 -21.171 -19.886  0.00  0.00    +0.117 C 
ATOM     31  C   UNL     1      35.406 -21.292 -20.019  0.00  0.00    +0.117 C 
ATOM     32  C   UNL     1      34.252 -22.564 -18.529  0.00  0.00    +0.199 C 
ENDBRANCH  24  29
ENDBRANCH   8  25
TORSDOF 4
ENDMDL
MODEL 4
REMARK VINA RESULT:     -13.2      1.440      2.043
REMARK  Name = 23658582
REMARK  4 active torsions:
REMARK  status: ('A' for Active; 'I' for Inactive)
REMARK    1  A    between atoms: N_3  and  C_13
REMARK    2  A    between atoms: C_8  and  C_25
REMARK    3  A    between atoms: C_15  and  C_22
REMARK    4  A    between atoms: N_24  and  C_29
REMARK                            x       y       z     vdW  Elec       q    Type
REMARK                         _______ _______ _______ _____ _____    ______ ____
ROOT
ATOM      1 CL   UNL     1      33.814 -14.888 -26.473  0.00  0.00    -0.082 Cl
ATOM      2  O   UNL     1      34.576 -16.287 -21.549  0.00  0.00    -0.352 OA
ATOM      3  N   UNL     1      35.056 -19.742 -21.717  0.00  0.00    -0.295 N 
ATOM      4  N   UNL     1      34.824 -17.497 -20.911  0.00  0.00    -0.062 NA
ATOM      5  C   UNL     1      34.619 -17.847 -23.157  0.00  0.00    +0.072 A 
ATOM      6  C   UNL     1      34.456 -16.499 -22.888  0.00  0.00    +0.183 A 
ATOM      7  C   UNL     1      34.844 -18.411 -21.886  0.00  0.00    +0.174 A 
ATOM      8  C   UNL     1      34.205 -15.531 -23.857  0.00  0.00    +0.101 C 
ATOM      9  C   UNL     1      34.532 -18.293 -24.484  0.00  0.00    +0.007 C 
ATOM     10  C   UNL     1      34.121 -15.990 -25.175  0.00  0.00    +0.065 C 
ATOM     11  C   UNL     1      34.281 -17.345 -25.485  0.00  0.00    +0.012 C 
ATOM     12  H   UNL     1      34.946 -20.270 -22.541  0.00  0.00    +0.154 HD
ENDROOT
BRANCH   3  13
ATOM     13  C   UNL     1      35.405 -20.521 -20.578  0.00  0.00    +0.049 C 
ATOM     14  C   UNL     1      34.438 -21.300 -19.944  0.00  0.00    +0.018 C 
ATOM     15  C   UNL     1      34.781 -22.065 -18.828  0.00  0.00    +0.073 C 
ATOM     16  C   UNL     1      36.715 -20.506 -20.098  0.00  0.00    +0.015 C 
ATOM     17  C   UNL     1      36.090 -22.049 -18.347  0.00  0.00    +0.004 C 
ATOM     18  C   UNL     1      37.057 -21.269 -18.983  0.00  0.00    +0.001 C 
BRANCH  15  22
ATOM     19  F   UNL     1      32.521 -22.299 -18.078  0.00  0.00    -0.166 F 
ATOM     20  F   UNL     1      33.522 -24.097 -18.760  0.00  0.00    -0.166 F 
ATOM     21  F   UNL     1      34.081 -23.200 -16.860  0.00  0.00    -0.166 F 
ATOM     22  C   UNL     1      33.747 -22.897 -18.148  0.00  0.00    +0.419 C 
ENDBRANCH  15  22
ENDBRANCH   3  13
BRANCH   8  25
ATOM     23  O   UNL     1      34.895 -13.293 -23.802  0.00  0.00    -0.270 OA
ATOM     24  N   UNL     1      32.906 -13.854 -22.720  0.00  0.00    -0.278 N 
ATOM     25  C   UNL     1      34.047 -14.136 -23.483  0.00  0.00    +0.253 C 
ATOM     26  H   UNL     1      32.313 -14.618 -22.537  0.00  0.00    +0.155 HD
BRANCH  24  29
ATOM     27  N   UNL     1      32.017 -10.269 -22.466  0.00  0.00    -0.221 NA
ATOM     28  N   UNL     1      31.775 -11.292 -20.298  0.00  0.00    -0.221 NA
ATOM     29  C   UNL     1      32.497 -12.609 -22.177  0.00  0.00    +0.089 C 
ATOM     30  C   UNL     1      32.403 -11.468 -22.948  0.00  0.00    +0.117 C 
ATOM     31  C   UNL     1      32.168 -12.461 -20.846  0.00  0.00    +0.117 C 
ATOM     32  C   UNL     1      31.723 -10.252 -21.152  0.00  0.00    +0.199 C 
ENDBRANCH  24  29
ENDBRANCH   8  25
TORSDOF 4
ENDMDL
MODEL 5
REMARK VINA RESULT:     -13.0      7.039     11.516
REMARK  Name = 23658582
REMARK  4 active torsions:
REMARK  status: ('A' for Active; 'I' for Inactive)
REMARK    1  A    between atoms: N_3  and  C_13
REMARK    2  A    between atoms: C_8  and  C_25
REMARK    3  A    between atoms: C_15  and  C_22
REMARK    4  A    between atoms: N_24  and  C_29
REMARK                            x       y       z     vdW  Elec       q    Type
REMARK                         _______ _______ _______ _____ _____    ______ ____
ROOT
ATOM      1 CL   UNL     1      32.220 -24.514 -15.062  0.00  0.00    -0.082 Cl
ATOM      2  O   UNL     1      36.043 -22.464 -17.886  0.00  0.00    -0.352 OA
ATOM      3  N   UNL     1      34.383 -20.711 -20.408  0.00  0.00    -0.295 N 
ATOM      4  N   UNL     1      36.088 -21.663 -19.021  0.00  0.00    -0.062 NA
ATOM      5  C   UNL     1      33.914 -22.084 -18.472  0.00  0.00    +0.072 A 
ATOM      6  C   UNL     1      34.745 -22.712 -17.560  0.00  0.00    +0.183 A 
ATOM      7  C   UNL     1      34.812 -21.449 -19.353  0.00  0.00    +0.174 A 
ATOM      8  C   UNL     1      34.295 -23.477 -16.487  0.00  0.00    +0.101 C 
ATOM      9  C   UNL     1      32.525 -22.208 -18.326  0.00  0.00    +0.007 C 
ATOM     10  C   UNL     1      32.908 -23.592 -16.355  0.00  0.00    +0.065 C 
ATOM     11  C   UNL     1      32.037 -22.971 -17.256  0.00  0.00    +0.012 C 
ATOM     12  H   UNL     1      33.408 -20.741 -20.545  0.00  0.00    +0.154 HD
ENDROOT
BRANCH   3  13
ATOM     13  C   UNL     1      35.070 -19.903 -21.357  0.00  0.00    +0.049 C 
ATOM     14  C   UNL     1      34.414 -19.466 -22.507  0.00  0.00    +0.018 C 
ATOM     15  C   UNL     1      35.088 -18.674 -23.436  0.00  0.00    +0.073 C 
ATOM     16  C   UNL     1      36.400 -19.546 -21.135  0.00  0.00    +0.015 C 
ATOM     17  C   UNL     1      36.418 -18.317 -23.215  0.00  0.00    +0.004 C 
ATOM     18  C   UNL     1      37.074 -18.754 -22.063  0.00  0.00    +0.001 C 
BRANCH  15  22
ATOM     19  F   UNL     1      33.855 -16.956 -24.555  0.00  0.00    -0.166 F 
ATOM     20  F   UNL     1      35.195 -18.153 -25.769  0.00  0.00    -0.166 F 
ATOM     21  F   UNL     1      33.347 -19.018 -25.018  0.00  0.00    -0.166 F 
ATOM     22  C   UNL     1      34.388 -18.208 -24.668  0.00  0.00    +0.419 C 
ENDBRANCH  15  22
ENDBRANCH   3  13
BRANCH   8  25
ATOM     23  O   UNL     1      35.370 -25.333 -15.546  0.00  0.00    -0.270 OA
ATOM     24  N   UNL     1      35.938 -23.216 -14.747  0.00  0.00    -0.278 N 
ATOM     25  C   UNL     1      35.241 -24.102 -15.579  0.00  0.00    +0.253 C 
ATOM     26  H   UNL     1      35.740 -22.260 -14.877  0.00  0.00    +0.155 HD
BRANCH  24  29
ATOM     27  N   UNL     1      38.965 -24.545 -13.079  0.00  0.00    -0.221 NA
ATOM     28  N   UNL     1      37.618 -23.386 -11.452  0.00  0.00    -0.221 NA
ATOM     29  C   UNL     1      36.891 -23.519 -13.742  0.00  0.00    +0.089 C 
ATOM     30  C   UNL     1      38.038 -24.239 -14.010  0.00  0.00    +0.117 C 
ATOM     31  C   UNL     1      36.731 -23.115 -12.433  0.00  0.00    +0.117 C 
ATOM     32  C   UNL     1      38.696 -24.094 -11.839  0.00  0.00    +0.199 C 
ENDBRANCH  24  29
ENDBRANCH   8  25
TORSDOF 4
ENDMDL
MODEL 6
REMARK VINA RESULT:     -12.9      6.023     10.383
REMARK  Name = 23658582
REMARK  4 active torsions:
REMARK  status: ('A' for Active; 'I' for Inactive)
REMARK    1  A    between atoms: N_3  and  C_13
REMARK    2  A    between atoms: C_8  and  C_25
REMARK    3  A    between atoms: C_15  and  C_22
REMARK    4  A    between atoms: N_24  and  C_29
REMARK                            x       y       z     vdW  Elec       q    Type
REMARK                         _______ _______ _______ _____ _____    ______ ____
ROOT
ATOM      1 CL   UNL     1      36.089 -23.557 -16.257  0.00  0.00    -0.082 Cl
ATOM      2  O   UNL     1      33.264 -21.469 -20.058  0.00  0.00    -0.352 OA
ATOM      3  N   UNL     1      35.457 -19.239 -21.612  0.00  0.00    -0.295 N 
ATOM      4  N   UNL     1      33.514 -20.523 -21.045  0.00  0.00    -0.062 NA
ATOM      5  C   UNL     1      35.393 -20.826 -19.787  0.00  0.00    +0.072 A 
ATOM      6  C   UNL     1      34.387 -21.648 -19.310  0.00  0.00    +0.183 A 
ATOM      7  C   UNL     1      34.786 -20.153 -20.865  0.00  0.00    +0.174 A 
ATOM      8  C   UNL     1      34.528 -22.514 -18.228  0.00  0.00    +0.101 C 
ATOM      9  C   UNL     1      36.647 -20.848 -19.158  0.00  0.00    +0.007 C 
ATOM     10  C   UNL     1      35.784 -22.525 -17.612  0.00  0.00    +0.065 C 
ATOM     11  C   UNL     1      36.824 -21.708 -18.066  0.00  0.00    +0.012 C 
ATOM     12  H   UNL     1      36.358 -19.033 -21.273  0.00  0.00    +0.154 HD
ENDROOT
BRANCH   3  13
ATOM     13  C   UNL     1      35.108 -18.521 -22.790  0.00  0.00    +0.049 C 
ATOM     14  C   UNL     1      34.840 -17.154 -22.719  0.00  0.00    +0.018 C 
ATOM     15  C   UNL     1      34.498 -16.450 -23.874  0.00  0.00    +0.073 C 
ATOM     16  C   UNL     1      35.035 -19.183 -24.015  0.00  0.00    +0.015 C 
ATOM     17  C   UNL     1      34.425 -17.112 -25.099  0.00  0.00    +0.004 C 
ATOM     18  C   UNL     1      34.693 -18.480 -25.169  0.00  0.00    +0.001 C 
BRANCH  15  22
ATOM     19  F   UNL     1      35.141 -14.282 -23.093  0.00  0.00    -0.166 F 
ATOM     20  F   UNL     1      34.152 -14.379 -25.020  0.00  0.00    -0.166 F 
ATOM     21  F   UNL     1      33.014 -14.719 -23.199  0.00  0.00    -0.166 F 
ATOM     22  C   UNL     1      34.210 -14.988 -23.799  0.00  0.00    +0.419 C 
ENDBRANCH  15  22
ENDBRANCH   3  13
BRANCH   8  25
ATOM     23  O   UNL     1      33.333 -24.526 -18.143  0.00  0.00    -0.270 OA
ATOM     24  N   UNL     1      32.460 -22.684 -17.010  0.00  0.00    -0.278 N 
ATOM     25  C   UNL     1      33.415 -23.342 -17.795  0.00  0.00    +0.253 C 
ATOM     26  H   UNL     1      32.648 -21.740 -16.806  0.00  0.00    +0.155 HD
BRANCH  24  29
ATOM     27  N   UNL     1      30.123 -24.727 -14.991  0.00  0.00    -0.221 NA
ATOM     28  N   UNL     1      28.851 -23.214 -16.369  0.00  0.00    -0.221 NA
ATOM     29  C   UNL     1      31.256 -23.205 -16.472  0.00  0.00    +0.089 C 
ATOM     30  C   UNL     1      31.248 -24.208 -15.525  0.00  0.00    +0.117 C 
ATOM     31  C   UNL     1      30.016 -22.742 -16.861  0.00  0.00    +0.117 C 
ATOM     32  C   UNL     1      28.977 -24.192 -15.452  0.00  0.00    +0.199 C 
ENDBRANCH  24  29
ENDBRANCH   8  25
TORSDOF 4
ENDMDL
MODEL 7
REMARK VINA RESULT:     -12.0      4.231      7.198
REMARK  Name = 23658582
REMARK  4 active torsions:
REMARK  status: ('A' for Active; 'I' for Inactive)
REMARK    1  A    between atoms: N_3  and  C_13
REMARK    2  A    between atoms: C_8  and  C_25
REMARK    3  A    between atoms: C_15  and  C_22
REMARK    4  A    between atoms: N_24  and  C_29
REMARK                            x       y       z     vdW  Elec       q    Type
REMARK                         _______ _______ _______ _____ _____    ______ ____
ROOT
ATOM      1 CL   UNL     1      37.723 -18.962 -22.221  0.00  0.00    -0.082 Cl
ATOM      2  O   UNL     1      33.146 -20.701 -20.544  0.00  0.00    -0.352 OA
ATOM      3  N   UNL     1      33.943 -22.585 -17.715  0.00  0.00    -0.295 N 
ATOM      4  N   UNL     1      32.741 -21.497 -19.479  0.00  0.00    -0.062 NA
ATOM      5  C   UNL     1      35.009 -21.252 -19.429  0.00  0.00    +0.072 A 
ATOM      6  C   UNL     1      34.499 -20.556 -20.511  0.00  0.00    +0.183 A 
ATOM      7  C   UNL     1      33.865 -21.814 -18.829  0.00  0.00    +0.174 A 
ATOM      8  C   UNL     1      35.273 -19.830 -21.413  0.00  0.00    +0.101 C 
ATOM      9  C   UNL     1      36.393 -21.241 -19.203  0.00  0.00    +0.007 C 
ATOM     10  C   UNL     1      36.651 -19.828 -21.174  0.00  0.00    +0.065 C 
ATOM     11  C   UNL     1      37.203 -20.519 -20.091  0.00  0.00    +0.012 C 
ATOM     12  H   UNL     1      34.865 -22.782 -17.431  0.00  0.00    +0.154 HD
ENDROOT
BRANCH   3  13
ATOM     13  C   UNL     1      32.948 -23.165 -16.878  0.00  0.00    +0.049 C 
ATOM     14  C   UNL     1      31.599 -22.917 -17.124  0.00  0.00    +0.018 C 
ATOM     15  C   UNL     1      30.624 -23.486 -16.304  0.00  0.00    +0.073 C 
ATOM     16  C   UNL     1      33.324 -23.983 -15.812  0.00  0.00    +0.015 C 
ATOM     17  C   UNL     1      30.999 -24.303 -15.238  0.00  0.00    +0.004 C 
ATOM     18  C   UNL     1      32.350 -24.551 -14.992  0.00  0.00    +0.001 C 
BRANCH  15  22
ATOM     19  F   UNL     1      28.951 -22.057 -17.245  0.00  0.00    -0.166 F 
ATOM     20  F   UNL     1      28.571 -24.191 -17.310  0.00  0.00    -0.166 F 
ATOM     21  F   UNL     1      28.447 -23.125 -15.419  0.00  0.00    -0.166 F 
ATOM     22  C   UNL     1      29.180 -23.220 -16.566  0.00  0.00    +0.419 C 
ENDBRANCH  15  22
ENDBRANCH   3  13
BRANCH   8  25
ATOM     23  O   UNL     1      33.859 -19.711 -23.276  0.00  0.00    -0.270 OA
ATOM     24  N   UNL     1      35.046 -17.794 -22.676  0.00  0.00    -0.278 N 
ATOM     25  C   UNL     1      34.650 -19.129 -22.522  0.00  0.00    +0.253 C 
ATOM     26  H   UNL     1      35.681 -17.455 -22.005  0.00  0.00    +0.155 HD
BRANCH  24  29
ATOM     27  N   UNL     1      34.309 -16.325 -25.994  0.00  0.00    -0.221 NA
ATOM     28  N   UNL     1      33.818 -14.696 -24.289  0.00  0.00    -0.221 NA
ATOM     29  C   UNL     1      34.648 -16.869 -23.674  0.00  0.00    +0.089 C 
ATOM     30  C   UNL     1      34.680 -17.180 -25.019  0.00  0.00    +0.117 C 
ATOM     31  C   UNL     1      34.204 -15.600 -23.365  0.00  0.00    +0.117 C 
ATOM     32  C   UNL     1      33.895 -15.118 -25.566  0.00  0.00    +0.199 C 
ENDBRANCH  24  29
ENDBRANCH   8  25
TORSDOF 4
ENDMDL
MODEL 8
REMARK VINA RESULT:     -11.7      3.505      5.933
REMARK  Name = 23658582
REMARK  4 active torsions:
REMARK  status: ('A' for Active; 'I' for Inactive)
REMARK    1  A    between atoms: N_3  and  C_13
REMARK    2  A    between atoms: C_8  and  C_25
REMARK    3  A    between atoms: C_15  and  C_22
REMARK    4  A    between atoms: N_24  and  C_29
REMARK                            x       y       z     vdW  Elec       q    Type
REMARK                         _______ _______ _______ _____ _____    ______ ____
ROOT
ATOM      1 CL   UNL     1      31.369  -7.926 -19.860  0.00  0.00    -0.082 Cl
ATOM      2  O   UNL     1      33.664 -10.502 -23.717  0.00  0.00    -0.352 OA
ATOM      3  N   UNL     1      33.162 -13.861 -22.907  0.00  0.00    -0.295 N 
ATOM      4  N   UNL     1      33.837 -11.848 -24.018  0.00  0.00    -0.062 NA
ATOM      5  C   UNL     1      32.670 -11.645 -22.067  0.00  0.00    +0.072 A 
ATOM      6  C   UNL     1      32.967 -10.384 -22.554  0.00  0.00    +0.183 A 
ATOM      7  C   UNL     1      33.239 -12.510 -23.023  0.00  0.00    +0.174 A 
ATOM      8  C   UNL     1      32.600  -9.195 -21.929  0.00  0.00    +0.101 C 
ATOM      9  C   UNL     1      31.952 -11.761 -20.868  0.00  0.00    +0.007 C 
ATOM     10  C   UNL     1      31.885  -9.327 -20.735  0.00  0.00    +0.065 C 
ATOM     11  C   UNL     1      31.566 -10.584 -20.212  0.00  0.00    +0.012 C 
ATOM     12  H   UNL     1      32.760 -14.165 -22.061  0.00  0.00    +0.154 HD
ENDROOT
BRANCH   3  13
ATOM     13  C   UNL     1      33.551 -14.922 -23.771  0.00  0.00    +0.049 C 
ATOM     14  C   UNL     1      34.200 -16.042 -23.252  0.00  0.00    +0.018 C 
ATOM     15  C   UNL     1      34.581 -17.082 -24.100  0.00  0.00    +0.073 C 
ATOM     16  C   UNL     1      33.282 -14.843 -25.138  0.00  0.00    +0.015 C 
ATOM     17  C   UNL     1      34.313 -17.003 -25.466  0.00  0.00    +0.004 C 
ATOM     18  C   UNL     1      33.663 -15.882 -25.985  0.00  0.00    +0.001 C 
BRANCH  15  22
ATOM     19  F   UNL     1      35.345 -19.327 -24.420  0.00  0.00    -0.166 F 
ATOM     20  F   UNL     1      36.571 -18.039 -23.179  0.00  0.00    -0.166 F 
ATOM     21  F   UNL     1      34.666 -18.773 -22.430  0.00  0.00    -0.166 F 
ATOM     22  C   UNL     1      35.277 -18.279 -23.546  0.00  0.00    +0.419 C 
ENDBRANCH  15  22
ENDBRANCH   3  13
BRANCH   8  25
ATOM     23  O   UNL     1      33.942  -7.284 -22.109  0.00  0.00    -0.270 OA
ATOM     24  N   UNL     1      32.087  -7.457 -23.513  0.00  0.00    -0.278 N 
ATOM     25  C   UNL     1      32.956  -7.914 -22.514  0.00  0.00    +0.253 C 
ATOM     26  H   UNL     1      31.341  -8.058 -23.740  0.00  0.00    +0.155 HD
BRANCH  24  29
ATOM     27  N   UNL     1      33.260  -4.811 -25.822  0.00  0.00    -0.221 NA
ATOM     28  N   UNL     1      31.202  -4.097 -24.793  0.00  0.00    -0.221 NA
ATOM     29  C   UNL     1      32.145  -6.241 -24.239  0.00  0.00    +0.089 C 
ATOM     30  C   UNL     1      33.173  -5.956 -25.115  0.00  0.00    +0.117 C 
ATOM     31  C   UNL     1      31.178  -5.265 -24.117  0.00  0.00    +0.117 C 
ATOM     32  C   UNL     1      32.256  -3.938 -25.615  0.00  0.00    +0.199 C 
ENDBRANCH  24  29
ENDBRANCH   8  25
TORSDOF 4
ENDMDL
MODEL 9
REMARK VINA RESULT:     -11.4      4.095      6.862
REMARK  Name = 23658582
REMARK  4 active torsions:
REMARK  status: ('A' for Active; 'I' for Inactive)
REMARK    1  A    between atoms: N_3  and  C_13
REMARK    2  A    between atoms: C_8  and  C_25
REMARK    3  A    between atoms: C_15  and  C_22
REMARK    4  A    between atoms: N_24  and  C_29
REMARK                            x       y       z     vdW  Elec       q    Type
REMARK                         _______ _______ _______ _____ _____    ______ ____
ROOT
ATOM      1 CL   UNL     1      37.743 -18.667 -22.728  0.00  0.00    -0.082 Cl
ATOM      2  O   UNL     1      33.162 -20.292 -20.950  0.00  0.00    -0.352 OA
ATOM      3  N   UNL     1      33.976 -22.213 -18.150  0.00  0.00    -0.295 N 
ATOM      4  N   UNL     1      32.762 -21.083 -19.880  0.00  0.00    -0.062 NA
ATOM      5  C   UNL     1      35.036 -20.899 -19.883  0.00  0.00    +0.072 A 
ATOM      6  C   UNL     1      34.519 -20.184 -20.949  0.00  0.00    +0.183 A 
ATOM      7  C   UNL     1      33.892 -21.434 -19.259  0.00  0.00    +0.174 A 
ATOM      8  C   UNL     1      35.290 -19.473 -21.865  0.00  0.00    +0.101 C 
ATOM      9  C   UNL     1      36.425 -20.926 -19.690  0.00  0.00    +0.007 C 
ATOM     10  C   UNL     1      36.673 -19.509 -21.660  0.00  0.00    +0.065 C 
ATOM     11  C   UNL     1      37.232 -20.221 -20.594  0.00  0.00    +0.012 C 
ATOM     12  H   UNL     1      34.899 -22.436 -17.889  0.00  0.00    +0.154 HD
ENDROOT
BRANCH   3  13
ATOM     13  C   UNL     1      32.986 -22.770 -17.292  0.00  0.00    +0.049 C 
ATOM     14  C   UNL     1      33.367 -23.420 -16.119  0.00  0.00    +0.018 C 
ATOM     15  C   UNL     1      32.397 -23.966 -15.278  0.00  0.00    +0.073 C 
ATOM     16  C   UNL     1      31.636 -22.665 -17.625  0.00  0.00    +0.015 C 
ATOM     17  C   UNL     1      31.047 -23.862 -15.610  0.00  0.00    +0.004 C 
ATOM     18  C   UNL     1      30.666 -23.211 -16.785  0.00  0.00    +0.001 C 
BRANCH  15  22
ATOM     19  F   UNL     1      33.135 -23.812 -13.007  0.00  0.00    -0.166 F 
ATOM     20  F   UNL     1      31.831 -25.471 -13.506  0.00  0.00    -0.166 F 
ATOM     21  F   UNL     1      33.892 -25.466 -14.198  0.00  0.00    -0.166 F 
ATOM     22  C   UNL     1      32.803 -24.662 -14.023  0.00  0.00    +0.419 C 
ENDBRANCH  15  22
ENDBRANCH   3  13
BRANCH   8  25
ATOM     23  O   UNL     1      33.997 -19.347 -23.814  0.00  0.00    -0.270 OA
ATOM     24  N   UNL     1      34.900 -17.370 -22.968  0.00  0.00    -0.278 N 
ATOM     25  C   UNL     1      34.660 -18.750 -22.957  0.00  0.00    +0.253 C 
ATOM     26  H   UNL     1      35.444 -17.023 -22.225  0.00  0.00    +0.155 HD
BRANCH  24  29
ATOM     27  N   UNL     1      34.142 -15.728 -26.199  0.00  0.00    -0.221 NA
ATOM     28  N   UNL     1      33.474 -14.268 -24.403  0.00  0.00    -0.221 NA
ATOM     29  C   UNL     1      34.458 -16.409 -23.912  0.00  0.00    +0.089 C 
ATOM     30  C   UNL     1      34.553 -16.619 -25.273  0.00  0.00    +0.117 C 
ATOM     31  C   UNL     1      33.906 -15.204 -23.531  0.00  0.00    +0.117 C 
ATOM     32  C   UNL     1      33.621 -14.590 -25.702  0.00  0.00    +0.199 C 
ENDBRANCH  24  29
ENDBRANCH   8  25
TORSDOF 4
ENDMDL
