MODEL 1
REMARK VINA RESULT:     -12.9      0.000      0.000
REMARK  Name = 46892373
REMARK  3 active torsions:
REMARK  status: ('A' for Active; 'I' for Inactive)
REMARK    1  A    between atoms: C_7  and  C_20
REMARK    2  A    between atoms: C_20  and  C_22
REMARK    3  A    between atoms: C_20  and  O_28
REMARK                            x       y       z     vdW  Elec       q    Type
REMARK                         _______ _______ _______ _____ _____    ______ ____
ROOT
ATOM      1  N   UNL     1      34.308 -23.725 -17.348  0.00  0.00    -0.326 NA
ATOM      2  N   UNL     1      34.915 -24.420 -15.184  0.00  0.00    -0.271 N 
ATOM      3  N   UNL     1      32.115 -22.826 -17.781  0.00  0.00    -0.345 NA
ATOM      4  N   UNL     1      38.332 -23.991 -15.627  0.00  0.00    -0.239 N 
ATOM      5  N   UNL     1      37.088 -23.746 -16.069  0.00  0.00    -0.166 NA
ATOM      6  C   UNL     1      32.694 -23.524 -15.560  0.00  0.00    +0.072 C 
ATOM      7  C   UNL     1      33.358 -23.203 -18.140  0.00  0.00    +0.146 C 
ATOM      8  C   UNL     1      33.945 -23.873 -16.061  0.00  0.00    +0.199 C 
ATOM      9  C   UNL     1      31.785 -22.988 -16.487  0.00  0.00    +0.129 C 
ATOM     10  C   UNL     1      32.338 -23.689 -14.211  0.00  0.00    +0.006 C 
ATOM     11  C   UNL     1      30.521 -22.626 -16.024  0.00  0.00    +0.086 C 
ATOM     12  C   UNL     1      36.319 -24.373 -15.175  0.00  0.00    +0.152 C 
ATOM     13  C   UNL     1      31.069 -23.319 -13.776  0.00  0.00    -0.004 C 
ATOM     14  C   UNL     1      30.161 -22.787 -14.684  0.00  0.00    -0.019 C 
ATOM     15  C   UNL     1      37.066 -25.014 -14.170  0.00  0.00    +0.048 C 
ATOM     16  C   UNL     1      38.374 -24.747 -14.492  0.00  0.00    +0.046 C 
ATOM     17  C   UNL     1      39.642 -25.127 -13.850  0.00  0.00    +0.049 C 
ATOM     18  H   UNL     1      34.531 -24.934 -14.437  0.00  0.00    +0.156 HD
ATOM     19  H   UNL     1      39.140 -23.657 -16.080  0.00  0.00    +0.174 HD
ENDROOT
BRANCH   7  20
ATOM     20  C   UNL     1      33.717 -23.020 -19.577  0.00  0.00    +0.243 C 
BRANCH  20  22
ATOM     21  F   UNL     1      37.454 -18.877 -20.487  0.00  0.00    -0.204 F 
ATOM     22  C   UNL     1      34.724 -21.902 -19.822  0.00  0.00    +0.021 C 
ATOM     23  C   UNL     1      34.363 -20.793 -20.586  0.00  0.00    +0.001 C 
ATOM     24  C   UNL     1      36.008 -21.990 -19.284  0.00  0.00    +0.001 C 
ATOM     25  C   UNL     1      35.285 -19.770 -20.810  0.00  0.00    +0.029 C 
ATOM     26  C   UNL     1      36.931 -20.968 -19.508  0.00  0.00    +0.029 C 
ATOM     27  C   UNL     1      36.568 -19.858 -20.272  0.00  0.00    +0.140 C 
ENDBRANCH  20  22
BRANCH  20  28
ATOM     28  O   UNL     1      34.201 -24.235 -20.177  0.00  0.00    -0.366 OA
ATOM     29  H   UNL     1      35.156 -24.313 -20.025  0.00  0.00    +0.212 HD
ENDBRANCH  20  28
ENDBRANCH   7  20
TORSDOF 3
ENDMDL
MODEL 2
REMARK VINA RESULT:     -12.5      2.939      7.147
REMARK  Name = 46892373
REMARK  3 active torsions:
REMARK  status: ('A' for Active; 'I' for Inactive)
REMARK    1  A    between atoms: C_7  and  C_20
REMARK    2  A    between atoms: C_20  and  C_22
REMARK    3  A    between atoms: C_20  and  O_28
REMARK                            x       y       z     vdW  Elec       q    Type
REMARK                         _______ _______ _______ _____ _____    ______ ____
ROOT
ATOM      1  N   UNL     1      33.826 -23.589 -15.717  0.00  0.00    -0.326 NA
ATOM      2  N   UNL     1      32.153 -22.970 -17.251  0.00  0.00    -0.271 N 
ATOM      3  N   UNL     1      36.148 -23.144 -16.184  0.00  0.00    -0.345 NA
ATOM      4  N   UNL     1      29.601 -22.741 -14.908  0.00  0.00    -0.239 N 
ATOM      5  N   UNL     1      30.920 -22.817 -15.149  0.00  0.00    -0.166 NA
ATOM      6  C   UNL     1      34.472 -22.498 -17.775  0.00  0.00    +0.072 C 
ATOM      7  C   UNL     1      35.137 -23.615 -15.427  0.00  0.00    +0.146 C 
ATOM      8  C   UNL     1      33.525 -23.022 -16.900  0.00  0.00    +0.199 C 
ATOM      9  C   UNL     1      35.812 -22.585 -17.361  0.00  0.00    +0.129 C 
ATOM     10  C   UNL     1      34.134 -21.912 -19.006  0.00  0.00    +0.006 C 
ATOM     11  C   UNL     1      36.790 -22.070 -18.209  0.00  0.00    +0.086 C 
ATOM     12  C   UNL     1      30.981 -22.880 -16.482  0.00  0.00    +0.152 C 
ATOM     13  C   UNL     1      35.130 -21.406 -19.835  0.00  0.00    -0.004 C 
ATOM     14  C   UNL     1      36.459 -21.486 -19.435  0.00  0.00    -0.019 C 
ATOM     15  C   UNL     1      29.711 -22.844 -17.087  0.00  0.00    +0.048 C 
ATOM     16  C   UNL     1      28.833 -22.753 -16.034  0.00  0.00    +0.046 C 
ATOM     17  C   UNL     1      27.364 -22.679 -15.982  0.00  0.00    +0.049 C 
ATOM     18  H   UNL     1      31.989 -23.006 -18.221  0.00  0.00    +0.156 HD
ATOM     19  H   UNL     1      29.224 -22.681 -14.000  0.00  0.00    +0.174 HD
ENDROOT
BRANCH   7  20
ATOM     20  C   UNL     1      35.518 -24.234 -14.124  0.00  0.00    +0.243 C 
BRANCH  20  22
ATOM     21  F   UNL     1      40.796 -26.255 -14.016  0.00  0.00    -0.204 F 
ATOM     22  C   UNL     1      36.941 -24.779 -14.096  0.00  0.00    +0.021 C 
ATOM     23  C   UNL     1      37.315 -25.798 -14.970  0.00  0.00    +0.001 C 
ATOM     24  C   UNL     1      37.869 -24.259 -13.193  0.00  0.00    +0.001 C 
ATOM     25  C   UNL     1      38.618 -26.297 -14.944  0.00  0.00    +0.029 C 
ATOM     26  C   UNL     1      39.172 -24.757 -13.166  0.00  0.00    +0.029 C 
ATOM     27  C   UNL     1      39.546 -25.777 -14.042  0.00  0.00    +0.140 C 
ENDBRANCH  20  22
BRANCH  20  28
ATOM     28  O   UNL     1      35.332 -23.332 -13.018  0.00  0.00    -0.366 OA
ATOM     29  H   UNL     1      34.485 -22.870 -13.115  0.00  0.00    +0.212 HD
ENDBRANCH  20  28
ENDBRANCH   7  20
TORSDOF 3
ENDMDL
MODEL 3
REMARK VINA RESULT:     -12.3      1.738      5.387
REMARK  Name = 46892373
REMARK  3 active torsions:
REMARK  status: ('A' for Active; 'I' for Inactive)
REMARK    1  A    between atoms: C_7  and  C_20
REMARK    2  A    between atoms: C_20  and  C_22
REMARK    3  A    between atoms: C_20  and  O_28
REMARK                            x       y       z     vdW  Elec       q    Type
REMARK                         _______ _______ _______ _____ _____    ______ ____
ROOT
ATOM      1  N   UNL     1      32.223 -22.807 -17.545  0.00  0.00    -0.326 NA
ATOM      2  N   UNL     1      30.860 -22.612 -15.637  0.00  0.00    -0.271 N 
ATOM      3  N   UNL     1      34.468 -23.666 -17.370  0.00  0.00    -0.345 NA
ATOM      4  N   UNL     1      27.843 -22.790 -17.346  0.00  0.00    -0.239 N 
ATOM      5  N   UNL     1      29.174 -22.975 -17.364  0.00  0.00    -0.166 NA
ATOM      6  C   UNL     1      33.110 -23.482 -15.400  0.00  0.00    +0.072 C 
ATOM      7  C   UNL     1      33.415 -23.167 -18.048  0.00  0.00    +0.146 C 
ATOM      8  C   UNL     1      32.102 -22.977 -16.215  0.00  0.00    +0.199 C 
ATOM      9  C   UNL     1      34.312 -23.823 -16.043  0.00  0.00    +0.129 C 
ATOM     10  C   UNL     1      32.960 -23.651 -14.014  0.00  0.00    +0.006 C 
ATOM     11  C   UNL     1      35.346 -24.333 -15.261  0.00  0.00    +0.086 C 
ATOM     12  C   UNL     1      29.548 -22.604 -16.137  0.00  0.00    +0.152 C 
ATOM     13  C   UNL     1      34.009 -24.161 -13.256  0.00  0.00    -0.004 C 
ATOM     14  C   UNL     1      35.203 -24.503 -13.881  0.00  0.00    -0.019 C 
ATOM     15  C   UNL     1      28.465 -22.186 -15.341  0.00  0.00    +0.048 C 
ATOM     16  C   UNL     1      27.368 -22.319 -16.158  0.00  0.00    +0.046 C 
ATOM     17  C   UNL     1      25.939 -22.049 -15.936  0.00  0.00    +0.049 C 
ATOM     18  H   UNL     1      30.932 -22.302 -14.706  0.00  0.00    +0.156 HD
ATOM     19  H   UNL     1      27.264 -22.978 -18.120  0.00  0.00    +0.174 HD
ENDROOT
BRANCH   7  20
ATOM     20  C   UNL     1      33.595 -22.996 -19.519  0.00  0.00    +0.243 C 
BRANCH  20  22
ATOM     21  F   UNL     1      36.997 -18.702 -20.914  0.00  0.00    -0.204 F 
ATOM     22  C   UNL     1      34.512 -21.838 -19.895  0.00  0.00    +0.021 C 
ATOM     23  C   UNL     1      33.992 -20.720 -20.547  0.00  0.00    +0.001 C 
ATOM     24  C   UNL     1      35.872 -21.896 -19.588  0.00  0.00    +0.001 C 
ATOM     25  C   UNL     1      34.832 -19.660 -20.891  0.00  0.00    +0.029 C 
ATOM     26  C   UNL     1      36.712 -20.837 -19.932  0.00  0.00    +0.029 C 
ATOM     27  C   UNL     1      36.191 -19.719 -20.584  0.00  0.00    +0.140 C 
ENDBRANCH  20  22
BRANCH  20  28
ATOM     28  O   UNL     1      34.065 -24.199 -20.154  0.00  0.00    -0.366 OA
ATOM     29  H   UNL     1      33.365 -24.870 -20.136  0.00  0.00    +0.212 HD
ENDBRANCH  20  28
ENDBRANCH   7  20
TORSDOF 3
ENDMDL
MODEL 4
REMARK VINA RESULT:     -11.9      2.995      5.673
REMARK  Name = 46892373
REMARK  3 active torsions:
REMARK  status: ('A' for Active; 'I' for Inactive)
REMARK    1  A    between atoms: C_7  and  C_20
REMARK    2  A    between atoms: C_20  and  C_22
REMARK    3  A    between atoms: C_20  and  O_28
REMARK                            x       y       z     vdW  Elec       q    Type
REMARK                         _______ _______ _______ _____ _____    ______ ____
ROOT
ATOM      1  N   UNL     1      34.279 -23.680 -15.593  0.00  0.00    -0.326 NA
ATOM      2  N   UNL     1      36.535 -23.321 -16.158  0.00  0.00    -0.271 N 
ATOM      3  N   UNL     1      32.513 -22.959 -17.067  0.00  0.00    -0.345 NA
ATOM      4  N   UNL     1      37.791 -25.931 -14.245  0.00  0.00    -0.239 N 
ATOM      5  N   UNL     1      36.721 -25.347 -14.810  0.00  0.00    -0.166 NA
ATOM      6  C   UNL     1      34.800 -22.574 -17.679  0.00  0.00    +0.072 C 
ATOM      7  C   UNL     1      32.991 -23.533 -15.944  0.00  0.00    +0.146 C 
ATOM      8  C   UNL     1      35.161 -23.189 -16.484  0.00  0.00    +0.199 C 
ATOM      9  C   UNL     1      33.422 -22.479 -17.934  0.00  0.00    +0.129 C 
ATOM     10  C   UNL     1      35.740 -22.069 -18.592  0.00  0.00    +0.006 C 
ATOM     11  C   UNL     1      33.021 -21.870 -19.121  0.00  0.00    +0.086 C 
ATOM     12  C   UNL     1      37.244 -24.276 -15.412  0.00  0.00    +0.152 C 
ATOM     13  C   UNL     1      35.313 -21.464 -19.770  0.00  0.00    -0.004 C 
ATOM     14  C   UNL     1      33.951 -21.366 -20.034  0.00  0.00    -0.019 C 
ATOM     15  C   UNL     1      38.637 -24.177 -15.233  0.00  0.00    +0.048 C 
ATOM     16  C   UNL     1      38.962 -25.270 -14.468  0.00  0.00    +0.046 C 
ATOM     17  C   UNL     1      40.247 -25.748 -13.933  0.00  0.00    +0.049 C 
ATOM     18  H   UNL     1      37.100 -22.603 -16.524  0.00  0.00    +0.156 HD
ATOM     19  H   UNL     1      37.734 -26.761 -13.717  0.00  0.00    +0.174 HD
ENDROOT
BRANCH   7  20
ATOM     20  C   UNL     1      31.976 -24.063 -14.987  0.00  0.00    +0.243 C 
BRANCH  20  22
ATOM     21  F   UNL     1      26.650 -22.760 -16.364  0.00  0.00    -0.204 F 
ATOM     22  C   UNL     1      30.540 -23.712 -15.358  0.00  0.00    +0.021 C 
ATOM     23  C   UNL     1      29.764 -24.620 -16.079  0.00  0.00    +0.001 C 
ATOM     24  C   UNL     1      30.002 -22.483 -14.978  0.00  0.00    +0.001 C 
ATOM     25  C   UNL     1      28.450 -24.299 -16.418  0.00  0.00    +0.029 C 
ATOM     26  C   UNL     1      28.687 -22.161 -15.318  0.00  0.00    +0.029 C 
ATOM     27  C   UNL     1      27.912 -23.069 -16.038  0.00  0.00    +0.140 C 
ENDBRANCH  20  22
BRANCH  20  28
ATOM     28  O   UNL     1      32.086 -25.486 -14.809  0.00  0.00    -0.366 OA
ATOM     29  H   UNL     1      32.940 -25.697 -14.398  0.00  0.00    +0.212 HD
ENDBRANCH  20  28
ENDBRANCH   7  20
TORSDOF 3
ENDMDL
MODEL 5
REMARK VINA RESULT:     -11.7      3.071      6.740
REMARK  Name = 46892373
REMARK  3 active torsions:
REMARK  status: ('A' for Active; 'I' for Inactive)
REMARK    1  A    between atoms: C_7  and  C_20
REMARK    2  A    between atoms: C_20  and  C_22
REMARK    3  A    between atoms: C_20  and  O_28
REMARK                            x       y       z     vdW  Elec       q    Type
REMARK                         _______ _______ _______ _____ _____    ______ ____
ROOT
ATOM      1  N   UNL     1      35.580 -23.174 -16.453  0.00  0.00    -0.326 NA
ATOM      2  N   UNL     1      33.370 -23.371 -17.237  0.00  0.00    -0.271 N 
ATOM      3  N   UNL     1      37.211 -21.894 -17.680  0.00  0.00    -0.345 NA
ATOM      4  N   UNL     1      31.952 -23.985 -14.128  0.00  0.00    -0.239 N 
ATOM      5  N   UNL     1      33.015 -23.558 -14.829  0.00  0.00    -0.166 NA
ATOM      6  C   UNL     1      34.969 -22.070 -18.515  0.00  0.00    +0.072 C 
ATOM      7  C   UNL     1      36.806 -22.666 -16.652  0.00  0.00    +0.146 C 
ATOM      8  C   UNL     1      34.681 -22.857 -17.403  0.00  0.00    +0.199 C 
ATOM      9  C   UNL     1      36.288 -21.598 -18.613  0.00  0.00    +0.129 C 
ATOM     10  C   UNL     1      34.013 -21.754 -19.495  0.00  0.00    +0.006 C 
ATOM     11  C   UNL     1      36.615 -20.805 -19.711  0.00  0.00    +0.086 C 
ATOM     12  C   UNL     1      32.615 -23.689 -16.097  0.00  0.00    +0.152 C 
ATOM     13  C   UNL     1      34.367 -20.961 -20.582  0.00  0.00    -0.004 C 
ATOM     14  C   UNL     1      35.669 -20.487 -20.690  0.00  0.00    -0.019 C 
ATOM     15  C   UNL     1      31.306 -24.195 -16.205  0.00  0.00    +0.048 C 
ATOM     16  C   UNL     1      30.902 -24.378 -14.905  0.00  0.00    +0.046 C 
ATOM     17  C   UNL     1      29.644 -24.879 -14.328  0.00  0.00    +0.049 C 
ATOM     18  H   UNL     1      32.898 -23.537 -18.085  0.00  0.00    +0.156 HD
ATOM     19  H   UNL     1      31.932 -24.012 -13.144  0.00  0.00    +0.174 HD
ENDROOT
BRANCH   7  20
ATOM     20  C   UNL     1      37.836 -22.991 -15.622  0.00  0.00    +0.243 C 
BRANCH  20  22
ATOM     21  F   UNL     1      35.749 -25.554 -11.036  0.00  0.00    -0.204 F 
ATOM     22  C   UNL     1      37.273 -23.682 -14.386  0.00  0.00    +0.021 C 
ATOM     23  C   UNL     1      36.694 -22.925 -13.367  0.00  0.00    +0.001 C 
ATOM     24  C   UNL     1      37.338 -25.070 -14.272  0.00  0.00    +0.001 C 
ATOM     25  C   UNL     1      36.178 -23.558 -12.235  0.00  0.00    +0.029 C 
ATOM     26  C   UNL     1      36.823 -25.703 -13.140  0.00  0.00    +0.029 C 
ATOM     27  C   UNL     1      36.243 -24.946 -12.122  0.00  0.00    +0.140 C 
ENDBRANCH  20  22
BRANCH  20  28
ATOM     28  O   UNL     1      38.912 -23.781 -16.159  0.00  0.00    -0.366 OA
ATOM     29  H   UNL     1      38.760 -24.717 -15.955  0.00  0.00    +0.212 HD
ENDBRANCH  20  28
ENDBRANCH   7  20
TORSDOF 3
ENDMDL
MODEL 6
REMARK VINA RESULT:     -11.4      2.683      5.502
REMARK  Name = 46892373
REMARK  3 active torsions:
REMARK  status: ('A' for Active; 'I' for Inactive)
REMARK    1  A    between atoms: C_7  and  C_20
REMARK    2  A    between atoms: C_20  and  C_22
REMARK    3  A    between atoms: C_20  and  O_28
REMARK                            x       y       z     vdW  Elec       q    Type
REMARK                         _______ _______ _______ _____ _____    ______ ____
ROOT
ATOM      1  N   UNL     1      33.421 -23.550 -15.269  0.00  0.00    -0.326 NA
ATOM      2  N   UNL     1      32.456 -22.667 -17.225  0.00  0.00    -0.271 N 
ATOM      3  N   UNL     1      32.133 -24.945 -13.784  0.00  0.00    -0.345 NA
ATOM      4  N   UNL     1      35.445 -22.309 -18.954  0.00  0.00    -0.239 N 
ATOM      5  N   UNL     1      34.792 -22.849 -17.912  0.00  0.00    -0.166 NA
ATOM      6  C   UNL     1      31.112 -24.063 -15.768  0.00  0.00    +0.072 C 
ATOM      7  C   UNL     1      33.254 -24.302 -14.169  0.00  0.00    +0.146 C 
ATOM      8  C   UNL     1      32.330 -23.451 -16.050  0.00  0.00    +0.199 C 
ATOM      9  C   UNL     1      31.061 -24.823 -14.587  0.00  0.00    +0.129 C 
ATOM     10  C   UNL     1      29.986 -23.944 -16.599  0.00  0.00    +0.006 C 
ATOM     11  C   UNL     1      29.859 -25.453 -14.270  0.00  0.00    +0.086 C 
ATOM     12  C   UNL     1      33.547 -22.389 -18.065  0.00  0.00    +0.152 C 
ATOM     13  C   UNL     1      28.798 -24.582 -16.259  0.00  0.00    -0.004 C 
ATOM     14  C   UNL     1      28.735 -25.338 -15.093  0.00  0.00    -0.019 C 
ATOM     15  C   UNL     1      33.407 -21.562 -19.195  0.00  0.00    +0.048 C 
ATOM     16  C   UNL     1      34.662 -21.530 -19.753  0.00  0.00    +0.046 C 
ATOM     17  C   UNL     1      35.190 -20.847 -20.945  0.00  0.00    +0.049 C 
ATOM     18  H   UNL     1      31.619 -22.233 -17.505  0.00  0.00    +0.156 HD
ATOM     19  H   UNL     1      36.403 -22.462 -19.125  0.00  0.00    +0.174 HD
ENDROOT
BRANCH   7  20
ATOM     20  C   UNL     1      34.438 -24.441 -13.272  0.00  0.00    +0.243 C 
BRANCH  20  22
ATOM     21  F   UNL     1      39.395 -24.029 -15.959  0.00  0.00    -0.204 F 
ATOM     22  C   UNL     1      35.775 -24.331 -13.997  0.00  0.00    +0.021 C 
ATOM     23  C   UNL     1      36.461 -25.484 -14.375  0.00  0.00    +0.001 C 
ATOM     24  C   UNL     1      36.312 -23.075 -14.281  0.00  0.00    +0.001 C 
ATOM     25  C   UNL     1      37.684 -25.383 -15.038  0.00  0.00    +0.029 C 
ATOM     26  C   UNL     1      37.536 -22.973 -14.943  0.00  0.00    +0.029 C 
ATOM     27  C   UNL     1      38.221 -24.128 -15.322  0.00  0.00    +0.140 C 
ENDBRANCH  20  22
BRANCH  20  28
ATOM     28  O   UNL     1      34.410 -23.502 -12.182  0.00  0.00    -0.366 OA
ATOM     29  H   UNL     1      35.016 -23.796 -11.485  0.00  0.00    +0.212 HD
ENDBRANCH  20  28
ENDBRANCH   7  20
TORSDOF 3
ENDMDL
MODEL 7
REMARK VINA RESULT:     -11.4      2.003      5.340
REMARK  Name = 46892373
REMARK  3 active torsions:
REMARK  status: ('A' for Active; 'I' for Inactive)
REMARK    1  A    between atoms: C_7  and  C_20
REMARK    2  A    between atoms: C_20  and  C_22
REMARK    3  A    between atoms: C_20  and  O_28
REMARK                            x       y       z     vdW  Elec       q    Type
REMARK                         _______ _______ _______ _____ _____    ______ ____
ROOT
ATOM      1  N   UNL     1      35.653 -22.695 -15.883  0.00  0.00    -0.326 NA
ATOM      2  N   UNL     1      34.026 -23.476 -14.374  0.00  0.00    -0.271 N 
ATOM      3  N   UNL     1      37.953 -23.384 -15.677  0.00  0.00    -0.345 NA
ATOM      4  N   UNL     1      31.333 -23.072 -16.528  0.00  0.00    -0.239 N 
ATOM      5  N   UNL     1      32.665 -23.136 -16.372  0.00  0.00    -0.166 NA
ATOM      6  C   UNL     1      36.324 -24.203 -14.117  0.00  0.00    +0.072 C 
ATOM      7  C   UNL     1      36.942 -22.707 -16.257  0.00  0.00    +0.146 C 
ATOM      8  C   UNL     1      35.375 -23.455 -14.808  0.00  0.00    +0.199 C 
ATOM      9  C   UNL     1      37.640 -24.133 -14.604  0.00  0.00    +0.129 C 
ATOM     10  C   UNL     1      36.010 -24.988 -12.996  0.00  0.00    +0.006 C 
ATOM     11  C   UNL     1      38.620 -24.868 -13.940  0.00  0.00    +0.086 C 
ATOM     12  C   UNL     1      32.808 -23.335 -15.059  0.00  0.00    +0.152 C 
ATOM     13  C   UNL     1      37.007 -25.712 -12.350  0.00  0.00    -0.004 C 
ATOM     14  C   UNL     1      38.313 -25.652 -12.824  0.00  0.00    -0.019 C 
ATOM     15  C   UNL     1      31.576 -23.396 -14.381  0.00  0.00    +0.048 C 
ATOM     16  C   UNL     1      30.634 -23.221 -15.366  0.00  0.00    +0.046 C 
ATOM     17  C   UNL     1      29.164 -23.180 -15.324  0.00  0.00    +0.049 C 
ATOM     18  H   UNL     1      33.922 -23.616 -13.405  0.00  0.00    +0.156 HD
ATOM     19  H   UNL     1      30.900 -22.929 -17.401  0.00  0.00    +0.174 HD
ENDROOT
BRANCH   7  20
ATOM     20  C   UNL     1      37.297 -21.878 -17.446  0.00  0.00    +0.243 C 
BRANCH  20  22
ATOM     21  F   UNL     1      33.013 -21.116 -21.055  0.00  0.00    -0.204 F 
ATOM     22  C   UNL     1      36.143 -21.672 -18.420  0.00  0.00    +0.021 C 
ATOM     23  C   UNL     1      36.299 -20.829 -19.519  0.00  0.00    +0.001 C 
ATOM     24  C   UNL     1      34.929 -22.327 -18.210  0.00  0.00    +0.001 C 
ATOM     25  C   UNL     1      35.242 -20.641 -20.410  0.00  0.00    +0.029 C 
ATOM     26  C   UNL     1      33.871 -22.139 -19.100  0.00  0.00    +0.029 C 
ATOM     27  C   UNL     1      34.028 -21.296 -20.200  0.00  0.00    +0.140 C 
ENDBRANCH  20  22
BRANCH  20  28
ATOM     28  O   UNL     1      37.839 -20.597 -17.075  0.00  0.00    -0.366 OA
ATOM     29  H   UNL     1      38.461 -20.709 -16.340  0.00  0.00    +0.212 HD
ENDBRANCH  20  28
ENDBRANCH   7  20
TORSDOF 3
ENDMDL
MODEL 8
REMARK VINA RESULT:     -11.3      3.083      7.265
REMARK  Name = 46892373
REMARK  3 active torsions:
REMARK  status: ('A' for Active; 'I' for Inactive)
REMARK    1  A    between atoms: C_7  and  C_20
REMARK    2  A    between atoms: C_20  and  C_22
REMARK    3  A    between atoms: C_20  and  O_28
REMARK                            x       y       z     vdW  Elec       q    Type
REMARK                         _______ _______ _______ _____ _____    ______ ____
ROOT
ATOM      1  N   UNL     1      33.131 -23.875 -15.755  0.00  0.00    -0.326 NA
ATOM      2  N   UNL     1      31.584 -22.965 -17.276  0.00  0.00    -0.271 N 
ATOM      3  N   UNL     1      35.501 -23.605 -16.100  0.00  0.00    -0.345 NA
ATOM      4  N   UNL     1      28.968 -22.721 -15.007  0.00  0.00    -0.239 N 
ATOM      5  N   UNL     1      30.284 -22.896 -15.211  0.00  0.00    -0.166 NA
ATOM      6  C   UNL     1      33.956 -22.662 -17.676  0.00  0.00    +0.072 C 
ATOM      7  C   UNL     1      34.421 -24.049 -15.426  0.00  0.00    +0.146 C 
ATOM      8  C   UNL     1      32.931 -23.176 -16.887  0.00  0.00    +0.199 C 
ATOM      9  C   UNL     1      35.264 -22.910 -17.228  0.00  0.00    +0.129 C 
ATOM     10  C   UNL     1      33.722 -21.935 -18.855  0.00  0.00    +0.006 C 
ATOM     11  C   UNL     1      36.318 -22.411 -17.990  0.00  0.00    +0.086 C 
ATOM     12  C   UNL     1      30.394 -22.839 -16.541  0.00  0.00    +0.152 C 
ATOM     13  C   UNL     1      34.793 -21.448 -19.597  0.00  0.00    -0.004 C 
ATOM     14  C   UNL     1      36.092 -21.686 -19.164  0.00  0.00    -0.019 C 
ATOM     15  C   UNL     1      29.158 -22.630 -17.181  0.00  0.00    +0.048 C 
ATOM     16  C   UNL     1      28.249 -22.557 -16.154  0.00  0.00    +0.046 C 
ATOM     17  C   UNL     1      26.791 -22.353 -16.143  0.00  0.00    +0.049 C 
ATOM     18  H   UNL     1      31.458 -22.894 -18.250  0.00  0.00    +0.156 HD
ATOM     19  H   UNL     1      28.560 -22.712 -14.110  0.00  0.00    +0.174 HD
ENDROOT
BRANCH   7  20
ATOM     20  C   UNL     1      34.691 -24.819 -14.177  0.00  0.00    +0.243 C 
BRANCH  20  22
ATOM     21  F   UNL     1      39.603 -23.506 -11.706  0.00  0.00    -0.204 F 
ATOM     22  C   UNL     1      36.016 -24.465 -13.511  0.00  0.00    +0.021 C 
ATOM     23  C   UNL     1      37.156 -25.223 -13.779  0.00  0.00    +0.001 C 
ATOM     24  C   UNL     1      36.088 -23.384 -12.633  0.00  0.00    +0.001 C 
ATOM     25  C   UNL     1      38.368 -24.898 -13.170  0.00  0.00    +0.029 C 
ATOM     26  C   UNL     1      37.300 -23.060 -12.022  0.00  0.00    +0.029 C 
ATOM     27  C   UNL     1      38.440 -23.817 -12.291  0.00  0.00    +0.140 C 
ENDBRANCH  20  22
BRANCH  20  28
ATOM     28  O   UNL     1      33.628 -24.690 -13.216  0.00  0.00    -0.366 OA
ATOM     29  H   UNL     1      33.635 -25.455 -12.620  0.00  0.00    +0.212 HD
ENDBRANCH  20  28
ENDBRANCH   7  20
TORSDOF 3
ENDMDL
MODEL 9
REMARK VINA RESULT:     -11.3      2.921      5.834
REMARK  Name = 46892373
REMARK  3 active torsions:
REMARK  status: ('A' for Active; 'I' for Inactive)
REMARK    1  A    between atoms: C_7  and  C_20
REMARK    2  A    between atoms: C_20  and  C_22
REMARK    3  A    between atoms: C_20  and  O_28
REMARK                            x       y       z     vdW  Elec       q    Type
REMARK                         _______ _______ _______ _____ _____    ______ ____
ROOT
ATOM      1  N   UNL     1      33.620 -23.141 -16.791  0.00  0.00    -0.326 NA
ATOM      2  N   UNL     1      35.912 -23.110 -16.256  0.00  0.00    -0.271 N 
ATOM      3  N   UNL     1      32.816 -22.103 -18.812  0.00  0.00    -0.345 NA
ATOM      4  N   UNL     1      35.840 -25.953 -14.264  0.00  0.00    -0.239 N 
ATOM      5  N   UNL     1      35.222 -25.191 -15.181  0.00  0.00    -0.166 NA
ATOM      6  C   UNL     1      35.160 -22.050 -18.302  0.00  0.00    +0.072 C 
ATOM      7  C   UNL     1      32.661 -22.786 -17.660  0.00  0.00    +0.146 C 
ATOM      8  C   UNL     1      34.862 -22.758 -17.141  0.00  0.00    +0.199 C 
ATOM      9  C   UNL     1      34.070 -21.735 -19.131  0.00  0.00    +0.129 C 
ATOM     10  C   UNL     1      36.465 -21.661 -18.646  0.00  0.00    +0.006 C 
ATOM     11  C   UNL     1      34.327 -21.027 -20.303  0.00  0.00    +0.086 C 
ATOM     12  C   UNL     1      36.085 -24.191 -15.375  0.00  0.00    +0.152 C 
ATOM     13  C   UNL     1      36.694 -20.954 -19.822  0.00  0.00    -0.004 C 
ATOM     14  C   UNL     1      35.624 -20.637 -20.651  0.00  0.00    -0.019 C 
ATOM     15  C   UNL     1      37.245 -24.313 -14.588  0.00  0.00    +0.048 C 
ATOM     16  C   UNL     1      37.055 -25.472 -13.875  0.00  0.00    +0.046 C 
ATOM     17  C   UNL     1      37.889 -26.160 -12.877  0.00  0.00    +0.049 C 
ATOM     18  H   UNL     1      36.663 -22.475 -16.257  0.00  0.00    +0.156 HD
ATOM     19  H   UNL     1      35.450 -26.784 -13.905  0.00  0.00    +0.174 HD
ENDROOT
BRANCH   7  20
ATOM     20  C   UNL     1      31.266 -23.189 -17.312  0.00  0.00    +0.243 C 
BRANCH  20  22
ATOM     21  F   UNL     1      30.682 -25.030 -11.999  0.00  0.00    -0.204 F 
ATOM     22  C   UNL     1      31.109 -23.686 -15.880  0.00  0.00    +0.021 C 
ATOM     23  C   UNL     1      30.587 -24.956 -15.635  0.00  0.00    +0.001 C 
ATOM     24  C   UNL     1      31.486 -22.870 -14.813  0.00  0.00    +0.001 C 
ATOM     25  C   UNL     1      30.443 -25.410 -14.324  0.00  0.00    +0.029 C 
ATOM     26  C   UNL     1      31.342 -23.323 -13.502  0.00  0.00    +0.029 C 
ATOM     27  C   UNL     1      30.820 -24.594 -13.258  0.00  0.00    +0.140 C 
ENDBRANCH  20  22
BRANCH  20  28
ATOM     28  O   UNL     1      30.318 -22.135 -17.556  0.00  0.00    -0.366 OA
ATOM     29  H   UNL     1      29.990 -21.792 -16.710  0.00  0.00    +0.212 HD
ENDBRANCH  20  28
ENDBRANCH   7  20
TORSDOF 3
ENDMDL
