MODEL 1
REMARK VINA RESULT:     -13.8      0.000      0.000
REMARK  Name = 25025505
REMARK  6 active torsions:
REMARK  status: ('A' for Active; 'I' for Inactive)
REMARK    1  A    between atoms: C_3  and  C_9
REMARK    2  A    between atoms: C_4  and  C_20
REMARK    3  A    between atoms: C_17  and  C_18
REMARK    4  A    between atoms: C_20  and  O_21
REMARK    5  A    between atoms: O_21  and  C_22
REMARK    6  A    between atoms: C_25  and  N_28
REMARK                            x       y       z     vdW  Elec       q    Type
REMARK                         _______ _______ _______ _____ _____    ______ ____
ROOT
ATOM      1  S   UNL     1      36.530 -23.753 -15.374  0.00  0.00    -0.079 S 
ATOM      2  N   UNL     1      33.985 -23.478 -15.734  0.00  0.00    -0.404 NA
ATOM      3  C   UNL     1      35.155 -23.345 -16.317  0.00  0.00    +0.134 C 
ATOM      4  C   UNL     1      34.178 -23.935 -14.445  0.00  0.00    +0.142 C 
ATOM      5  C   UNL     1      35.488 -24.142 -14.068  0.00  0.00    +0.122 C 
ENDROOT
BRANCH   3   9
ATOM      6  N   UNL     1      35.331 -20.925 -19.890  0.00  0.00    -0.253 N 
ATOM      7  N   UNL     1      36.378 -19.137 -20.969  0.00  0.00    -0.203 NA
ATOM      8  N   UNL     1      34.390 -20.146 -21.882  0.00  0.00    -0.181 NA
ATOM      9  C   UNL     1      35.354 -22.865 -17.743  0.00  0.00    +0.062 C 
ATOM     10  C   UNL     1      34.042 -22.382 -18.378  0.00  0.00    +0.030 C 
ATOM     11  C   UNL     1      36.410 -21.754 -17.836  0.00  0.00    +0.030 C 
ATOM     12  C   UNL     1      34.257 -21.922 -19.821  0.00  0.00    +0.102 C 
ATOM     13  C   UNL     1      36.615 -21.304 -19.282  0.00  0.00    +0.102 C 
ATOM     14  C   UNL     1      35.369 -20.028 -20.964  0.00  0.00    +0.090 C 
ATOM     15  C   UNL     1      36.383 -18.286 -22.016  0.00  0.00    +0.161 C 
ATOM     16  C   UNL     1      34.456 -19.265 -22.901  0.00  0.00    +0.104 C 
ATOM     17  C   UNL     1      35.438 -18.303 -23.022  0.00  0.00    +0.001 C 
BRANCH  17  18
ATOM     18  C   UNL     1      35.478 -17.352 -24.158  0.00  0.00    +0.026 C 
ATOM     19  C   UNL     1      34.356 -17.593 -25.169  0.00  0.00    +0.005 C 
ENDBRANCH  17  18
ENDBRANCH   3   9
BRANCH   4  20
ATOM     20  C   UNL     1      32.991 -24.158 -13.595  0.00  0.00    +0.260 C 
BRANCH  20  21
ATOM     21  O   UNL     1      32.073 -25.026 -14.257  0.00  0.00    -0.468 OA
BRANCH  21  22
ATOM     22  C   UNL     1      30.947 -24.447 -14.774  0.00  0.00    +0.139 C 
ATOM     23  C   UNL     1      30.742 -23.074 -14.637  0.00  0.00    +0.038 C 
ATOM     24  C   UNL     1      30.003 -25.229 -15.439  0.00  0.00    +0.038 C 
ATOM     25  C   UNL     1      28.650 -23.267 -15.828  0.00  0.00    +0.078 C 
ATOM     26  C   UNL     1      29.593 -22.484 -15.164  0.00  0.00    +0.020 C 
ATOM     27  C   UNL     1      28.854 -24.640 -15.966  0.00  0.00    +0.020 C 
BRANCH  25  28
ATOM     28  N   UNL     1      27.511 -22.681 -16.351  0.00  0.00    -0.149 N 
ATOM     29  N   UNL     1      26.447 -22.380 -15.594  0.00  0.00    -0.048 NA
ATOM     30  N   UNL     1      26.071 -21.804 -17.714  0.00  0.00    -0.107 NA
ATOM     31  N   UNL     1      25.569 -21.844 -16.432  0.00  0.00    -0.024 NA
ATOM     32  C   UNL     1      27.273 -22.326 -17.641  0.00  0.00    +0.215 C 
ENDBRANCH  25  28
ENDBRANCH  21  22
ENDBRANCH  20  21
ENDBRANCH   4  20
TORSDOF 6
ENDMDL
MODEL 2
REMARK VINA RESULT:     -13.3      6.702      9.865
REMARK  Name = 25025505
REMARK  6 active torsions:
REMARK  status: ('A' for Active; 'I' for Inactive)
REMARK    1  A    between atoms: C_3  and  C_9
REMARK    2  A    between atoms: C_4  and  C_20
REMARK    3  A    between atoms: C_17  and  C_18
REMARK    4  A    between atoms: C_20  and  O_21
REMARK    5  A    between atoms: O_21  and  C_22
REMARK    6  A    between atoms: C_25  and  N_28
REMARK                            x       y       z     vdW  Elec       q    Type
REMARK                         _______ _______ _______ _____ _____    ______ ____
ROOT
ATOM      1  S   UNL     1      34.152 -16.392 -25.092  0.00  0.00    -0.079 S 
ATOM      2  N   UNL     1      34.636 -16.037 -22.578  0.00  0.00    -0.404 NA
ATOM      3  C   UNL     1      34.074 -15.491 -23.633  0.00  0.00    +0.134 C 
ATOM      4  C   UNL     1      35.170 -17.259 -22.938  0.00  0.00    +0.142 C 
ATOM      5  C   UNL     1      35.007 -17.622 -24.258  0.00  0.00    +0.122 C 
ENDROOT
BRANCH   3   9
ATOM      6  N   UNL     1      33.072 -11.342 -22.971  0.00  0.00    -0.253 N 
ATOM      7  N   UNL     1      33.638  -9.119 -23.409  0.00  0.00    -0.203 NA
ATOM      8  N   UNL     1      31.956  -9.673 -21.776  0.00  0.00    -0.181 NA
ATOM      9  C   UNL     1      33.379 -14.143 -23.634  0.00  0.00    +0.062 C 
ATOM     10  C   UNL     1      32.998 -13.687 -22.218  0.00  0.00    +0.030 C 
ATOM     11  C   UNL     1      34.226 -13.056 -24.313  0.00  0.00    +0.030 C 
ATOM     12  C   UNL     1      32.279 -12.338 -22.239  0.00  0.00    +0.102 C 
ATOM     13  C   UNL     1      33.495 -11.713 -24.328  0.00  0.00    +0.102 C 
ATOM     14  C   UNL     1      32.879  -9.981 -22.707  0.00  0.00    +0.090 C 
ATOM     15  C   UNL     1      33.428  -7.816 -23.128  0.00  0.00    +0.161 C 
ATOM     16  C   UNL     1      31.797  -8.353 -21.546  0.00  0.00    +0.104 C 
ATOM     17  C   UNL     1      32.513  -7.370 -22.197  0.00  0.00    +0.001 C 
BRANCH  17  18
ATOM     18  C   UNL     1      32.311  -5.928 -21.918  0.00  0.00    +0.026 C 
ATOM     19  C   UNL     1      30.832  -5.547 -21.826  0.00  0.00    +0.005 C 
ENDBRANCH  17  18
ENDBRANCH   3   9
BRANCH   4  20
ATOM     20  C   UNL     1      35.857 -18.057 -21.902  0.00  0.00    +0.260 C 
BRANCH  20  21
ATOM     21  O   UNL     1      35.681 -19.448 -22.163  0.00  0.00    -0.468 OA
BRANCH  21  22
ATOM     22  C   UNL     1      35.093 -20.187 -21.174  0.00  0.00    +0.139 C 
ATOM     23  C   UNL     1      35.879 -20.968 -20.325  0.00  0.00    +0.038 C 
ATOM     24  C   UNL     1      33.708 -20.161 -21.012  0.00  0.00    +0.038 C 
ATOM     25  C   UNL     1      33.895 -21.695 -19.156  0.00  0.00    +0.078 C 
ATOM     26  C   UNL     1      35.279 -21.722 -19.317  0.00  0.00    +0.020 C 
ATOM     27  C   UNL     1      33.108 -20.914 -20.003  0.00  0.00    +0.020 C 
BRANCH  25  28
ATOM     28  N   UNL     1      33.300 -22.443 -18.155  0.00  0.00    -0.149 N 
ATOM     29  N   UNL     1      31.971 -22.489 -17.987  0.00  0.00    -0.048 NA
ATOM     30  N   UNL     1      32.985 -23.755 -16.458  0.00  0.00    -0.107 NA
ATOM     31  N   UNL     1      31.784 -23.293 -16.948  0.00  0.00    -0.024 NA
ATOM     32  C   UNL     1      33.909 -23.217 -17.219  0.00  0.00    +0.215 C 
ENDBRANCH  25  28
ENDBRANCH  21  22
ENDBRANCH  20  21
ENDBRANCH   4  20
TORSDOF 6
ENDMDL
MODEL 3
REMARK VINA RESULT:     -12.9      6.577     10.214
REMARK  Name = 25025505
REMARK  6 active torsions:
REMARK  status: ('A' for Active; 'I' for Inactive)
REMARK    1  A    between atoms: C_3  and  C_9
REMARK    2  A    between atoms: C_4  and  C_20
REMARK    3  A    between atoms: C_17  and  C_18
REMARK    4  A    between atoms: C_20  and  O_21
REMARK    5  A    between atoms: O_21  and  C_22
REMARK    6  A    between atoms: C_25  and  N_28
REMARK                            x       y       z     vdW  Elec       q    Type
REMARK                         _______ _______ _______ _____ _____    ______ ____
ROOT
ATOM      1  S   UNL     1      33.778 -16.020 -25.671  0.00  0.00    -0.079 S 
ATOM      2  N   UNL     1      34.670 -16.735 -23.353  0.00  0.00    -0.404 NA
ATOM      3  C   UNL     1      34.273 -15.700 -24.059  0.00  0.00    +0.134 C 
ATOM      4  C   UNL     1      34.581 -17.870 -24.135  0.00  0.00    +0.142 C 
ATOM      5  C   UNL     1      34.119 -17.682 -25.420  0.00  0.00    +0.122 C 
ENDROOT
BRANCH   3   9
ATOM      6  N   UNL     1      33.106 -11.624 -23.236  0.00  0.00    -0.253 N 
ATOM      7  N   UNL     1      31.556 -10.227 -22.186  0.00  0.00    -0.203 NA
ATOM      8  N   UNL     1      33.213  -9.334 -23.690  0.00  0.00    -0.181 NA
ATOM      9  C   UNL     1      34.227 -14.274 -23.543  0.00  0.00    +0.062 C 
ATOM     10  C   UNL     1      34.269 -13.245 -24.682  0.00  0.00    +0.030 C 
ATOM     11  C   UNL     1      32.995 -14.017 -22.663  0.00  0.00    +0.030 C 
ATOM     12  C   UNL     1      34.244 -11.814 -24.143  0.00  0.00    +0.102 C 
ATOM     13  C   UNL     1      32.983 -12.584 -22.131  0.00  0.00    +0.102 C 
ATOM     14  C   UNL     1      32.602 -10.334 -23.027  0.00  0.00    +0.090 C 
ATOM     15  C   UNL     1      31.095  -8.972 -22.008  0.00  0.00    +0.161 C 
ATOM     16  C   UNL     1      32.701  -8.106 -23.466  0.00  0.00    +0.104 C 
ATOM     17  C   UNL     1      31.632  -7.862 -22.628  0.00  0.00    +0.001 C 
BRANCH  17  18
ATOM     18  C   UNL     1      31.096  -6.498 -22.407  0.00  0.00    +0.026 C 
ATOM     19  C   UNL     1      32.194  -5.474 -22.113  0.00  0.00    +0.005 C 
ENDBRANCH  17  18
ENDBRANCH   3   9
BRANCH   4  20
ATOM     20  C   UNL     1      34.980 -19.162 -23.543  0.00  0.00    +0.260 C 
BRANCH  20  21
ATOM     21  O   UNL     1      35.692 -18.942 -22.325  0.00  0.00    -0.468 OA
BRANCH  21  22
ATOM     22  C   UNL     1      35.452 -19.825 -21.308  0.00  0.00    +0.139 C 
ATOM     23  C   UNL     1      36.518 -20.374 -20.595  0.00  0.00    +0.038 C 
ATOM     24  C   UNL     1      34.142 -20.176 -20.984  0.00  0.00    +0.038 C 
ATOM     25  C   UNL     1      34.963 -21.625 -19.235  0.00  0.00    +0.078 C 
ATOM     26  C   UNL     1      36.273 -21.274 -19.558  0.00  0.00    +0.020 C 
ATOM     27  C   UNL     1      33.897 -21.076 -19.947  0.00  0.00    +0.020 C 
BRANCH  25  28
ATOM     28  N   UNL     1      34.721 -22.518 -18.206  0.00  0.00    -0.149 N 
ATOM     29  N   UNL     1      35.632 -22.790 -17.262  0.00  0.00    -0.048 NA
ATOM     30  N   UNL     1      33.772 -23.963 -16.897  0.00  0.00    -0.107 NA
ATOM     31  N   UNL     1      35.047 -23.675 -16.464  0.00  0.00    -0.024 NA
ATOM     32  C   UNL     1      33.591 -23.237 -17.975  0.00  0.00    +0.215 C 
ENDBRANCH  25  28
ENDBRANCH  21  22
ENDBRANCH  20  21
ENDBRANCH   4  20
TORSDOF 6
ENDMDL
MODEL 4
REMARK VINA RESULT:     -12.7      6.969     10.459
REMARK  Name = 25025505
REMARK  6 active torsions:
REMARK  status: ('A' for Active; 'I' for Inactive)
REMARK    1  A    between atoms: C_3  and  C_9
REMARK    2  A    between atoms: C_4  and  C_20
REMARK    3  A    between atoms: C_17  and  C_18
REMARK    4  A    between atoms: C_20  and  O_21
REMARK    5  A    between atoms: O_21  and  C_22
REMARK    6  A    between atoms: C_25  and  N_28
REMARK                            x       y       z     vdW  Elec       q    Type
REMARK                         _______ _______ _______ _____ _____    ______ ____
ROOT
ATOM      1  S   UNL     1      34.177 -15.095 -20.721  0.00  0.00    -0.079 S 
ATOM      2  N   UNL     1      34.361 -15.837 -23.190  0.00  0.00    -0.404 NA
ATOM      3  C   UNL     1      33.945 -14.868 -22.406  0.00  0.00    +0.134 C 
ATOM      4  C   UNL     1      34.906 -16.839 -22.411  0.00  0.00    +0.142 C 
ATOM      5  C   UNL     1      34.895 -16.617 -21.050  0.00  0.00    +0.122 C 
ENDROOT
BRANCH   3   9
ATOM      6  N   UNL     1      32.820 -10.735 -22.966  0.00  0.00    -0.253 N 
ATOM      7  N   UNL     1      33.503  -8.624 -23.696  0.00  0.00    -0.203 NA
ATOM      8  N   UNL     1      31.419  -8.919 -22.524  0.00  0.00    -0.181 NA
ATOM      9  C   UNL     1      33.288 -13.590 -22.894  0.00  0.00    +0.062 C 
ATOM     10  C   UNL     1      32.519 -12.871 -21.776  0.00  0.00    +0.030 C 
ATOM     11  C   UNL     1      34.301 -12.624 -23.525  0.00  0.00    +0.030 C 
ATOM     12  C   UNL     1      31.845 -11.599 -22.290  0.00  0.00    +0.102 C 
ATOM     13  C   UNL     1      33.614 -11.357 -24.035  0.00  0.00    +0.102 C 
ATOM     14  C   UNL     1      32.569  -9.362 -23.067  0.00  0.00    +0.090 C 
ATOM     15  C   UNL     1      33.229  -7.305 -23.775  0.00  0.00    +0.161 C 
ATOM     16  C   UNL     1      31.209  -7.591 -22.638  0.00  0.00    +0.104 C 
ATOM     17  C   UNL     1      32.088  -6.726 -23.259  0.00  0.00    +0.001 C 
BRANCH  17  18
ATOM     18  C   UNL     1      31.823  -5.272 -23.365  0.00  0.00    +0.026 C 
ATOM     19  C   UNL     1      32.383  -4.664 -24.652  0.00  0.00    +0.005 C 
ENDBRANCH  17  18
ENDBRANCH   3   9
BRANCH   4  20
ATOM     20  C   UNL     1      35.441 -18.038 -23.085  0.00  0.00    +0.260 C 
BRANCH  20  21
ATOM     21  O   UNL     1      34.561 -19.144 -22.884  0.00  0.00    -0.468 OA
BRANCH  21  22
ATOM     22  C   UNL     1      34.760 -19.887 -21.754  0.00  0.00    +0.139 C 
ATOM     23  C   UNL     1      33.667 -20.396 -21.052  0.00  0.00    +0.038 C 
ATOM     24  C   UNL     1      36.055 -20.137 -21.301  0.00  0.00    +0.038 C 
ATOM     25  C   UNL     1      35.165 -21.403 -19.447  0.00  0.00    +0.078 C 
ATOM     26  C   UNL     1      33.869 -21.154 -19.898  0.00  0.00    +0.020 C 
ATOM     27  C   UNL     1      36.259 -20.895 -20.148  0.00  0.00    +0.020 C 
BRANCH  25  28
ATOM     28  N   UNL     1      35.366 -22.154 -18.303  0.00  0.00    -0.149 N 
ATOM     29  N   UNL     1      34.463 -23.039 -17.858  0.00  0.00    -0.048 NA
ATOM     30  N   UNL     1      36.235 -23.001 -16.506  0.00  0.00    -0.107 NA
ATOM     31  N   UNL     1      34.999 -23.554 -16.759  0.00  0.00    -0.024 NA
ATOM     32  C   UNL     1      36.442 -22.138 -17.473  0.00  0.00    +0.215 C 
ENDBRANCH  25  28
ENDBRANCH  21  22
ENDBRANCH  20  21
ENDBRANCH   4  20
TORSDOF 6
ENDMDL
MODEL 5
REMARK VINA RESULT:     -12.6      5.935     11.017
REMARK  Name = 25025505
REMARK  6 active torsions:
REMARK  status: ('A' for Active; 'I' for Inactive)
REMARK    1  A    between atoms: C_3  and  C_9
REMARK    2  A    between atoms: C_4  and  C_20
REMARK    3  A    between atoms: C_17  and  C_18
REMARK    4  A    between atoms: C_20  and  O_21
REMARK    5  A    between atoms: O_21  and  C_22
REMARK    6  A    between atoms: C_25  and  N_28
REMARK                            x       y       z     vdW  Elec       q    Type
REMARK                         _______ _______ _______ _____ _____    ______ ____
ROOT
ATOM      1  S   UNL     1      34.949 -19.404 -23.836  0.00  0.00    -0.079 S 
ATOM      2  N   UNL     1      35.109 -17.890 -21.747  0.00  0.00    -0.404 NA
ATOM      3  C   UNL     1      35.163 -19.138 -22.154  0.00  0.00    +0.134 C 
ATOM      4  C   UNL     1      34.882 -17.074 -22.838  0.00  0.00    +0.142 C 
ATOM      5  C   UNL     1      34.767 -17.713 -24.055  0.00  0.00    +0.122 C 
ENDROOT
BRANCH   3   9
ATOM      6  N   UNL     1      35.519 -21.712 -18.703  0.00  0.00    -0.253 N 
ATOM      7  N   UNL     1      34.387 -22.799 -16.972  0.00  0.00    -0.203 NA
ATOM      8  N   UNL     1      36.794 -22.716 -17.023  0.00  0.00    -0.181 NA
ATOM      9  C   UNL     1      35.397 -20.329 -21.243  0.00  0.00    +0.062 C 
ATOM     10  C   UNL     1      36.532 -20.074 -20.239  0.00  0.00    +0.030 C 
ATOM     11  C   UNL     1      34.125 -20.737 -20.486  0.00  0.00    +0.030 C 
ATOM     12  C   UNL     1      36.770 -21.291 -19.344  0.00  0.00    +0.102 C 
ATOM     13  C   UNL     1      34.376 -21.955 -19.596  0.00  0.00    +0.102 C 
ATOM     14  C   UNL     1      35.569 -22.444 -17.511  0.00  0.00    +0.090 C 
ATOM     15  C   UNL     1      34.472 -23.501 -15.823  0.00  0.00    +0.161 C 
ATOM     16  C   UNL     1      36.806 -23.421 -15.873  0.00  0.00    +0.104 C 
ATOM     17  C   UNL     1      35.666 -23.844 -15.221  0.00  0.00    +0.001 C 
BRANCH  17  18
ATOM     18  C   UNL     1      35.718 -24.617 -13.957  0.00  0.00    +0.026 C 
ATOM     19  C   UNL     1      36.697 -25.791 -14.025  0.00  0.00    +0.005 C 
ENDBRANCH  17  18
ENDBRANCH   3   9
BRANCH   4  20
ATOM     20  C   UNL     1      34.783 -15.618 -22.617  0.00  0.00    +0.260 C 
BRANCH  20  21
ATOM     21  O   UNL     1      33.447 -15.269 -22.258  0.00  0.00    -0.468 OA
BRANCH  21  22
ATOM     22  C   UNL     1      33.125 -13.941 -22.314  0.00  0.00    +0.139 C 
ATOM     23  C   UNL     1      33.619 -13.145 -23.349  0.00  0.00    +0.038 C 
ATOM     24  C   UNL     1      32.303 -13.380 -21.338  0.00  0.00    +0.038 C 
ATOM     25  C   UNL     1      32.469 -11.232 -22.429  0.00  0.00    +0.078 C 
ATOM     26  C   UNL     1      33.292 -11.791 -23.406  0.00  0.00    +0.020 C 
ATOM     27  C   UNL     1      31.974 -12.026 -21.394  0.00  0.00    +0.020 C 
BRANCH  25  28
ATOM     28  N   UNL     1      32.144  -9.888 -22.485  0.00  0.00    -0.149 N 
ATOM     29  N   UNL     1      32.026  -9.227 -23.644  0.00  0.00    -0.048 NA
ATOM     30  N   UNL     1      31.628  -7.856 -21.932  0.00  0.00    -0.107 NA
ATOM     31  N   UNL     1      31.710  -7.984 -23.301  0.00  0.00    -0.024 NA
ATOM     32  C   UNL     1      31.899  -9.046 -21.447  0.00  0.00    +0.215 C 
ENDBRANCH  25  28
ENDBRANCH  21  22
ENDBRANCH  20  21
ENDBRANCH   4  20
TORSDOF 6
ENDMDL
MODEL 6
REMARK VINA RESULT:     -12.2      4.858     10.455
REMARK  Name = 25025505
REMARK  6 active torsions:
REMARK  status: ('A' for Active; 'I' for Inactive)
REMARK    1  A    between atoms: C_3  and  C_9
REMARK    2  A    between atoms: C_4  and  C_20
REMARK    3  A    between atoms: C_17  and  C_18
REMARK    4  A    between atoms: C_20  and  O_21
REMARK    5  A    between atoms: O_21  and  C_22
REMARK    6  A    between atoms: C_25  and  N_28
REMARK                            x       y       z     vdW  Elec       q    Type
REMARK                         _______ _______ _______ _____ _____    ______ ____
ROOT
ATOM      1  S   UNL     1      36.836 -19.014 -21.302  0.00  0.00    -0.079 S 
ATOM      2  N   UNL     1      34.633 -19.408 -22.595  0.00  0.00    -0.404 NA
ATOM      3  C   UNL     1      35.366 -19.849 -21.598  0.00  0.00    +0.134 C 
ATOM      4  C   UNL     1      35.271 -18.329 -23.175  0.00  0.00    +0.142 C 
ATOM      5  C   UNL     1      36.477 -17.968 -22.612  0.00  0.00    +0.122 C 
ENDROOT
BRANCH   3   9
ATOM      6  N   UNL     1      34.141 -22.310 -18.266  0.00  0.00    -0.253 N 
ATOM      7  N   UNL     1      32.393 -22.896 -16.831  0.00  0.00    -0.203 NA
ATOM      8  N   UNL     1      34.643 -23.657 -16.425  0.00  0.00    -0.181 NA
ATOM      9  C   UNL     1      34.996 -21.027 -20.716  0.00  0.00    +0.062 C 
ATOM     10  C   UNL     1      35.933 -21.160 -19.506  0.00  0.00    +0.030 C 
ATOM     11  C   UNL     1      33.540 -20.951 -20.232  0.00  0.00    +0.030 C 
ATOM     12  C   UNL     1      35.559 -22.363 -18.640  0.00  0.00    +0.102 C 
ATOM     13  C   UNL     1      33.180 -22.159 -19.367  0.00  0.00    +0.102 C 
ATOM     14  C   UNL     1      33.705 -22.987 -17.121  0.00  0.00    +0.090 C 
ATOM     15  C   UNL     1      32.009 -23.559 -15.720  0.00  0.00    +0.161 C 
ATOM     16  C   UNL     1      34.189 -24.296 -15.327  0.00  0.00    +0.104 C 
ATOM     17  C   UNL     1      32.870 -24.282 -14.921  0.00  0.00    +0.001 C 
BRANCH  17  18
ATOM     18  C   UNL     1      32.408 -24.997 -13.708  0.00  0.00    +0.026 C 
ATOM     19  C   UNL     1      30.887 -24.968 -13.550  0.00  0.00    +0.005 C 
ENDBRANCH  17  18
ENDBRANCH   3   9
BRANCH   4  20
ATOM     20  C   UNL     1      34.625 -17.667 -24.326  0.00  0.00    +0.260 C 
BRANCH  20  21
ATOM     21  O   UNL     1      35.190 -16.372 -24.524  0.00  0.00    -0.468 OA
BRANCH  21  22
ATOM     22  C   UNL     1      34.503 -15.316 -23.991  0.00  0.00    +0.139 C 
ATOM     23  C   UNL     1      34.615 -15.025 -22.631  0.00  0.00    +0.038 C 
ATOM     24  C   UNL     1      33.690 -14.529 -24.806  0.00  0.00    +0.038 C 
ATOM     25  C   UNL     1      33.101 -13.163 -22.904  0.00  0.00    +0.078 C 
ATOM     26  C   UNL     1      33.913 -13.949 -22.088  0.00  0.00    +0.020 C 
ATOM     27  C   UNL     1      32.989 -13.453 -24.264  0.00  0.00    +0.020 C 
BRANCH  25  28
ATOM     28  N   UNL     1      32.406 -12.095 -22.365  0.00  0.00    -0.149 N 
ATOM     29  N   UNL     1      31.642 -12.215 -21.271  0.00  0.00    -0.048 NA
ATOM     30  N   UNL     1      31.591 -10.116 -22.019  0.00  0.00    -0.107 NA
ATOM     31  N   UNL     1      31.146 -11.002 -21.063  0.00  0.00    -0.024 NA
ATOM     32  C   UNL     1      32.369 -10.813 -22.814  0.00  0.00    +0.215 C 
ENDBRANCH  25  28
ENDBRANCH  21  22
ENDBRANCH  20  21
ENDBRANCH   4  20
TORSDOF 6
ENDMDL
MODEL 7
REMARK VINA RESULT:     -12.0      5.308      8.571
REMARK  Name = 25025505
REMARK  6 active torsions:
REMARK  status: ('A' for Active; 'I' for Inactive)
REMARK    1  A    between atoms: C_3  and  C_9
REMARK    2  A    between atoms: C_4  and  C_20
REMARK    3  A    between atoms: C_17  and  C_18
REMARK    4  A    between atoms: C_20  and  O_21
REMARK    5  A    between atoms: O_21  and  C_22
REMARK    6  A    between atoms: C_25  and  N_28
REMARK                            x       y       z     vdW  Elec       q    Type
REMARK                         _______ _______ _______ _____ _____    ______ ____
ROOT
ATOM      1  S   UNL     1      35.490 -18.239 -23.484  0.00  0.00    -0.079 S 
ATOM      2  N   UNL     1      34.611 -18.338 -21.055  0.00  0.00    -0.404 NA
ATOM      3  C   UNL     1      34.914 -17.519 -22.037  0.00  0.00    +0.134 C 
ATOM      4  C   UNL     1      34.849 -19.635 -21.467  0.00  0.00    +0.142 C 
ATOM      5  C   UNL     1      35.327 -19.781 -22.752  0.00  0.00    +0.122 C 
ENDROOT
BRANCH   3   9
ATOM      6  N   UNL     1      33.464 -13.461 -22.342  0.00  0.00    -0.253 N 
ATOM      7  N   UNL     1      31.889 -11.906 -21.594  0.00  0.00    -0.203 NA
ATOM      8  N   UNL     1      33.329 -11.416 -23.463  0.00  0.00    -0.181 NA
ATOM      9  C   UNL     1      34.786 -16.008 -21.965  0.00  0.00    +0.062 C 
ATOM     10  C   UNL     1      34.640 -15.374 -23.356  0.00  0.00    +0.030 C 
ATOM     11  C   UNL     1      33.613 -15.570 -21.076  0.00  0.00    +0.030 C 
ATOM     12  C   UNL     1      34.534 -13.851 -23.267  0.00  0.00    +0.102 C 
ATOM     13  C   UNL     1      33.519 -14.046 -20.995  0.00  0.00    +0.102 C 
ATOM     14  C   UNL     1      32.866 -12.202 -22.472  0.00  0.00    +0.090 C 
ATOM     15  C   UNL     1      31.335 -10.686 -21.750  0.00  0.00    +0.161 C 
ATOM     16  C   UNL     1      32.731 -10.211 -23.561  0.00  0.00    +0.104 C 
ATOM     17  C   UNL     1      31.718  -9.787 -22.725  0.00  0.00    +0.001 C 
BRANCH  17  18
ATOM     18  C   UNL     1      31.084  -8.454 -22.863  0.00  0.00    +0.026 C 
ATOM     19  C   UNL     1      31.753  -7.591 -23.934  0.00  0.00    +0.005 C 
ENDBRANCH  17  18
ENDBRANCH   3   9
BRANCH   4  20
ATOM     20  C   UNL     1      34.578 -20.733 -20.518  0.00  0.00    +0.260 C 
BRANCH  20  21
ATOM     21  O   UNL     1      35.806 -21.258 -20.016  0.00  0.00    -0.468 OA
BRANCH  21  22
ATOM     22  C   UNL     1      35.775 -21.788 -18.756  0.00  0.00    +0.139 C 
ATOM     23  C   UNL     1      36.891 -21.678 -17.924  0.00  0.00    +0.038 C 
ATOM     24  C   UNL     1      34.629 -22.438 -18.300  0.00  0.00    +0.038 C 
ATOM     25  C   UNL     1      35.713 -22.870 -16.185  0.00  0.00    +0.078 C 
ATOM     26  C   UNL     1      36.859 -22.219 -16.639  0.00  0.00    +0.020 C 
ATOM     27  C   UNL     1      34.597 -22.980 -17.015  0.00  0.00    +0.020 C 
BRANCH  25  28
ATOM     28  N   UNL     1      35.682 -23.406 -14.910  0.00  0.00    -0.149 N 
ATOM     29  N   UNL     1      34.627 -24.090 -14.445  0.00  0.00    -0.048 NA
ATOM     30  N   UNL     1      36.221 -23.981 -12.890  0.00  0.00    -0.107 NA
ATOM     31  N   UNL     1      34.962 -24.439 -13.210  0.00  0.00    -0.024 NA
ATOM     32  C   UNL     1      36.648 -23.346 -13.957  0.00  0.00    +0.215 C 
ENDBRANCH  25  28
ENDBRANCH  21  22
ENDBRANCH  20  21
ENDBRANCH   4  20
TORSDOF 6
ENDMDL
MODEL 8
REMARK VINA RESULT:     -11.9      4.711     10.671
REMARK  Name = 25025505
REMARK  6 active torsions:
REMARK  status: ('A' for Active; 'I' for Inactive)
REMARK    1  A    between atoms: C_3  and  C_9
REMARK    2  A    between atoms: C_4  and  C_20
REMARK    3  A    between atoms: C_17  and  C_18
REMARK    4  A    between atoms: C_20  and  O_21
REMARK    5  A    between atoms: O_21  and  C_22
REMARK    6  A    between atoms: C_25  and  N_28
REMARK                            x       y       z     vdW  Elec       q    Type
REMARK                         _______ _______ _______ _____ _____    ______ ____
ROOT
ATOM      1  S   UNL     1      37.223 -18.996 -21.317  0.00  0.00    -0.079 S 
ATOM      2  N   UNL     1      34.957 -19.838 -22.232  0.00  0.00    -0.404 NA
ATOM      3  C   UNL     1      35.874 -20.058 -21.318  0.00  0.00    +0.134 C 
ATOM      4  C   UNL     1      35.337 -18.751 -22.994  0.00  0.00    +0.142 C 
ATOM      5  C   UNL     1      36.536 -18.163 -22.649  0.00  0.00    +0.122 C 
ENDROOT
BRANCH   3   9
ATOM      6  N   UNL     1      35.380 -22.296 -17.657  0.00  0.00    -0.253 N 
ATOM      7  N   UNL     1      33.876 -23.052 -16.037  0.00  0.00    -0.203 NA
ATOM      8  N   UNL     1      36.255 -23.279 -15.726  0.00  0.00    -0.181 NA
ATOM      9  C   UNL     1      35.811 -21.171 -20.288  0.00  0.00    +0.062 C 
ATOM     10  C   UNL     1      36.817 -20.961 -19.148  0.00  0.00    +0.030 C 
ATOM     11  C   UNL     1      34.400 -21.338 -19.705  0.00  0.00    +0.030 C 
ATOM     12  C   UNL     1      36.755 -22.102 -18.131  0.00  0.00    +0.102 C 
ATOM     13  C   UNL     1      34.352 -22.481 -18.691  0.00  0.00    +0.102 C 
ATOM     14  C   UNL     1      35.160 -22.905 -16.415  0.00  0.00    +0.090 C 
ATOM     15  C   UNL     1      33.700 -23.640 -14.835  0.00  0.00    +0.161 C 
ATOM     16  C   UNL     1      36.006 -23.860 -14.534  0.00  0.00    +0.104 C 
ATOM     17  C   UNL     1      34.738 -24.068 -14.032  0.00  0.00    +0.001 C 
BRANCH  17  18
ATOM     18  C   UNL     1      34.504 -24.711 -12.717  0.00  0.00    +0.026 C 
ATOM     19  C   UNL     1      35.717 -24.616 -11.790  0.00  0.00    +0.005 C 
ENDBRANCH  17  18
ENDBRANCH   3   9
BRANCH   4  20
ATOM     20  C   UNL     1      34.450 -18.318 -24.092  0.00  0.00    +0.260 C 
BRANCH  20  21
ATOM     21  O   UNL     1      34.999 -17.171 -24.739  0.00  0.00    -0.468 OA
BRANCH  21  22
ATOM     22  C   UNL     1      34.502 -15.955 -24.355  0.00  0.00    +0.139 C 
ATOM     23  C   UNL     1      33.611 -15.272 -25.183  0.00  0.00    +0.038 C 
ATOM     24  C   UNL     1      34.886 -15.398 -23.136  0.00  0.00    +0.038 C 
ATOM     25  C   UNL     1      33.490 -13.476 -23.574  0.00  0.00    +0.078 C 
ATOM     26  C   UNL     1      33.105 -14.033 -24.793  0.00  0.00    +0.020 C 
ATOM     27  C   UNL     1      34.381 -14.159 -22.744  0.00  0.00    +0.020 C 
BRANCH  25  28
ATOM     28  N   UNL     1      32.989 -12.247 -23.185  0.00  0.00    -0.149 N 
ATOM     29  N   UNL     1      33.341 -11.105 -23.791  0.00  0.00    -0.048 NA
ATOM     30  N   UNL     1      31.892 -10.690 -22.148  0.00  0.00    -0.107 NA
ATOM     31  N   UNL     1      32.667 -10.156 -23.153  0.00  0.00    -0.024 NA
ATOM     32  C   UNL     1      32.105 -11.985 -22.186  0.00  0.00    +0.215 C 
ENDBRANCH  25  28
ENDBRANCH  21  22
ENDBRANCH  20  21
ENDBRANCH   4  20
TORSDOF 6
ENDMDL
MODEL 9
REMARK VINA RESULT:     -11.8      6.903     11.699
REMARK  Name = 25025505
REMARK  6 active torsions:
REMARK  status: ('A' for Active; 'I' for Inactive)
REMARK    1  A    between atoms: C_3  and  C_9
REMARK    2  A    between atoms: C_4  and  C_20
REMARK    3  A    between atoms: C_17  and  C_18
REMARK    4  A    between atoms: C_20  and  O_21
REMARK    5  A    between atoms: O_21  and  C_22
REMARK    6  A    between atoms: C_25  and  N_28
REMARK                            x       y       z     vdW  Elec       q    Type
REMARK                         _______ _______ _______ _____ _____    ______ ____
ROOT
ATOM      1  S   UNL     1      34.330 -17.233 -25.416  0.00  0.00    -0.079 S 
ATOM      2  N   UNL     1      34.808 -15.782 -23.332  0.00  0.00    -0.404 NA
ATOM      3  C   UNL     1      34.861 -17.009 -23.800  0.00  0.00    +0.134 C 
ATOM      4  C   UNL     1      34.311 -14.950 -24.316  0.00  0.00    +0.142 C 
ATOM      5  C   UNL     1      33.995 -15.554 -25.514  0.00  0.00    +0.122 C 
ENDROOT
BRANCH   3   9
ATOM      6  N   UNL     1      35.560 -19.923 -20.689  0.00  0.00    -0.253 N 
ATOM      7  N   UNL     1      34.627 -21.614 -19.374  0.00  0.00    -0.203 NA
ATOM      8  N   UNL     1      36.832 -20.757 -18.917  0.00  0.00    -0.181 NA
ATOM      9  C   UNL     1      35.354 -18.208 -23.011  0.00  0.00    +0.062 C 
ATOM     10  C   UNL     1      36.160 -17.793 -21.772  0.00  0.00    +0.030 C 
ATOM     11  C   UNL     1      34.204 -19.134 -22.589  0.00  0.00    +0.030 C 
ATOM     12  C   UNL     1      36.667 -19.013 -21.002  0.00  0.00    +0.102 C 
ATOM     13  C   UNL     1      34.724 -20.349 -21.821  0.00  0.00    +0.102 C 
ATOM     14  C   UNL     1      35.679 -20.807 -19.610  0.00  0.00    +0.090 C 
ATOM     15  C   UNL     1      34.775 -22.451 -18.327  0.00  0.00    +0.161 C 
ATOM     16  C   UNL     1      36.913 -21.621 -17.883  0.00  0.00    +0.104 C 
ATOM     17  C   UNL     1      35.906 -22.499 -17.537  0.00  0.00    +0.001 C 
BRANCH  17  18
ATOM     18  C   UNL     1      36.031 -23.434 -16.393  0.00  0.00    +0.026 C 
ATOM     19  C   UNL     1      34.886 -23.293 -15.389  0.00  0.00    +0.005 C 
ENDBRANCH  17  18
ENDBRANCH   3   9
BRANCH   4  20
ATOM     20  C   UNL     1      34.163 -13.513 -24.010  0.00  0.00    +0.260 C 
BRANCH  20  21
ATOM     21  O   UNL     1      32.839 -13.247 -23.546  0.00  0.00    -0.468 OA
BRANCH  21  22
ATOM     22  C   UNL     1      32.647 -12.063 -22.890  0.00  0.00    +0.139 C 
ATOM     23  C   UNL     1      32.077 -12.055 -21.616  0.00  0.00    +0.038 C 
ATOM     24  C   UNL     1      33.020 -10.862 -23.492  0.00  0.00    +0.038 C 
ATOM     25  C   UNL     1      32.253  -9.648 -21.551  0.00  0.00    +0.078 C 
ATOM     26  C   UNL     1      31.880 -10.848 -20.947  0.00  0.00    +0.020 C 
ATOM     27  C   UNL     1      32.824  -9.654 -22.824  0.00  0.00    +0.020 C 
BRANCH  25  28
ATOM     28  N   UNL     1      32.058  -8.450 -20.887  0.00  0.00    -0.149 N 
ATOM     29  N   UNL     1      32.045  -8.365 -19.550  0.00  0.00    -0.048 NA
ATOM     30  N   UNL     1      31.715  -6.353 -20.453  0.00  0.00    -0.107 NA
ATOM     31  N   UNL     1      31.835  -7.080 -19.289  0.00  0.00    -0.024 NA
ATOM     32  C   UNL     1      31.857  -7.220 -21.428  0.00  0.00    +0.215 C 
ENDBRANCH  25  28
ENDBRANCH  21  22
ENDBRANCH  20  21
ENDBRANCH   4  20
TORSDOF 6
ENDMDL
