MODEL 1
REMARK VINA RESULT:     -13.8      0.000      0.000
REMARK  Name = 23656870
REMARK  4 active torsions:
REMARK  status: ('A' for Active; 'I' for Inactive)
REMARK    1  A    between atoms: N_2  and  C_25
REMARK    2  A    between atoms: N_3  and  C_14
REMARK    3  A    between atoms: C_10  and  C_32
REMARK    4  A    between atoms: C_16  and  N_21
REMARK                            x       y       z     vdW  Elec       q    Type
REMARK                         _______ _______ _______ _____ _____    ______ ____
ROOT
ATOM      1  N   UNL     1      32.191 -23.490 -15.531  0.00  0.00    -0.123 N 
ATOM      2  N   UNL     1      34.483 -23.809 -15.069  0.00  0.00    -0.274 N 
ATOM      3  N   UNL     1      32.945 -22.228 -19.254  0.00  0.00    -0.238 N 
ATOM      4  N   UNL     1      33.719 -23.017 -17.168  0.00  0.00    -0.295 NA
ATOM      5  N   UNL     1      31.390 -22.707 -17.600  0.00  0.00    -0.314 NA
ATOM      6  N   UNL     1      31.821 -23.898 -14.303  0.00  0.00    -0.170 NA
ATOM      7  C   UNL     1      33.509 -23.431 -15.952  0.00  0.00    +0.279 C 
ATOM      8  C   UNL     1      31.150 -23.135 -16.340  0.00  0.00    +0.219 C 
ATOM      9  C   UNL     1      32.648 -22.657 -17.982  0.00  0.00    +0.207 C 
ATOM     10  C   UNL     1      30.015 -23.326 -15.585  0.00  0.00    +0.203 C 
ATOM     11  C   UNL     1      30.489 -23.794 -14.343  0.00  0.00    +0.116 C 
ATOM     12  H   UNL     1      34.171 -24.100 -14.182  0.00  0.00    +0.156 HD
ATOM     13  H   UNL     1      32.264 -22.409 -19.941  0.00  0.00    +0.166 HD
ENDROOT
BRANCH   3  14
ATOM     14  C   UNL     1      34.091 -21.567 -19.691  0.00  0.00    +0.060 C 
ATOM     15  C   UNL     1      33.985 -20.499 -20.581  0.00  0.00    +0.030 C 
ATOM     16  C   UNL     1      35.132 -19.837 -21.017  0.00  0.00    +0.052 C 
ATOM     17  C   UNL     1      35.346 -21.974 -19.237  0.00  0.00    +0.015 C 
ATOM     18  C   UNL     1      36.387 -20.244 -20.564  0.00  0.00    +0.015 C 
ATOM     19  C   UNL     1      36.494 -21.313 -19.673  0.00  0.00    +0.003 C 
BRANCH  16  21
ATOM     20  O   UNL     1      35.100 -19.801 -24.028  0.00  0.00    -0.275 OA
ATOM     21  N   UNL     1      35.026 -18.770 -21.909  0.00  0.00    -0.284 N 
ATOM     22  C   UNL     1      35.017 -18.810 -23.311  0.00  0.00    +0.227 C 
ATOM     23  C   UNL     1      34.885 -17.432 -23.909  0.00  0.00    +0.095 C 
ATOM     24  H   UNL     1      34.947 -17.875 -21.504  0.00  0.00    +0.155 HD
ENDBRANCH  16  21
ENDBRANCH   3  14
BRANCH   2  25
ATOM     25  C   UNL     1      35.867 -23.835 -15.266  0.00  0.00    +0.051 C 
ATOM     26  C   UNL     1      36.502 -22.768 -15.900  0.00  0.00    +0.015 C 
ATOM     27  C   UNL     1      36.614 -24.928 -14.827  0.00  0.00    +0.015 C 
ATOM     28  C   UNL     1      37.882 -22.793 -16.097  0.00  0.00    +0.001 C 
ATOM     29  C   UNL     1      37.995 -24.954 -15.023  0.00  0.00    +0.001 C 
ATOM     30  C   UNL     1      38.629 -23.886 -15.658  0.00  0.00    +0.000 C 
ENDBRANCH   2  25
BRANCH  10  32
ATOM     31  N   UNL     1      27.578 -22.903 -16.323  0.00  0.00    -0.195 NA
ATOM     32  C   UNL     1      28.675 -23.093 -15.991  0.00  0.00    +0.087 C 
ENDBRANCH  10  32
TORSDOF 4
ENDMDL
