MODEL 1
REMARK VINA RESULT:     -12.6      0.000      0.000
REMARK  Name = 11314340
REMARK  7 active torsions:
REMARK  status: ('A' for Active; 'I' for Inactive)
REMARK    1  A    between atoms: C_2  and  C_10
REMARK    2  A    between atoms: C_3  and  O_18
REMARK    3  A    between atoms: O_18  and  C_19
REMARK    4  A    between atoms: C_19  and  C_20
REMARK    5  A    between atoms: C_20  and  N_21
REMARK    6  A    between atoms: C_20  and  C_25
REMARK    7  A    between atoms: C_25  and  C_26
REMARK                            x       y       z     vdW  Elec       q    Type
REMARK                         _______ _______ _______ _____ _____    ______ ____
ROOT
ATOM      1  N   UNL     1      31.924 -12.277 -20.612  0.00  0.00    -0.239 NA
ATOM      2  C   UNL     1      32.831 -12.996 -22.727  0.00  0.00    +0.022 C 
ATOM      3  C   UNL     1      32.269 -10.687 -22.400  0.00  0.00    +0.158 C 
ATOM      4  C   UNL     1      32.760 -11.700 -23.216  0.00  0.00    +0.040 C 
ATOM      5  C   UNL     1      32.407 -13.235 -21.434  0.00  0.00    +0.099 C 
ATOM      6  C   UNL     1      31.867 -11.025 -21.118  0.00  0.00    +0.136 C 
ENDROOT
BRANCH   2  10
ATOM      7  N   UNL     1      35.341 -17.806 -24.776  0.00  0.00    -0.280 N 
ATOM      8  N   UNL     1      34.795 -17.150 -25.819  0.00  0.00    -0.173 NA
ATOM      9  C   UNL     1      34.461 -16.066 -23.849  0.00  0.00    +0.032 A 
ATOM     10  C   UNL     1      33.338 -14.075 -23.554  0.00  0.00    +0.002 C 
ATOM     11  C   UNL     1      34.235 -16.054 -25.275  0.00  0.00    +0.102 A 
ATOM     12  C   UNL     1      34.047 -15.117 -22.925  0.00  0.00    +0.003 C 
ATOM     13  C   UNL     1      35.170 -17.199 -23.566  0.00  0.00    +0.053 A 
ATOM     14  C   UNL     1      33.087 -14.017 -24.962  0.00  0.00    +0.002 C 
ATOM     15  C   UNL     1      33.523 -15.001 -25.878  0.00  0.00    +0.021 C 
ATOM     16  C   UNL     1      35.701 -17.777 -22.320  0.00  0.00    +0.051 C 
ATOM     17  H   UNL     1      35.825 -18.658 -24.879  0.00  0.00    +0.189 HD
ENDBRANCH   2  10
BRANCH   3  18
ATOM     18  O   UNL     1      32.187  -9.409 -22.846  0.00  0.00    -0.476 OA
BRANCH  18  19
ATOM     19  C   UNL     1      31.735  -8.420 -21.920  0.00  0.00    +0.184 C 
BRANCH  19  20
ATOM     20  C   UNL     1      32.851  -7.407 -21.637  0.00  0.00    -0.017 C 
BRANCH  20  21
ATOM     21  N   UNL     1      33.341  -7.628 -20.274  0.00  0.00    +0.384 N 
ATOM     22  H   UNL     1      33.795  -8.540 -20.218  0.00  0.00    -0.089 HD
ATOM     23  H   UNL     1      32.556  -7.598 -19.622  0.00  0.00    -0.089 HD
ATOM     24  H   UNL     1      34.012  -6.898 -20.031  0.00  0.00    -0.089 HD
ENDBRANCH  20  21
BRANCH  20  25
ATOM     25  C   UNL     1      34.046  -7.533 -22.606  0.00  0.00    +0.008 C 
BRANCH  25  26
ATOM     26  C   UNL     1      33.962  -6.649 -23.827  0.00  0.00    -0.024 C 
ATOM     27  C   UNL     1      35.029  -6.611 -24.713  0.00  0.00    -0.004 C 
ATOM     28  C   UNL     1      32.822  -5.890 -24.041  0.00  0.00    -0.004 C 
ATOM     29  C   UNL     1      34.952  -5.795 -25.840  0.00  0.00    -0.000 C 
ATOM     30  C   UNL     1      32.746  -5.074 -25.169  0.00  0.00    -0.000 C 
ATOM     31  C   UNL     1      33.810  -5.025 -26.069  0.00  0.00    -0.000 C 
ENDBRANCH  25  26
ENDBRANCH  20  25
ENDBRANCH  19  20
ENDBRANCH  18  19
ENDBRANCH   3  18
TORSDOF 7
ENDMDL
MODEL 2
REMARK VINA RESULT:     -12.6      2.942     10.292
REMARK  Name = 11314340
REMARK  7 active torsions:
REMARK  status: ('A' for Active; 'I' for Inactive)
REMARK    1  A    between atoms: C_2  and  C_10
REMARK    2  A    between atoms: C_3  and  O_18
REMARK    3  A    between atoms: O_18  and  C_19
REMARK    4  A    between atoms: C_19  and  C_20
REMARK    5  A    between atoms: C_20  and  N_21
REMARK    6  A    between atoms: C_20  and  C_25
REMARK    7  A    between atoms: C_25  and  C_26
REMARK                            x       y       z     vdW  Elec       q    Type
REMARK                         _______ _______ _______ _____ _____    ______ ____
ROOT
ATOM      1  N   UNL     1      33.227 -14.906 -26.257  0.00  0.00    -0.239 NA
ATOM      2  C   UNL     1      33.301 -14.140 -23.972  0.00  0.00    +0.022 C 
ATOM      3  C   UNL     1      34.581 -16.061 -24.622  0.00  0.00    +0.158 C 
ATOM      4  C   UNL     1      34.177 -15.162 -23.641  0.00  0.00    +0.040 C 
ATOM      5  C   UNL     1      32.856 -14.052 -25.277  0.00  0.00    +0.099 C 
ATOM      6  C   UNL     1      34.081 -15.892 -25.902  0.00  0.00    +0.136 C 
ENDROOT
BRANCH   2  10
ATOM      7  N   UNL     1      31.670  -9.400 -21.056  0.00  0.00    -0.280 N 
ATOM      8  N   UNL     1      31.621 -10.444 -20.205  0.00  0.00    -0.173 NA
ATOM      9  C   UNL     1      32.297 -11.059 -22.286  0.00  0.00    +0.032 A 
ATOM     10  C   UNL     1      32.860 -13.187 -22.970  0.00  0.00    +0.002 C 
ATOM     11  C   UNL     1      32.008 -11.501 -20.942  0.00  0.00    +0.102 A 
ATOM     12  C   UNL     1      32.727 -11.838 -23.352  0.00  0.00    +0.003 C 
ATOM     13  C   UNL     1      32.071  -9.713 -22.322  0.00  0.00    +0.053 A 
ATOM     14  C   UNL     1      32.585 -13.675 -21.653  0.00  0.00    +0.002 C 
ATOM     15  C   UNL     1      32.149 -12.855 -20.588  0.00  0.00    +0.021 C 
ATOM     16  C   UNL     1      32.180  -8.695 -23.380  0.00  0.00    +0.051 C 
ATOM     17  H   UNL     1      31.434  -8.483 -20.784  0.00  0.00    +0.189 HD
ENDBRANCH   2  10
BRANCH   3  18
ATOM     18  O   UNL     1      35.439 -17.072 -24.332  0.00  0.00    -0.476 OA
BRANCH  18  19
ATOM     19  C   UNL     1      34.872 -18.358 -24.075  0.00  0.00    +0.184 C 
BRANCH  19  20
ATOM     20  C   UNL     1      35.580 -19.022 -22.889  0.00  0.00    -0.017 C 
BRANCH  20  21
ATOM     21  N   UNL     1      36.915 -18.431 -22.757  0.00  0.00    +0.384 N 
ATOM     22  H   UNL     1      37.497 -18.724 -23.541  0.00  0.00    -0.089 HD
ATOM     23  H   UNL     1      37.340 -18.743 -21.882  0.00  0.00    -0.089 HD
ATOM     24  H   UNL     1      36.838 -17.413 -22.752  0.00  0.00    -0.089 HD
ENDBRANCH  20  21
BRANCH  20  25
ATOM     25  C   UNL     1      34.834 -18.832 -21.551  0.00  0.00    +0.008 C 
BRANCH  25  26
ATOM     26  C   UNL     1      34.690 -20.089 -20.727  0.00  0.00    -0.024 C 
ATOM     27  C   UNL     1      33.422 -20.536 -20.386  0.00  0.00    -0.004 C 
ATOM     28  C   UNL     1      35.826 -20.774 -20.326  0.00  0.00    -0.004 C 
ATOM     29  C   UNL     1      33.287 -21.696 -19.625  0.00  0.00    -0.000 C 
ATOM     30  C   UNL     1      35.690 -21.935 -19.565  0.00  0.00    -0.000 C 
ATOM     31  C   UNL     1      34.422 -22.396 -19.214  0.00  0.00    -0.000 C 
ENDBRANCH  25  26
ENDBRANCH  20  25
ENDBRANCH  19  20
ENDBRANCH  18  19
ENDBRANCH   3  18
TORSDOF 7
ENDMDL
MODEL 3
REMARK VINA RESULT:     -12.4      3.214      6.290
REMARK  Name = 11314340
REMARK  7 active torsions:
REMARK  status: ('A' for Active; 'I' for Inactive)
REMARK    1  A    between atoms: C_2  and  C_10
REMARK    2  A    between atoms: C_3  and  O_18
REMARK    3  A    between atoms: O_18  and  C_19
REMARK    4  A    between atoms: C_19  and  C_20
REMARK    5  A    between atoms: C_20  and  N_21
REMARK    6  A    between atoms: C_20  and  C_25
REMARK    7  A    between atoms: C_25  and  C_26
REMARK                            x       y       z     vdW  Elec       q    Type
REMARK                         _______ _______ _______ _____ _____    ______ ____
ROOT
ATOM      1  N   UNL     1      34.314 -17.480 -25.542  0.00  0.00    -0.239 NA
ATOM      2  C   UNL     1      35.094 -17.756 -23.277  0.00  0.00    +0.022 C 
ATOM      3  C   UNL     1      34.643 -15.555 -24.116  0.00  0.00    +0.158 C 
ATOM      4  C   UNL     1      35.055 -16.384 -23.079  0.00  0.00    +0.040 C 
ATOM      5  C   UNL     1      34.720 -18.254 -24.510  0.00  0.00    +0.099 C 
ATOM      6  C   UNL     1      34.288 -16.147 -25.317  0.00  0.00    +0.136 C 
ENDROOT
BRANCH   2  10
ATOM      7  N   UNL     1      35.419 -21.728 -19.063  0.00  0.00    -0.280 N 
ATOM      8  N   UNL     1      36.644 -21.189 -19.217  0.00  0.00    -0.173 NA
ATOM      9  C   UNL     1      35.124 -20.291 -20.647  0.00  0.00    +0.032 A 
ATOM     10  C   UNL     1      35.520 -18.648 -22.214  0.00  0.00    +0.002 C 
ATOM     11  C   UNL     1      36.497 -20.284 -20.201  0.00  0.00    +0.102 A 
ATOM     12  C   UNL     1      34.559 -19.506 -21.644  0.00  0.00    +0.003 C 
ATOM     13  C   UNL     1      34.465 -21.225 -19.899  0.00  0.00    +0.053 A 
ATOM     14  C   UNL     1      36.891 -18.603 -21.808  0.00  0.00    +0.002 C 
ATOM     15  C   UNL     1      37.435 -19.416 -20.789  0.00  0.00    +0.021 C 
ATOM     16  C   UNL     1      33.071 -21.700 -19.869  0.00  0.00    +0.051 C 
ATOM     17  H   UNL     1      35.228 -22.431 -18.401  0.00  0.00    +0.189 HD
ENDBRANCH   2  10
BRANCH   3  18
ATOM     18  O   UNL     1      34.592 -14.209 -23.956  0.00  0.00    -0.476 OA
BRANCH  18  19
ATOM     19  C   UNL     1      34.111 -13.717 -22.704  0.00  0.00    +0.184 C 
BRANCH  19  20
ATOM     20  C   UNL     1      32.819 -12.918 -22.908  0.00  0.00    -0.017 C 
BRANCH  20  21
ATOM     21  N   UNL     1      31.960 -13.658 -23.838  0.00  0.00    +0.384 N 
ATOM     22  H   UNL     1      32.513 -14.363 -24.325  0.00  0.00    -0.089 HD
ATOM     23  H   UNL     1      31.558 -13.011 -24.517  0.00  0.00    -0.089 HD
ATOM     24  H   UNL     1      31.209 -14.114 -23.317  0.00  0.00    -0.089 HD
ENDBRANCH  20  21
BRANCH  20  25
ATOM     25  C   UNL     1      32.031 -12.691 -21.601  0.00  0.00    +0.008 C 
BRANCH  25  26
ATOM     26  C   UNL     1      31.988 -11.257 -21.133  0.00  0.00    -0.024 C 
ATOM     27  C   UNL     1      31.984 -10.985 -19.773  0.00  0.00    -0.004 C 
ATOM     28  C   UNL     1      31.952 -10.236 -22.070  0.00  0.00    -0.004 C 
ATOM     29  C   UNL     1      31.944  -9.660 -19.340  0.00  0.00    -0.000 C 
ATOM     30  C   UNL     1      31.912  -8.911 -21.637  0.00  0.00    -0.000 C 
ATOM     31  C   UNL     1      31.908  -8.623 -20.273  0.00  0.00    -0.000 C 
ENDBRANCH  25  26
ENDBRANCH  20  25
ENDBRANCH  19  20
ENDBRANCH  18  19
ENDBRANCH   3  18
TORSDOF 7
ENDMDL
MODEL 4
REMARK VINA RESULT:     -12.2      6.892     12.950
REMARK  Name = 11314340
REMARK  7 active torsions:
REMARK  status: ('A' for Active; 'I' for Inactive)
REMARK    1  A    between atoms: C_2  and  C_10
REMARK    2  A    between atoms: C_3  and  O_18
REMARK    3  A    between atoms: O_18  and  C_19
REMARK    4  A    between atoms: C_19  and  C_20
REMARK    5  A    between atoms: C_20  and  N_21
REMARK    6  A    between atoms: C_20  and  C_25
REMARK    7  A    between atoms: C_25  and  C_26
REMARK                            x       y       z     vdW  Elec       q    Type
REMARK                         _______ _______ _______ _____ _____    ______ ____
ROOT
ATOM      1  N   UNL     1      36.810 -20.558 -19.898  0.00  0.00    -0.239 NA
ATOM      2  C   UNL     1      35.257 -19.647 -21.501  0.00  0.00    +0.022 C 
ATOM      3  C   UNL     1      34.470 -21.154 -19.810  0.00  0.00    +0.158 C 
ATOM      4  C   UNL     1      34.214 -20.346 -20.912  0.00  0.00    +0.040 C 
ATOM      5  C   UNL     1      36.524 -19.782 -20.967  0.00  0.00    +0.099 C 
ATOM      6  C   UNL     1      35.773 -21.227 -19.347  0.00  0.00    +0.136 C 
ENDROOT
BRANCH   2  10
ATOM      7  N   UNL     1      34.369 -15.200 -25.117  0.00  0.00    -0.280 N 
ATOM      8  N   UNL     1      34.366 -16.332 -25.848  0.00  0.00    -0.173 NA
ATOM      9  C   UNL     1      34.708 -16.735 -23.638  0.00  0.00    +0.032 A 
ATOM     10  C   UNL     1      35.022 -18.795 -22.653  0.00  0.00    +0.002 C 
ATOM     11  C   UNL     1      34.575 -17.315 -24.953  0.00  0.00    +0.102 A 
ATOM     12  C   UNL     1      34.931 -17.405 -22.442  0.00  0.00    +0.003 C 
ATOM     13  C   UNL     1      34.571 -15.383 -23.780  0.00  0.00    +0.053 A 
ATOM     14  C   UNL     1      34.899 -19.418 -23.935  0.00  0.00    +0.002 C 
ATOM     15  C   UNL     1      34.671 -18.706 -25.134  0.00  0.00    +0.021 C 
ATOM     16  C   UNL     1      34.606 -14.256 -22.834  0.00  0.00    +0.051 C 
ATOM     17  H   UNL     1      34.237 -14.309 -25.517  0.00  0.00    +0.189 HD
ENDBRANCH   2  10
BRANCH   3  18
ATOM     18  O   UNL     1      33.472 -21.851 -19.209  0.00  0.00    -0.476 OA
BRANCH  18  19
ATOM     19  C   UNL     1      33.737 -23.213 -18.869  0.00  0.00    +0.184 C 
BRANCH  19  20
ATOM     20  C   UNL     1      33.322 -23.489 -17.420  0.00  0.00    -0.017 C 
BRANCH  20  21
ATOM     21  N   UNL     1      34.428 -23.102 -16.540  0.00  0.00    +0.384 N 
ATOM     22  H   UNL     1      35.213 -23.738 -16.679  0.00  0.00    -0.089 HD
ATOM     23  H   UNL     1      34.120 -23.148 -15.567  0.00  0.00    -0.089 HD
ATOM     24  H   UNL     1      34.719 -22.148 -16.759  0.00  0.00    -0.089 HD
ENDBRANCH  20  21
BRANCH  20  25
ATOM     25  C   UNL     1      32.064 -22.705 -16.988  0.00  0.00    +0.008 C 
BRANCH  25  26
ATOM     26  C   UNL     1      31.026 -23.529 -16.265  0.00  0.00    -0.024 C 
ATOM     27  C   UNL     1      29.697 -23.440 -16.652  0.00  0.00    -0.004 C 
ATOM     28  C   UNL     1      31.419 -24.361 -15.229  0.00  0.00    -0.004 C 
ATOM     29  C   UNL     1      28.738 -24.201 -15.985  0.00  0.00    -0.000 C 
ATOM     30  C   UNL     1      30.459 -25.122 -14.562  0.00  0.00    -0.000 C 
ATOM     31  C   UNL     1      29.119 -25.042 -14.939  0.00  0.00    -0.000 C 
ENDBRANCH  25  26
ENDBRANCH  20  25
ENDBRANCH  19  20
ENDBRANCH  18  19
ENDBRANCH   3  18
TORSDOF 7
ENDMDL
MODEL 5
REMARK VINA RESULT:     -12.2      7.239     13.595
REMARK  Name = 11314340
REMARK  7 active torsions:
REMARK  status: ('A' for Active; 'I' for Inactive)
REMARK    1  A    between atoms: C_2  and  C_10
REMARK    2  A    between atoms: C_3  and  O_18
REMARK    3  A    between atoms: O_18  and  C_19
REMARK    4  A    between atoms: C_19  and  C_20
REMARK    5  A    between atoms: C_20  and  N_21
REMARK    6  A    between atoms: C_20  and  C_25
REMARK    7  A    between atoms: C_25  and  C_26
REMARK                            x       y       z     vdW  Elec       q    Type
REMARK                         _______ _______ _______ _____ _____    ______ ____
ROOT
ATOM      1  N   UNL     1      32.791 -21.537 -19.736  0.00  0.00    -0.239 NA
ATOM      2  C   UNL     1      34.350 -20.120 -20.910  0.00  0.00    +0.022 C 
ATOM      3  C   UNL     1      35.167 -21.745 -19.347  0.00  0.00    +0.158 C 
ATOM      4  C   UNL     1      35.414 -20.727 -20.262  0.00  0.00    +0.040 C 
ATOM      5  C   UNL     1      33.069 -20.552 -20.619  0.00  0.00    +0.099 C 
ATOM      6  C   UNL     1      33.850 -22.109 -19.121  0.00  0.00    +0.136 C 
ENDROOT
BRANCH   2  10
ATOM      7  N   UNL     1      35.050 -15.026 -23.593  0.00  0.00    -0.280 N 
ATOM      8  N   UNL     1      35.199 -16.001 -24.512  0.00  0.00    -0.173 NA
ATOM      9  C   UNL     1      34.763 -16.830 -22.442  0.00  0.00    +0.032 A 
ATOM     10  C   UNL     1      34.574 -19.055 -21.869  0.00  0.00    +0.002 C 
ATOM     11  C   UNL     1      35.026 -17.145 -23.826  0.00  0.00    +0.102 A 
ATOM     12  C   UNL     1      34.527 -17.725 -21.407  0.00  0.00    +0.003 C 
ATOM     13  C   UNL     1      34.785 -15.469 -22.330  0.00  0.00    +0.053 A 
ATOM     14  C   UNL     1      34.832 -19.418 -23.229  0.00  0.00    +0.002 C 
ATOM     15  C   UNL     1      35.067 -18.482 -24.261  0.00  0.00    +0.021 C 
ATOM     16  C   UNL     1      34.594 -14.542 -21.202  0.00  0.00    +0.051 C 
ATOM     17  H   UNL     1      35.126 -14.070 -23.816  0.00  0.00    +0.189 HD
ENDBRANCH   2  10
BRANCH   3  18
ATOM     18  O   UNL     1      36.186 -22.362 -18.697  0.00  0.00    -0.476 OA
BRANCH  18  19
ATOM     19  C   UNL     1      36.012 -22.619 -17.302  0.00  0.00    +0.184 C 
BRANCH  19  20
ATOM     20  C   UNL     1      37.334 -22.413 -16.555  0.00  0.00    -0.017 C 
BRANCH  20  21
ATOM     21  N   UNL     1      37.675 -20.988 -16.603  0.00  0.00    +0.384 N 
ATOM     22  H   UNL     1      38.638 -20.878 -16.920  0.00  0.00    -0.089 HD
ATOM     23  H   UNL     1      37.574 -20.582 -15.672  0.00  0.00    -0.089 HD
ATOM     24  H   UNL     1      37.047 -20.510 -17.251  0.00  0.00    -0.089 HD
ENDBRANCH  20  21
BRANCH  20  25
ATOM     25  C   UNL     1      37.270 -22.843 -15.074  0.00  0.00    +0.008 C 
BRANCH  25  26
ATOM     26  C   UNL     1      38.212 -23.963 -14.703  0.00  0.00    -0.024 C 
ATOM     27  C   UNL     1      37.990 -24.679 -13.536  0.00  0.00    -0.004 C 
ATOM     28  C   UNL     1      39.281 -24.256 -15.535  0.00  0.00    -0.004 C 
ATOM     29  C   UNL     1      38.859 -25.713 -13.192  0.00  0.00    -0.000 C 
ATOM     30  C   UNL     1      40.151 -25.292 -15.190  0.00  0.00    -0.000 C 
ATOM     31  C   UNL     1      39.940 -26.020 -14.020  0.00  0.00    -0.000 C 
ENDBRANCH  25  26
ENDBRANCH  20  25
ENDBRANCH  19  20
ENDBRANCH  18  19
ENDBRANCH   3  18
TORSDOF 7
ENDMDL
MODEL 6
REMARK VINA RESULT:     -12.0      2.290      9.261
REMARK  Name = 11314340
REMARK  7 active torsions:
REMARK  status: ('A' for Active; 'I' for Inactive)
REMARK    1  A    between atoms: C_2  and  C_10
REMARK    2  A    between atoms: C_3  and  O_18
REMARK    3  A    between atoms: O_18  and  C_19
REMARK    4  A    between atoms: C_19  and  C_20
REMARK    5  A    between atoms: C_20  and  N_21
REMARK    6  A    between atoms: C_20  and  C_25
REMARK    7  A    between atoms: C_25  and  C_26
REMARK                            x       y       z     vdW  Elec       q    Type
REMARK                         _______ _______ _______ _____ _____    ______ ____
ROOT
ATOM      1  N   UNL     1      31.988 -12.834 -21.331  0.00  0.00    -0.239 NA
ATOM      2  C   UNL     1      32.326 -10.744 -22.484  0.00  0.00    +0.022 C 
ATOM      3  C   UNL     1      33.379 -12.736 -23.305  0.00  0.00    +0.158 C 
ATOM      4  C   UNL     1      33.140 -11.370 -23.415  0.00  0.00    +0.040 C 
ATOM      5  C   UNL     1      31.778 -11.506 -21.470  0.00  0.00    +0.099 C 
ATOM      6  C   UNL     1      32.786 -13.416 -22.254  0.00  0.00    +0.136 C 
ENDROOT
BRANCH   2  10
ATOM      7  N   UNL     1      31.617  -5.082 -21.443  0.00  0.00    -0.280 N 
ATOM      8  N   UNL     1      31.322  -5.303 -22.739  0.00  0.00    -0.173 NA
ATOM      9  C   UNL     1      31.929  -7.208 -21.658  0.00  0.00    +0.032 A 
ATOM     10  C   UNL     1      32.058  -9.320 -22.571  0.00  0.00    +0.002 C 
ATOM     11  C   UNL     1      31.506  -6.625 -22.909  0.00  0.00    +0.102 A 
ATOM     12  C   UNL     1      32.223  -8.542 -21.409  0.00  0.00    +0.003 C 
ATOM     13  C   UNL     1      31.989  -6.194 -20.745  0.00  0.00    +0.053 A 
ATOM     14  C   UNL     1      31.642  -8.791 -23.834  0.00  0.00    +0.002 C 
ATOM     15  C   UNL     1      31.349  -7.426 -24.055  0.00  0.00    +0.021 C 
ATOM     16  C   UNL     1      32.348  -6.135 -19.318  0.00  0.00    +0.051 C 
ATOM     17  H   UNL     1      31.569  -4.188 -21.033  0.00  0.00    +0.189 HD
ENDBRANCH   2  10
BRANCH   3  18
ATOM     18  O   UNL     1      34.169 -13.380 -24.200  0.00  0.00    -0.476 OA
BRANCH  18  19
ATOM     19  C   UNL     1      33.549 -13.861 -25.394  0.00  0.00    +0.184 C 
BRANCH  19  20
ATOM     20  C   UNL     1      33.379 -15.383 -25.329  0.00  0.00    -0.017 C 
BRANCH  20  21
ATOM     21  N   UNL     1      32.556 -15.805 -26.467  0.00  0.00    +0.384 N 
ATOM     22  H   UNL     1      31.906 -16.530 -26.166  0.00  0.00    -0.089 HD
ATOM     23  H   UNL     1      33.159 -16.172 -27.204  0.00  0.00    -0.089 HD
ATOM     24  H   UNL     1      32.033 -15.004 -26.824  0.00  0.00    -0.089 HD
ENDBRANCH  20  21
BRANCH  20  25
ATOM     25  C   UNL     1      34.718 -16.148 -25.391  0.00  0.00    +0.008 C 
BRANCH  25  26
ATOM     26  C   UNL     1      34.924 -17.147 -24.279  0.00  0.00    -0.024 C 
ATOM     27  C   UNL     1      34.788 -18.501 -24.547  0.00  0.00    -0.004 C 
ATOM     28  C   UNL     1      35.246 -16.694 -23.009  0.00  0.00    -0.004 C 
ATOM     29  C   UNL     1      34.979 -19.424 -23.520  0.00  0.00    -0.000 C 
ATOM     30  C   UNL     1      35.436 -17.619 -21.982  0.00  0.00    -0.000 C 
ATOM     31  C   UNL     1      35.303 -18.983 -22.236  0.00  0.00    -0.000 C 
ENDBRANCH  25  26
ENDBRANCH  20  25
ENDBRANCH  19  20
ENDBRANCH  18  19
ENDBRANCH   3  18
TORSDOF 7
ENDMDL
MODEL 7
REMARK VINA RESULT:     -11.8      6.410     12.803
REMARK  Name = 11314340
REMARK  7 active torsions:
REMARK  status: ('A' for Active; 'I' for Inactive)
REMARK    1  A    between atoms: C_2  and  C_10
REMARK    2  A    between atoms: C_3  and  O_18
REMARK    3  A    between atoms: O_18  and  C_19
REMARK    4  A    between atoms: C_19  and  C_20
REMARK    5  A    between atoms: C_20  and  N_21
REMARK    6  A    between atoms: C_20  and  C_25
REMARK    7  A    between atoms: C_25  and  C_26
REMARK                            x       y       z     vdW  Elec       q    Type
REMARK                         _______ _______ _______ _____ _____    ______ ____
ROOT
ATOM      1  N   UNL     1      36.533 -20.758 -19.781  0.00  0.00    -0.239 NA
ATOM      2  C   UNL     1      35.103 -19.803 -21.472  0.00  0.00    +0.022 C 
ATOM      3  C   UNL     1      34.197 -21.366 -19.896  0.00  0.00    +0.158 C 
ATOM      4  C   UNL     1      34.022 -20.524 -20.989  0.00  0.00    +0.040 C 
ATOM      5  C   UNL     1      36.326 -19.949 -20.845  0.00  0.00    +0.099 C 
ATOM      6  C   UNL     1      35.460 -21.447 -19.334  0.00  0.00    +0.136 C 
ENDROOT
BRANCH   2  10
ATOM      7  N   UNL     1      34.525 -15.244 -25.011  0.00  0.00    -0.280 N 
ATOM      8  N   UNL     1      34.537 -16.357 -25.771  0.00  0.00    -0.173 NA
ATOM      9  C   UNL     1      34.744 -16.825 -23.557  0.00  0.00    +0.032 A 
ATOM     10  C   UNL     1      34.954 -18.916 -22.612  0.00  0.00    +0.002 C 
ATOM     11  C   UNL     1      34.672 -17.367 -24.893  0.00  0.00    +0.102 A 
ATOM     12  C   UNL     1      34.884 -17.531 -22.369  0.00  0.00    +0.003 C 
ATOM     13  C   UNL     1      34.647 -15.467 -23.670  0.00  0.00    +0.053 A 
ATOM     14  C   UNL     1      34.889 -19.503 -23.916  0.00  0.00    +0.002 C 
ATOM     15  C   UNL     1      34.746 -18.755 -25.106  0.00  0.00    +0.021 C 
ATOM     16  C   UNL     1      34.655 -14.365 -22.693  0.00  0.00    +0.051 C 
ATOM     17  H   UNL     1      34.437 -14.341 -25.394  0.00  0.00    +0.189 HD
ENDBRANCH   2  10
BRANCH   3  18
ATOM     18  O   UNL     1      33.160 -22.085 -19.396  0.00  0.00    -0.476 OA
BRANCH  18  19
ATOM     19  C   UNL     1      33.472 -23.128 -18.472  0.00  0.00    +0.184 C 
BRANCH  19  20
ATOM     20  C   UNL     1      32.933 -22.783 -17.079  0.00  0.00    -0.017 C 
BRANCH  20  21
ATOM     21  N   UNL     1      31.470 -22.743 -17.146  0.00  0.00    +0.384 N 
ATOM     22  H   UNL     1      31.110 -23.684 -17.303  0.00  0.00    -0.089 HD
ATOM     23  H   UNL     1      31.181 -22.135 -17.914  0.00  0.00    -0.089 HD
ATOM     24  H   UNL     1      31.099 -22.378 -16.267  0.00  0.00    -0.089 HD
ENDBRANCH  20  21
BRANCH  20  25
ATOM     25  C   UNL     1      33.339 -23.808 -15.999  0.00  0.00    +0.008 C 
BRANCH  25  26
ATOM     26  C   UNL     1      34.819 -23.865 -15.709  0.00  0.00    -0.024 C 
ATOM     27  C   UNL     1      35.589 -22.724 -15.878  0.00  0.00    -0.004 C 
ATOM     28  C   UNL     1      35.383 -25.056 -15.280  0.00  0.00    -0.004 C 
ATOM     29  C   UNL     1      36.957 -22.775 -15.610  0.00  0.00    -0.000 C 
ATOM     30  C   UNL     1      36.752 -25.107 -15.013  0.00  0.00    -0.000 C 
ATOM     31  C   UNL     1      37.538 -23.968 -15.178  0.00  0.00    -0.000 C 
ENDBRANCH  25  26
ENDBRANCH  20  25
ENDBRANCH  19  20
ENDBRANCH  18  19
ENDBRANCH   3  18
TORSDOF 7
ENDMDL
MODEL 8
REMARK VINA RESULT:     -11.7      2.829     10.206
REMARK  Name = 11314340
REMARK  7 active torsions:
REMARK  status: ('A' for Active; 'I' for Inactive)
REMARK    1  A    between atoms: C_2  and  C_10
REMARK    2  A    between atoms: C_3  and  O_18
REMARK    3  A    between atoms: O_18  and  C_19
REMARK    4  A    between atoms: C_19  and  C_20
REMARK    5  A    between atoms: C_20  and  N_21
REMARK    6  A    between atoms: C_20  and  C_25
REMARK    7  A    between atoms: C_25  and  C_26
REMARK                            x       y       z     vdW  Elec       q    Type
REMARK                         _______ _______ _______ _____ _____    ______ ____
ROOT
ATOM      1  N   UNL     1      33.762 -14.086 -25.762  0.00  0.00    -0.239 NA
ATOM      2  C   UNL     1      33.390 -12.721 -23.810  0.00  0.00    +0.022 C 
ATOM      3  C   UNL     1      34.040 -15.014 -23.548  0.00  0.00    +0.158 C 
ATOM      4  C   UNL     1      33.698 -13.790 -22.983  0.00  0.00    +0.040 C 
ATOM      5  C   UNL     1      33.434 -12.912 -25.178  0.00  0.00    +0.099 C 
ATOM      6  C   UNL     1      34.056 -15.109 -24.930  0.00  0.00    +0.136 C 
ENDROOT
BRANCH   2  10
ATOM      7  N   UNL     1      33.034  -7.107 -22.395  0.00  0.00    -0.280 N 
ATOM      8  N   UNL     1      32.069  -7.764 -21.721  0.00  0.00    -0.173 NA
ATOM      9  C   UNL     1      33.305  -9.153 -23.029  0.00  0.00    +0.032 A 
ATOM     10  C   UNL     1      33.029 -11.431 -23.251  0.00  0.00    +0.002 C 
ATOM     11  C   UNL     1      32.209  -9.049 -22.094  0.00  0.00    +0.102 A 
ATOM     12  C   UNL     1      33.774 -10.304 -23.648  0.00  0.00    +0.003 C 
ATOM     13  C   UNL     1      33.808  -7.895 -23.197  0.00  0.00    +0.053 A 
ATOM     14  C   UNL     1      31.935 -11.380 -22.330  0.00  0.00    +0.002 C 
ATOM     15  C   UNL     1      31.482 -10.192 -21.715  0.00  0.00    +0.021 C 
ATOM     16  C   UNL     1      34.907  -7.342 -24.006  0.00  0.00    +0.051 C 
ATOM     17  H   UNL     1      33.169  -6.135 -22.315  0.00  0.00    +0.189 HD
ENDBRANCH   2  10
BRANCH   3  18
ATOM     18  O   UNL     1      34.349 -16.081 -22.769  0.00  0.00    -0.476 OA
BRANCH  18  19
ATOM     19  C   UNL     1      35.412 -16.927 -23.208  0.00  0.00    +0.184 C 
BRANCH  19  20
ATOM     20  C   UNL     1      35.632 -18.067 -22.207  0.00  0.00    -0.017 C 
BRANCH  20  21
ATOM     21  N   UNL     1      35.584 -17.509 -20.853  0.00  0.00    +0.384 N 
ATOM     22  H   UNL     1      35.180 -16.573 -20.884  0.00  0.00    -0.089 HD
ATOM     23  H   UNL     1      36.529 -17.460 -20.471  0.00  0.00    -0.089 HD
ATOM     24  H   UNL     1      35.009 -18.108 -20.258  0.00  0.00    -0.089 HD
ENDBRANCH  20  21
BRANCH  20  25
ATOM     25  C   UNL     1      34.567 -19.180 -22.308  0.00  0.00    +0.008 C 
BRANCH  25  26
ATOM     26  C   UNL     1      34.579 -20.169 -21.168  0.00  0.00    -0.024 C 
ATOM     27  C   UNL     1      35.789 -20.688 -20.732  0.00  0.00    -0.004 C 
ATOM     28  C   UNL     1      33.382 -20.541 -20.577  0.00  0.00    -0.004 C 
ATOM     29  C   UNL     1      35.801 -21.601 -19.678  0.00  0.00    -0.000 C 
ATOM     30  C   UNL     1      33.395 -21.455 -19.524  0.00  0.00    -0.000 C 
ATOM     31  C   UNL     1      34.604 -21.986 -19.074  0.00  0.00    -0.000 C 
ENDBRANCH  25  26
ENDBRANCH  20  25
ENDBRANCH  19  20
ENDBRANCH  18  19
ENDBRANCH   3  18
TORSDOF 7
ENDMDL
MODEL 9
REMARK VINA RESULT:     -11.6      8.980     13.373
REMARK  Name = 11314340
REMARK  7 active torsions:
REMARK  status: ('A' for Active; 'I' for Inactive)
REMARK    1  A    between atoms: C_2  and  C_10
REMARK    2  A    between atoms: C_3  and  O_18
REMARK    3  A    between atoms: O_18  and  C_19
REMARK    4  A    between atoms: C_19  and  C_20
REMARK    5  A    between atoms: C_20  and  N_21
REMARK    6  A    between atoms: C_20  and  C_25
REMARK    7  A    between atoms: C_25  and  C_26
REMARK                            x       y       z     vdW  Elec       q    Type
REMARK                         _______ _______ _______ _____ _____    ______ ____
ROOT
ATOM      1  N   UNL     1      31.597 -23.612 -15.628  0.00  0.00    -0.239 NA
ATOM      2  C   UNL     1      34.006 -23.515 -15.624  0.00  0.00    +0.022 C 
ATOM      3  C   UNL     1      32.796 -22.883 -17.596  0.00  0.00    +0.158 C 
ATOM      4  C   UNL     1      34.006 -23.063 -16.935  0.00  0.00    +0.040 C 
ATOM      5  C   UNL     1      32.792 -23.774 -15.017  0.00  0.00    +0.099 C 
ATOM      6  C   UNL     1      31.630 -23.170 -16.906  0.00  0.00    +0.136 C 
ENDROOT
BRANCH   2  10
ATOM      7  N   UNL     1      38.110 -24.401 -11.623  0.00  0.00    -0.280 N 
ATOM      8  N   UNL     1      38.720 -24.277 -12.818  0.00  0.00    -0.173 NA
ATOM      9  C   UNL     1      36.461 -24.082 -12.980  0.00  0.00    +0.032 A 
ATOM     10  C   UNL     1      35.252 -23.712 -14.907  0.00  0.00    +0.002 C 
ATOM     11  C   UNL     1      37.717 -24.075 -13.692  0.00  0.00    +0.102 A 
ATOM     12  C   UNL     1      35.191 -23.907 -13.513  0.00  0.00    +0.003 C 
ATOM     13  C   UNL     1      36.750 -24.292 -11.661  0.00  0.00    +0.053 A 
ATOM     14  C   UNL     1      36.470 -23.699 -15.658  0.00  0.00    +0.002 C 
ATOM     15  C   UNL     1      37.748 -23.879 -15.085  0.00  0.00    +0.021 C 
ATOM     16  C   UNL     1      35.924 -24.403 -10.448  0.00  0.00    +0.051 C 
ATOM     17  H   UNL     1      38.607 -24.559 -10.788  0.00  0.00    +0.189 HD
ENDBRANCH   2  10
BRANCH   3  18
ATOM     18  O   UNL     1      32.760 -22.441 -18.878  0.00  0.00    -0.476 OA
BRANCH  18  19
ATOM     19  C   UNL     1      34.012 -22.236 -19.535  0.00  0.00    +0.184 C 
BRANCH  19  20
ATOM     20  C   UNL     1      33.886 -21.123 -20.582  0.00  0.00    -0.017 C 
BRANCH  20  21
ATOM     21  N   UNL     1      32.718 -20.304 -20.248  0.00  0.00    +0.384 N 
ATOM     22  H   UNL     1      33.027 -19.410 -19.867  0.00  0.00    -0.089 HD
ATOM     23  H   UNL     1      32.148 -20.791 -19.555  0.00  0.00    -0.089 HD
ATOM     24  H   UNL     1      32.164 -20.142 -21.090  0.00  0.00    -0.089 HD
ENDBRANCH  20  21
BRANCH  20  25
ATOM     25  C   UNL     1      35.122 -20.201 -20.641  0.00  0.00    +0.008 C 
BRANCH  25  26
ATOM     26  C   UNL     1      35.076 -19.155 -21.729  0.00  0.00    -0.024 C 
ATOM     27  C   UNL     1      35.165 -17.814 -21.386  0.00  0.00    -0.004 C 
ATOM     28  C   UNL     1      34.946 -19.553 -23.050  0.00  0.00    -0.004 C 
ATOM     29  C   UNL     1      35.122 -16.848 -22.390  0.00  0.00    -0.000 C 
ATOM     30  C   UNL     1      34.904 -18.586 -24.054  0.00  0.00    -0.000 C 
ATOM     31  C   UNL     1      34.992 -17.234 -23.725  0.00  0.00    -0.000 C 
ENDBRANCH  25  26
ENDBRANCH  20  25
ENDBRANCH  19  20
ENDBRANCH  18  19
ENDBRANCH   3  18
TORSDOF 7
ENDMDL
