MODEL 1
REMARK VINA RESULT:     -13.6      0.000      0.000
REMARK  Name = 24875320
REMARK  6 active torsions:
REMARK  status: ('A' for Active; 'I' for Inactive)
REMARK    1  A    between atoms: C_1  and  N_22
REMARK    2  A    between atoms: C_3  and  C_10
REMARK    3  A    between atoms: N_9  and  C_12
REMARK    4  A    between atoms: C_14  and  C_21
REMARK    5  A    between atoms: N_22  and  C_25
REMARK    6  A    between atoms: C_28  and  C_32
REMARK                            x       y       z     vdW  Elec       q    Type
REMARK                         _______ _______ _______ _____ _____    ______ ____
ROOT
ATOM      1  C   UNL     1      35.282 -16.986 -23.543  0.00  0.00    +0.044 C 
ATOM      2  C   UNL     1      34.699 -17.588 -24.658  0.00  0.00    -0.008 C 
ATOM      3  C   UNL     1      34.114 -14.930 -24.042  0.00  0.00    +0.055 C 
ATOM      4  C   UNL     1      34.989 -15.657 -23.235  0.00  0.00    +0.019 C 
ATOM      5  C   UNL     1      33.823 -16.862 -25.465  0.00  0.00    -0.003 C 
ATOM      6  C   UNL     1      33.531 -15.533 -25.157  0.00  0.00    +0.004 C 
ATOM      7  C   UNL     1      34.993 -19.010 -25.010  0.00  0.00    +0.032 C 
ENDROOT
BRANCH   3  10
ATOM      8  O   UNL     1      34.337 -12.642 -24.390  0.00  0.00    -0.270 OA
ATOM      9  N   UNL     1      32.939 -13.344 -22.642  0.00  0.00    -0.280 N 
ATOM     10  C   UNL     1      33.810 -13.545 -23.722  0.00  0.00    +0.250 C 
ATOM     11  H   UNL     1      32.598 -14.160 -22.208  0.00  0.00    +0.155 HD
BRANCH   9  12
ATOM     12  C   UNL     1      32.486 -12.120 -22.091  0.00  0.00    +0.050 C 
ATOM     13  C   UNL     1      32.519 -10.954 -22.857  0.00  0.00    +0.019 C 
ATOM     14  C   UNL     1      32.073  -9.749 -22.315  0.00  0.00    +0.073 C 
ATOM     15  C   UNL     1      32.005 -12.080 -20.782  0.00  0.00    +0.015 C 
ATOM     16  C   UNL     1      31.593  -9.710 -21.005  0.00  0.00    +0.004 C 
ATOM     17  C   UNL     1      31.559 -10.875 -20.240  0.00  0.00    +0.001 C 
BRANCH  14  21
ATOM     18  F   UNL     1      31.395  -8.589 -24.293  0.00  0.00    -0.166 F 
ATOM     19  F   UNL     1      31.608  -7.410 -22.485  0.00  0.00    -0.166 F 
ATOM     20  F   UNL     1      33.376  -8.158 -23.507  0.00  0.00    -0.166 F 
ATOM     21  C   UNL     1      32.109  -8.504 -23.133  0.00  0.00    +0.419 C 
ENDBRANCH  14  21
ENDBRANCH   9  12
ENDBRANCH   3  10
BRANCH   1  22
ATOM     22  N   UNL     1      36.170 -17.706 -22.714  0.00  0.00    -0.312 N 
ATOM     23  H   UNL     1      37.110 -17.428 -22.804  0.00  0.00    +0.152 HD
BRANCH  22  25
ATOM     24  N   UNL     1      36.915 -20.258 -20.151  0.00  0.00    -0.241 NA
ATOM     25  C   UNL     1      35.974 -18.746 -21.785  0.00  0.00    +0.068 C 
ATOM     26  C   UNL     1      34.711 -19.284 -21.568  0.00  0.00    +0.022 C 
ATOM     27  C   UNL     1      37.034 -19.263 -21.058  0.00  0.00    +0.113 C 
ATOM     28  C   UNL     1      34.548 -20.310 -20.643  0.00  0.00    +0.073 C 
ATOM     29  C   UNL     1      35.672 -20.758 -19.967  0.00  0.00    +0.103 C 
BRANCH  28  32
ATOM     30  O   UNL     1      32.218 -20.458 -20.949  0.00  0.00    -0.270 OA
ATOM     31  N   UNL     1      33.171 -21.978 -19.521  0.00  0.00    -0.325 N 
ATOM     32  C   UNL     1      33.243 -20.894 -20.394  0.00  0.00    +0.244 C 
ATOM     33  H   UNL     1      32.303 -22.399 -19.329  0.00  0.00    +0.145 HD
ATOM     34  H   UNL     1      33.990 -22.323 -19.098  0.00  0.00    +0.145 HD
ENDBRANCH  28  32
ENDBRANCH  22  25
ENDBRANCH   1  22
TORSDOF 6
ENDMDL
MODEL 2
REMARK VINA RESULT:     -13.6      6.691     10.149
REMARK  Name = 24875320
REMARK  6 active torsions:
REMARK  status: ('A' for Active; 'I' for Inactive)
REMARK    1  A    between atoms: C_1  and  N_22
REMARK    2  A    between atoms: C_3  and  C_10
REMARK    3  A    between atoms: N_9  and  C_12
REMARK    4  A    between atoms: C_14  and  C_21
REMARK    5  A    between atoms: N_22  and  C_25
REMARK    6  A    between atoms: C_28  and  C_32
REMARK                            x       y       z     vdW  Elec       q    Type
REMARK                         _______ _______ _______ _____ _____    ______ ____
ROOT
ATOM      1  C   UNL     1      34.705 -23.119 -15.582  0.00  0.00    +0.044 C 
ATOM      2  C   UNL     1      33.412 -23.551 -15.878  0.00  0.00    -0.008 C 
ATOM      3  C   UNL     1      34.970 -22.357 -17.860  0.00  0.00    +0.055 C 
ATOM      4  C   UNL     1      35.484 -22.522 -16.573  0.00  0.00    +0.019 C 
ATOM      5  C   UNL     1      32.898 -23.386 -17.164  0.00  0.00    -0.003 C 
ATOM      6  C   UNL     1      33.677 -22.789 -18.155  0.00  0.00    +0.004 C 
ATOM      7  C   UNL     1      32.555 -24.193 -14.836  0.00  0.00    +0.032 C 
ENDROOT
BRANCH   3  10
ATOM      8  O   UNL     1      36.998 -21.989 -18.939  0.00  0.00    -0.270 OA
ATOM      9  N   UNL     1      35.110 -20.862 -19.758  0.00  0.00    -0.280 N 
ATOM     10  C   UNL     1      35.783 -21.735 -18.893  0.00  0.00    +0.250 C 
ATOM     11  H   UNL     1      34.143 -20.761 -19.598  0.00  0.00    +0.155 HD
BRANCH   9  12
ATOM     12  C   UNL     1      35.638 -20.103 -20.832  0.00  0.00    +0.050 C 
ATOM     13  C   UNL     1      34.967 -20.063 -22.055  0.00  0.00    +0.019 C 
ATOM     14  C   UNL     1      35.488 -19.316 -23.111  0.00  0.00    +0.073 C 
ATOM     15  C   UNL     1      36.829 -19.396 -20.666  0.00  0.00    +0.015 C 
ATOM     16  C   UNL     1      36.680 -18.609 -22.945  0.00  0.00    +0.004 C 
ATOM     17  C   UNL     1      37.349 -18.650 -21.723  0.00  0.00    +0.001 C 
BRANCH  14  21
ATOM     18  F   UNL     1      34.976 -20.380 -25.192  0.00  0.00    -0.166 F 
ATOM     19  F   UNL     1      33.415 -19.169 -24.295  0.00  0.00    -0.166 F 
ATOM     20  F   UNL     1      35.152 -18.213 -25.190  0.00  0.00    -0.166 F 
ATOM     21  C   UNL     1      34.772 -19.273 -24.418  0.00  0.00    +0.419 C 
ENDBRANCH  14  21
ENDBRANCH   9  12
ENDBRANCH   3  10
BRANCH   1  22
ATOM     22  N   UNL     1      35.240 -23.278 -14.285  0.00  0.00    -0.312 N 
ATOM     23  H   UNL     1      34.897 -22.626 -13.632  0.00  0.00    +0.152 HD
BRANCH  22  25
ATOM     24  N   UNL     1      36.775 -25.707 -11.966  0.00  0.00    -0.241 NA
ATOM     25  C   UNL     1      36.170 -24.185 -13.743  0.00  0.00    +0.068 C 
ATOM     26  C   UNL     1      37.363 -24.467 -14.400  0.00  0.00    +0.022 C 
ATOM     27  C   UNL     1      35.926 -24.826 -12.540  0.00  0.00    +0.113 C 
ATOM     28  C   UNL     1      38.262 -25.369 -13.841  0.00  0.00    +0.073 C 
ATOM     29  C   UNL     1      37.924 -25.956 -12.633  0.00  0.00    +0.103 C 
BRANCH  28  32
ATOM     30  O   UNL     1      40.315 -26.509 -14.023  0.00  0.00    -0.270 OA
ATOM     31  N   UNL     1      39.794 -25.043 -15.708  0.00  0.00    -0.325 N 
ATOM     32  C   UNL     1      39.516 -25.684 -14.502  0.00  0.00    +0.244 C 
ATOM     33  H   UNL     1      40.634 -25.233 -16.184  0.00  0.00    +0.145 HD
ATOM     34  H   UNL     1      39.148 -24.402 -16.085  0.00  0.00    +0.145 HD
ENDBRANCH  28  32
ENDBRANCH  22  25
ENDBRANCH   1  22
TORSDOF 6
ENDMDL
MODEL 3
REMARK VINA RESULT:     -13.5      5.099      9.527
REMARK  Name = 24875320
REMARK  6 active torsions:
REMARK  status: ('A' for Active; 'I' for Inactive)
REMARK    1  A    between atoms: C_1  and  N_22
REMARK    2  A    between atoms: C_3  and  C_10
REMARK    3  A    between atoms: N_9  and  C_12
REMARK    4  A    between atoms: C_14  and  C_21
REMARK    5  A    between atoms: N_22  and  C_25
REMARK    6  A    between atoms: C_28  and  C_32
REMARK                            x       y       z     vdW  Elec       q    Type
REMARK                         _______ _______ _______ _____ _____    ______ ____
ROOT
ATOM      1  C   UNL     1      34.197 -14.799 -24.385  0.00  0.00    +0.044 C 
ATOM      2  C   UNL     1      33.536 -14.929 -25.606  0.00  0.00    -0.008 C 
ATOM      3  C   UNL     1      34.520 -17.193 -24.305  0.00  0.00    +0.055 C 
ATOM      4  C   UNL     1      34.688 -15.931 -23.734  0.00  0.00    +0.019 C 
ATOM      5  C   UNL     1      33.368 -16.190 -26.177  0.00  0.00    -0.003 C 
ATOM      6  C   UNL     1      33.859 -17.322 -25.526  0.00  0.00    +0.004 C 
ATOM      7  C   UNL     1      33.001 -13.734 -26.326  0.00  0.00    +0.032 C 
ENDROOT
BRANCH   3  10
ATOM      8  O   UNL     1      35.366 -19.359 -24.301  0.00  0.00    -0.270 OA
ATOM      9  N   UNL     1      35.082 -18.299 -22.227  0.00  0.00    -0.280 N 
ATOM     10  C   UNL     1      35.031 -18.372 -23.626  0.00  0.00    +0.250 C 
ATOM     11  H   UNL     1      34.783 -17.448 -21.831  0.00  0.00    +0.155 HD
BRANCH   9  12
ATOM     12  C   UNL     1      35.507 -19.289 -21.307  0.00  0.00    +0.050 C 
ATOM     13  C   UNL     1      34.579 -20.171 -20.752  0.00  0.00    +0.019 C 
ATOM     14  C   UNL     1      34.998 -21.145 -19.846  0.00  0.00    +0.073 C 
ATOM     15  C   UNL     1      36.854 -19.383 -20.956  0.00  0.00    +0.015 C 
ATOM     16  C   UNL     1      36.345 -21.238 -19.495  0.00  0.00    +0.004 C 
ATOM     17  C   UNL     1      37.272 -20.357 -20.050  0.00  0.00    +0.001 C 
BRANCH  14  21
ATOM     18  F   UNL     1      33.921 -23.280 -19.912  0.00  0.00    -0.166 F 
ATOM     19  F   UNL     1      34.276 -22.416 -17.954  0.00  0.00    -0.166 F 
ATOM     20  F   UNL     1      32.739 -21.581 -19.247  0.00  0.00    -0.166 F 
ATOM     21  C   UNL     1      34.007 -22.087 -19.253  0.00  0.00    +0.419 C 
ENDBRANCH  14  21
ENDBRANCH   9  12
ENDBRANCH   3  10
BRANCH   1  22
ATOM     22  N   UNL     1      34.378 -13.530 -23.792  0.00  0.00    -0.312 N 
ATOM     23  H   UNL     1      35.307 -13.206 -23.826  0.00  0.00    +0.152 HD
BRANCH  22  25
ATOM     24  N   UNL     1      31.779 -12.258 -21.498  0.00  0.00    -0.241 NA
ATOM     25  C   UNL     1      33.489 -12.638 -23.163  0.00  0.00    +0.068 C 
ATOM     26  C   UNL     1      33.425 -11.302 -23.545  0.00  0.00    +0.022 C 
ATOM     27  C   UNL     1      32.653 -13.062 -22.144  0.00  0.00    +0.113 C 
ATOM     28  C   UNL     1      32.539 -10.444 -22.903  0.00  0.00    +0.073 C 
ATOM     29  C   UNL     1      31.744 -10.966 -21.896  0.00  0.00    +0.103 C 
BRANCH  28  32
ATOM     30  O   UNL     1      31.359  -8.521 -23.582  0.00  0.00    -0.270 OA
ATOM     31  N   UNL     1      33.620  -8.292 -23.272  0.00  0.00    -0.325 N 
ATOM     32  C   UNL     1      32.447  -9.044 -23.279  0.00  0.00    +0.244 C 
ATOM     33  H   UNL     1      33.595  -7.340 -23.520  0.00  0.00    +0.145 HD
ATOM     34  H   UNL     1      34.473  -8.712 -23.017  0.00  0.00    +0.145 HD
ENDBRANCH  28  32
ENDBRANCH  22  25
ENDBRANCH   1  22
TORSDOF 6
ENDMDL
MODEL 4
REMARK VINA RESULT:     -13.4      4.279      7.924
REMARK  Name = 24875320
REMARK  6 active torsions:
REMARK  status: ('A' for Active; 'I' for Inactive)
REMARK    1  A    between atoms: C_1  and  N_22
REMARK    2  A    between atoms: C_3  and  C_10
REMARK    3  A    between atoms: N_9  and  C_12
REMARK    4  A    between atoms: C_14  and  C_21
REMARK    5  A    between atoms: N_22  and  C_25
REMARK    6  A    between atoms: C_28  and  C_32
REMARK                            x       y       z     vdW  Elec       q    Type
REMARK                         _______ _______ _______ _____ _____    ______ ____
ROOT
ATOM      1  C   UNL     1      34.662 -22.780 -17.641  0.00  0.00    +0.044 C 
ATOM      2  C   UNL     1      35.999 -22.611 -17.281  0.00  0.00    -0.008 C 
ATOM      3  C   UNL     1      34.964 -21.246 -19.483  0.00  0.00    +0.055 C 
ATOM      4  C   UNL     1      34.145 -22.097 -18.741  0.00  0.00    +0.019 C 
ATOM      5  C   UNL     1      36.819 -21.760 -18.023  0.00  0.00    -0.003 C 
ATOM      6  C   UNL     1      36.301 -21.077 -19.123  0.00  0.00    +0.004 C 
ATOM      7  C   UNL     1      36.581 -23.331 -16.108  0.00  0.00    +0.032 C 
ENDROOT
BRANCH   3  10
ATOM      8  O   UNL     1      33.241 -20.723 -20.956  0.00  0.00    -0.270 OA
ATOM      9  N   UNL     1      35.317 -19.685 -21.299  0.00  0.00    -0.280 N 
ATOM     10  C   UNL     1      34.424 -20.533 -20.629  0.00  0.00    +0.250 C 
ATOM     11  H   UNL     1      36.226 -19.636 -20.922  0.00  0.00    +0.155 HD
BRANCH   9  12
ATOM     12  C   UNL     1      35.085 -18.891 -22.449  0.00  0.00    +0.050 C 
ATOM     13  C   UNL     1      34.929 -17.510 -22.324  0.00  0.00    +0.019 C 
ATOM     14  C   UNL     1      34.700 -16.728 -23.455  0.00  0.00    +0.073 C 
ATOM     15  C   UNL     1      35.012 -19.489 -23.707  0.00  0.00    +0.015 C 
ATOM     16  C   UNL     1      34.627 -17.327 -24.714  0.00  0.00    +0.004 C 
ATOM     17  C   UNL     1      34.783 -18.707 -24.838  0.00  0.00    +0.001 C 
BRANCH  14  21
ATOM     18  F   UNL     1      33.229 -14.851 -23.270  0.00  0.00    -0.166 F 
ATOM     19  F   UNL     1      35.110 -14.737 -22.196  0.00  0.00    -0.166 F 
ATOM     20  F   UNL     1      35.087 -14.566 -24.364  0.00  0.00    -0.166 F 
ATOM     21  C   UNL     1      34.533 -15.253 -23.322  0.00  0.00    +0.419 C 
ENDBRANCH  14  21
ENDBRANCH   9  12
ENDBRANCH   3  10
BRANCH   1  22
ATOM     22  N   UNL     1      33.818 -23.638 -16.902  0.00  0.00    -0.312 N 
ATOM     23  H   UNL     1      34.109 -24.579 -16.907  0.00  0.00    +0.152 HD
BRANCH  22  25
ATOM     24  N   UNL     1      31.596 -23.035 -14.015  0.00  0.00    -0.241 NA
ATOM     25  C   UNL     1      32.643 -23.412 -16.161  0.00  0.00    +0.068 C 
ATOM     26  C   UNL     1      31.404 -23.339 -16.787  0.00  0.00    +0.022 C 
ATOM     27  C   UNL     1      32.685 -23.255 -14.785  0.00  0.00    +0.113 C 
ATOM     28  C   UNL     1      30.260 -23.113 -16.029  0.00  0.00    +0.073 C 
ATOM     29  C   UNL     1      30.409 -22.970 -14.659  0.00  0.00    +0.103 C 
BRANCH  28  32
ATOM     30  O   UNL     1      28.428 -21.935 -16.925  0.00  0.00    -0.270 OA
ATOM     31  N   UNL     1      28.302 -24.225 -16.957  0.00  0.00    -0.325 N 
ATOM     32  C   UNL     1      28.952 -23.031 -16.653  0.00  0.00    +0.244 C 
ATOM     33  H   UNL     1      27.413 -24.207 -17.381  0.00  0.00    +0.145 HD
ATOM     34  H   UNL     1      28.731 -25.086 -16.750  0.00  0.00    +0.145 HD
ENDBRANCH  28  32
ENDBRANCH  22  25
ENDBRANCH   1  22
TORSDOF 6
ENDMDL
MODEL 5
REMARK VINA RESULT:     -13.1      1.341      2.015
REMARK  Name = 24875320
REMARK  6 active torsions:
REMARK  status: ('A' for Active; 'I' for Inactive)
REMARK    1  A    between atoms: C_1  and  N_22
REMARK    2  A    between atoms: C_3  and  C_10
REMARK    3  A    between atoms: N_9  and  C_12
REMARK    4  A    between atoms: C_14  and  C_21
REMARK    5  A    between atoms: N_22  and  C_25
REMARK    6  A    between atoms: C_28  and  C_32
REMARK                            x       y       z     vdW  Elec       q    Type
REMARK                         _______ _______ _______ _____ _____    ______ ____
ROOT
ATOM      1  C   UNL     1      34.952 -17.831 -23.183  0.00  0.00    +0.044 C 
ATOM      2  C   UNL     1      34.746 -18.346 -24.463  0.00  0.00    -0.008 C 
ATOM      3  C   UNL     1      34.236 -15.652 -23.946  0.00  0.00    +0.055 C 
ATOM      4  C   UNL     1      34.698 -16.484 -22.925  0.00  0.00    +0.019 C 
ATOM      5  C   UNL     1      34.285 -17.515 -25.484  0.00  0.00    -0.003 C 
ATOM      6  C   UNL     1      34.031 -16.168 -25.226  0.00  0.00    +0.004 C 
ATOM      7  C   UNL     1      35.009 -19.785 -24.768  0.00  0.00    +0.032 C 
ENDROOT
BRANCH   3  10
ATOM      8  O   UNL     1      34.553 -13.384 -24.354  0.00  0.00    -0.270 OA
ATOM      9  N   UNL     1      33.076 -13.984 -22.632  0.00  0.00    -0.280 N 
ATOM     10  C   UNL     1      33.972 -14.248 -23.677  0.00  0.00    +0.250 C 
ATOM     11  H   UNL     1      32.693 -14.774 -22.185  0.00  0.00    +0.155 HD
BRANCH   9  12
ATOM     12  C   UNL     1      32.650 -12.729 -22.132  0.00  0.00    +0.050 C 
ATOM     13  C   UNL     1      32.871 -11.569 -22.876  0.00  0.00    +0.019 C 
ATOM     14  C   UNL     1      32.452 -10.334 -22.384  0.00  0.00    +0.073 C 
ATOM     15  C   UNL     1      32.008 -12.652 -20.896  0.00  0.00    +0.015 C 
ATOM     16  C   UNL     1      31.810 -10.257 -21.147  0.00  0.00    +0.004 C 
ATOM     17  C   UNL     1      31.588 -11.416 -20.404  0.00  0.00    +0.001 C 
BRANCH  14  21
ATOM     18  F   UNL     1      32.466  -7.943 -22.478  0.00  0.00    -0.166 F 
ATOM     19  F   UNL     1      33.966  -8.983 -23.649  0.00  0.00    -0.166 F 
ATOM     20  F   UNL     1      31.885  -9.014 -24.279  0.00  0.00    -0.166 F 
ATOM     21  C   UNL     1      32.688  -9.094 -23.178  0.00  0.00    +0.419 C 
ENDBRANCH  14  21
ENDBRANCH   9  12
ENDBRANCH   3  10
BRANCH   1  22
ATOM     22  N   UNL     1      35.417 -18.658 -22.138  0.00  0.00    -0.312 N 
ATOM     23  H   UNL     1      36.382 -18.568 -21.960  0.00  0.00    +0.152 HD
BRANCH  22  25
ATOM     24  N   UNL     1      32.721 -20.645 -20.583  0.00  0.00    -0.241 NA
ATOM     25  C   UNL     1      34.773 -19.587 -21.299  0.00  0.00    +0.068 C 
ATOM     26  C   UNL     1      35.493 -20.348 -20.385  0.00  0.00    +0.022 C 
ATOM     27  C   UNL     1      33.401 -19.771 -21.358  0.00  0.00    +0.113 C 
ATOM     28  C   UNL     1      34.829 -21.258 -19.570  0.00  0.00    +0.073 C 
ATOM     29  C   UNL     1      33.454 -21.368 -19.706  0.00  0.00    +0.103 C 
BRANCH  28  32
ATOM     30  O   UNL     1      35.018 -23.039 -18.041  0.00  0.00    -0.270 OA
ATOM     31  N   UNL     1      36.879 -21.733 -18.343  0.00  0.00    -0.325 N 
ATOM     32  C   UNL     1      35.552 -22.067 -18.606  0.00  0.00    +0.244 C 
ATOM     33  H   UNL     1      37.400 -22.260 -17.695  0.00  0.00    +0.145 HD
ATOM     34  H   UNL     1      37.296 -20.971 -18.806  0.00  0.00    +0.145 HD
ENDBRANCH  28  32
ENDBRANCH  22  25
ENDBRANCH   1  22
TORSDOF 6
ENDMDL
MODEL 6
REMARK VINA RESULT:     -13.1      1.487      2.048
REMARK  Name = 24875320
REMARK  6 active torsions:
REMARK  status: ('A' for Active; 'I' for Inactive)
REMARK    1  A    between atoms: C_1  and  N_22
REMARK    2  A    between atoms: C_3  and  C_10
REMARK    3  A    between atoms: N_9  and  C_12
REMARK    4  A    between atoms: C_14  and  C_21
REMARK    5  A    between atoms: N_22  and  C_25
REMARK    6  A    between atoms: C_28  and  C_32
REMARK                            x       y       z     vdW  Elec       q    Type
REMARK                         _______ _______ _______ _____ _____    ______ ____
ROOT
ATOM      1  C   UNL     1      35.192 -17.023 -23.602  0.00  0.00    +0.044 C 
ATOM      2  C   UNL     1      34.662 -17.813 -24.622  0.00  0.00    -0.008 C 
ATOM      3  C   UNL     1      34.003 -15.107 -24.470  0.00  0.00    +0.055 C 
ATOM      4  C   UNL     1      34.863 -15.670 -23.527  0.00  0.00    +0.019 C 
ATOM      5  C   UNL     1      33.803 -17.251 -25.566  0.00  0.00    -0.003 C 
ATOM      6  C   UNL     1      33.474 -15.897 -25.491  0.00  0.00    +0.004 C 
ATOM      7  C   UNL     1      34.996 -19.266 -24.727  0.00  0.00    +0.032 C 
ENDROOT
BRANCH   3  10
ATOM      8  O   UNL     1      33.777 -12.990 -25.407  0.00  0.00    -0.270 OA
ATOM      9  N   UNL     1      33.240 -13.238 -23.136  0.00  0.00    -0.280 N 
ATOM     10  C   UNL     1      33.661 -13.696 -24.392  0.00  0.00    +0.250 C 
ATOM     11  H   UNL     1      33.197 -13.917 -22.425  0.00  0.00    +0.155 HD
BRANCH   9  12
ATOM     12  C   UNL     1      32.868 -11.924 -22.756  0.00  0.00    +0.050 C 
ATOM     13  C   UNL     1      32.315 -11.692 -21.496  0.00  0.00    +0.019 C 
ATOM     14  C   UNL     1      31.950 -10.399 -21.123  0.00  0.00    +0.073 C 
ATOM     15  C   UNL     1      33.054 -10.863 -23.642  0.00  0.00    +0.015 C 
ATOM     16  C   UNL     1      32.136  -9.338 -22.010  0.00  0.00    +0.004 C 
ATOM     17  C   UNL     1      32.688  -9.570 -23.269  0.00  0.00    +0.001 C 
BRANCH  14  21
ATOM     18  F   UNL     1      31.933 -10.887 -18.781  0.00  0.00    -0.166 F 
ATOM     19  F   UNL     1      31.466  -8.851 -19.365  0.00  0.00    -0.166 F 
ATOM     20  F   UNL     1      30.026 -10.441 -19.726  0.00  0.00    -0.166 F 
ATOM     21  C   UNL     1      31.359 -10.150 -19.777  0.00  0.00    +0.419 C 
ENDBRANCH  14  21
ENDBRANCH   9  12
ENDBRANCH   3  10
BRANCH   1  22
ATOM     22  N   UNL     1      36.063 -17.576 -22.638  0.00  0.00    -0.312 N 
ATOM     23  H   UNL     1      36.932 -17.118 -22.580  0.00  0.00    +0.152 HD
BRANCH  22  25
ATOM     24  N   UNL     1      36.974 -20.200 -20.205  0.00  0.00    -0.241 NA
ATOM     25  C   UNL     1      35.931 -18.655 -21.743  0.00  0.00    +0.068 C 
ATOM     26  C   UNL     1      34.692 -19.238 -21.501  0.00  0.00    +0.022 C 
ATOM     27  C   UNL     1      37.031 -19.169 -21.076  0.00  0.00    +0.113 C 
ATOM     28  C   UNL     1      34.593 -20.301 -20.610  0.00  0.00    +0.073 C 
ATOM     29  C   UNL     1      35.753 -20.742 -19.994  0.00  0.00    +0.103 C 
BRANCH  28  32
ATOM     30  O   UNL     1      32.242 -20.418 -20.707  0.00  0.00    -0.270 OA
ATOM     31  N   UNL     1      33.321 -22.147 -19.656  0.00  0.00    -0.325 N 
ATOM     32  C   UNL     1      33.314 -20.931 -20.336  0.00  0.00    +0.244 C 
ATOM     33  H   UNL     1      32.473 -22.603 -19.453  0.00  0.00    +0.145 HD
ATOM     34  H   UNL     1      34.176 -22.551 -19.379  0.00  0.00    +0.145 HD
ENDBRANCH  28  32
ENDBRANCH  22  25
ENDBRANCH   1  22
TORSDOF 6
ENDMDL
MODEL 7
REMARK VINA RESULT:     -12.7      5.264      9.675
REMARK  Name = 24875320
REMARK  6 active torsions:
REMARK  status: ('A' for Active; 'I' for Inactive)
REMARK    1  A    between atoms: C_1  and  N_22
REMARK    2  A    between atoms: C_3  and  C_10
REMARK    3  A    between atoms: N_9  and  C_12
REMARK    4  A    between atoms: C_14  and  C_21
REMARK    5  A    between atoms: N_22  and  C_25
REMARK    6  A    between atoms: C_28  and  C_32
REMARK                            x       y       z     vdW  Elec       q    Type
REMARK                         _______ _______ _______ _____ _____    ______ ____
ROOT
ATOM      1  C   UNL     1      33.027 -14.028 -23.531  0.00  0.00    +0.044 C 
ATOM      2  C   UNL     1      33.445 -14.249 -24.843  0.00  0.00    -0.008 C 
ATOM      3  C   UNL     1      34.371 -15.895 -22.790  0.00  0.00    +0.055 C 
ATOM      4  C   UNL     1      33.490 -14.851 -22.505  0.00  0.00    +0.019 C 
ATOM      5  C   UNL     1      34.326 -15.291 -25.129  0.00  0.00    -0.003 C 
ATOM      6  C   UNL     1      34.788 -16.115 -24.103  0.00  0.00    +0.004 C 
ATOM      7  C   UNL     1      32.967 -13.382 -25.962  0.00  0.00    +0.032 C 
ENDROOT
BRANCH   3  10
ATOM      8  O   UNL     1      35.097 -16.254 -20.610  0.00  0.00    -0.270 OA
ATOM      9  N   UNL     1      35.024 -18.105 -22.050  0.00  0.00    -0.280 N 
ATOM     10  C   UNL     1      34.852 -16.753 -21.720  0.00  0.00    +0.250 C 
ATOM     11  H   UNL     1      34.786 -18.353 -22.973  0.00  0.00    +0.155 HD
BRANCH   9  12
ATOM     12  C   UNL     1      35.495 -19.160 -21.231  0.00  0.00    +0.050 C 
ATOM     13  C   UNL     1      34.595 -20.075 -20.683  0.00  0.00    +0.019 C 
ATOM     14  C   UNL     1      35.060 -21.113 -19.876  0.00  0.00    +0.073 C 
ATOM     15  C   UNL     1      36.860 -19.284 -20.971  0.00  0.00    +0.015 C 
ATOM     16  C   UNL     1      36.426 -21.237 -19.617  0.00  0.00    +0.004 C 
ATOM     17  C   UNL     1      37.325 -20.322 -20.164  0.00  0.00    +0.001 C 
BRANCH  14  21
ATOM     18  F   UNL     1      34.012 -23.260 -19.990  0.00  0.00    -0.166 F 
ATOM     19  F   UNL     1      34.407 -22.461 -18.013  0.00  0.00    -0.166 F 
ATOM     20  F   UNL     1      32.825 -21.604 -19.233  0.00  0.00    -0.166 F 
ATOM     21  C   UNL     1      34.099 -22.090 -19.291  0.00  0.00    +0.419 C 
ENDBRANCH  14  21
ENDBRANCH   9  12
ENDBRANCH   3  10
BRANCH   1  22
ATOM     22  N   UNL     1      32.137 -12.976 -23.223  0.00  0.00    -0.312 N 
ATOM     23  H   UNL     1      31.188 -13.215 -23.333  0.00  0.00    +0.152 HD
BRANCH  22  25
ATOM     24  N   UNL     1      33.231  -9.449 -23.232  0.00  0.00    -0.241 NA
ATOM     25  C   UNL     1      32.340 -11.652 -22.790  0.00  0.00    +0.068 C 
ATOM     26  C   UNL     1      31.880 -11.226 -21.549  0.00  0.00    +0.022 C 
ATOM     27  C   UNL     1      33.004 -10.733 -23.587  0.00  0.00    +0.113 C 
ATOM     28  C   UNL     1      32.094  -9.911 -21.149  0.00  0.00    +0.073 C 
ATOM     29  C   UNL     1      32.770  -9.070 -22.019  0.00  0.00    +0.103 C 
BRANCH  28  32
ATOM     30  O   UNL     1      30.894 -10.133 -19.135  0.00  0.00    -0.270 OA
ATOM     31  N   UNL     1      32.041  -8.172 -19.444  0.00  0.00    -0.325 N 
ATOM     32  C   UNL     1      31.627  -9.435 -19.859  0.00  0.00    +0.244 C 
ATOM     33  H   UNL     1      31.743  -7.817 -18.576  0.00  0.00    +0.145 HD
ATOM     34  H   UNL     1      32.632  -7.633 -20.020  0.00  0.00    +0.145 HD
ENDBRANCH  28  32
ENDBRANCH  22  25
ENDBRANCH   1  22
TORSDOF 6
ENDMDL
MODEL 8
REMARK VINA RESULT:     -12.7      4.734     10.584
REMARK  Name = 24875320
REMARK  6 active torsions:
REMARK  status: ('A' for Active; 'I' for Inactive)
REMARK    1  A    between atoms: C_1  and  N_22
REMARK    2  A    between atoms: C_3  and  C_10
REMARK    3  A    between atoms: N_9  and  C_12
REMARK    4  A    between atoms: C_14  and  C_21
REMARK    5  A    between atoms: N_22  and  C_25
REMARK    6  A    between atoms: C_28  and  C_32
REMARK                            x       y       z     vdW  Elec       q    Type
REMARK                         _______ _______ _______ _____ _____    ______ ____
ROOT
ATOM      1  C   UNL     1      31.988 -10.257 -22.105  0.00  0.00    +0.044 C 
ATOM      2  C   UNL     1      31.900  -9.906 -20.758  0.00  0.00    -0.008 C 
ATOM      3  C   UNL     1      32.438 -12.547 -21.479  0.00  0.00    +0.055 C 
ATOM      4  C   UNL     1      32.258 -11.577 -22.465  0.00  0.00    +0.019 C 
ATOM      5  C   UNL     1      32.080 -10.875 -19.772  0.00  0.00    -0.003 C 
ATOM      6  C   UNL     1      32.349 -12.195 -20.132  0.00  0.00    +0.004 C 
ATOM      7  C   UNL     1      31.611  -8.499 -20.344  0.00  0.00    +0.032 C 
ENDROOT
BRANCH   3  10
ATOM      8  O   UNL     1      32.181 -14.844 -21.219  0.00  0.00    -0.270 OA
ATOM      9  N   UNL     1      33.617 -14.095 -22.918  0.00  0.00    -0.280 N 
ATOM     10  C   UNL     1      32.720 -13.923 -21.854  0.00  0.00    +0.250 C 
ATOM     11  H   UNL     1      33.962 -13.268 -23.325  0.00  0.00    +0.155 HD
BRANCH   9  12
ATOM     12  C   UNL     1      34.093 -15.304 -23.482  0.00  0.00    +0.050 C 
ATOM     13  C   UNL     1      34.803 -16.211 -22.695  0.00  0.00    +0.019 C 
ATOM     14  C   UNL     1      35.272 -17.401 -23.251  0.00  0.00    +0.073 C 
ATOM     15  C   UNL     1      33.852 -15.588 -24.827  0.00  0.00    +0.015 C 
ATOM     16  C   UNL     1      35.031 -17.684 -24.596  0.00  0.00    +0.004 C 
ATOM     17  C   UNL     1      34.321 -16.778 -25.383  0.00  0.00    +0.001 C 
BRANCH  14  21
ATOM     18  F   UNL     1      37.320 -18.557 -22.816  0.00  0.00    -0.166 F 
ATOM     19  F   UNL     1      36.121 -18.000 -21.097  0.00  0.00    -0.166 F 
ATOM     20  F   UNL     1      35.465 -19.613 -22.401  0.00  0.00    -0.166 F 
ATOM     21  C   UNL     1      36.030 -18.370 -22.409  0.00  0.00    +0.419 C 
ENDBRANCH  14  21
ENDBRANCH   9  12
ENDBRANCH   3  10
BRANCH   1  22
ATOM     22  N   UNL     1      31.807  -9.289 -23.117  0.00  0.00    -0.312 N 
ATOM     23  H   UNL     1      30.965  -9.390 -23.617  0.00  0.00    +0.152 HD
BRANCH  22  25
ATOM     24  N   UNL     1      34.794  -7.280 -23.944  0.00  0.00    -0.241 NA
ATOM     25  C   UNL     1      32.596  -8.207 -23.552  0.00  0.00    +0.068 C 
ATOM     26  C   UNL     1      32.010  -7.031 -24.007  0.00  0.00    +0.022 C 
ATOM     27  C   UNL     1      33.979  -8.280 -23.540  0.00  0.00    +0.113 C 
ATOM     28  C   UNL     1      32.815  -5.979 -24.432  0.00  0.00    +0.073 C 
ATOM     29  C   UNL     1      34.189  -6.152 -24.380  0.00  0.00    +0.103 C 
BRANCH  28  32
ATOM     30  O   UNL     1      32.854  -3.987 -25.687  0.00  0.00    -0.270 OA
ATOM     31  N   UNL     1      30.945  -4.418 -24.492  0.00  0.00    -0.325 N 
ATOM     32  C   UNL     1      32.234  -4.738 -24.912  0.00  0.00    +0.244 C 
ATOM     33  H   UNL     1      30.520  -3.585 -24.798  0.00  0.00    +0.145 HD
ATOM     34  H   UNL     1      30.459  -5.026 -23.889  0.00  0.00    +0.145 HD
ENDBRANCH  28  32
ENDBRANCH  22  25
ENDBRANCH   1  22
TORSDOF 6
ENDMDL
MODEL 9
REMARK VINA RESULT:     -12.6      6.902     10.382
REMARK  Name = 24875320
REMARK  6 active torsions:
REMARK  status: ('A' for Active; 'I' for Inactive)
REMARK    1  A    between atoms: C_1  and  N_22
REMARK    2  A    between atoms: C_3  and  C_10
REMARK    3  A    between atoms: N_9  and  C_12
REMARK    4  A    between atoms: C_14  and  C_21
REMARK    5  A    between atoms: N_22  and  C_25
REMARK    6  A    between atoms: C_28  and  C_32
REMARK                            x       y       z     vdW  Elec       q    Type
REMARK                         _______ _______ _______ _____ _____    ______ ____
ROOT
ATOM      1  C   UNL     1      35.647 -24.325 -14.826  0.00  0.00    +0.044 C 
ATOM      2  C   UNL     1      36.916 -24.725 -14.409  0.00  0.00    -0.008 C 
ATOM      3  C   UNL     1      36.648 -22.813 -16.423  0.00  0.00    +0.055 C 
ATOM      4  C   UNL     1      35.513 -23.369 -15.832  0.00  0.00    +0.019 C 
ATOM      5  C   UNL     1      38.052 -24.170 -14.999  0.00  0.00    -0.003 C 
ATOM      6  C   UNL     1      37.918 -23.213 -16.006  0.00  0.00    +0.004 C 
ATOM      7  C   UNL     1      37.090 -25.748 -13.333  0.00  0.00    +0.032 C 
ENDROOT
BRANCH   3  10
ATOM      8  O   UNL     1      37.277 -20.842 -17.484  0.00  0.00    -0.270 OA
ATOM      9  N   UNL     1      35.473 -22.037 -18.391  0.00  0.00    -0.280 N 
ATOM     10  C   UNL     1      36.508 -21.816 -17.472  0.00  0.00    +0.250 C 
ATOM     11  H   UNL     1      34.945 -22.856 -18.253  0.00  0.00    +0.155 HD
BRANCH   9  12
ATOM     12  C   UNL     1      35.086 -21.233 -19.492  0.00  0.00    +0.050 C 
ATOM     13  C   UNL     1      36.037 -20.466 -20.166  0.00  0.00    +0.019 C 
ATOM     14  C   UNL     1      35.656 -19.676 -21.250  0.00  0.00    +0.073 C 
ATOM     15  C   UNL     1      33.754 -21.210 -19.904  0.00  0.00    +0.015 C 
ATOM     16  C   UNL     1      34.322 -19.652 -21.661  0.00  0.00    +0.004 C 
ATOM     17  C   UNL     1      33.372 -20.419 -20.987  0.00  0.00    +0.001 C 
BRANCH  14  21
ATOM     18  F   UNL     1      37.951 -19.071 -21.544  0.00  0.00    -0.166 F 
ATOM     19  F   UNL     1      36.701 -19.082 -23.317  0.00  0.00    -0.166 F 
ATOM     20  F   UNL     1      36.460 -17.515 -21.828  0.00  0.00    -0.166 F 
ATOM     21  C   UNL     1      36.672 -18.856 -21.969  0.00  0.00    +0.419 C 
ENDBRANCH  14  21
ENDBRANCH   9  12
ENDBRANCH   3  10
BRANCH   1  22
ATOM     22  N   UNL     1      34.487 -24.877 -14.240  0.00  0.00    -0.312 N 
ATOM     23  H   UNL     1      34.674 -25.584 -13.580  0.00  0.00    +0.152 HD
BRANCH  22  25
ATOM     24  N   UNL     1      30.848 -24.860 -13.613  0.00  0.00    -0.241 NA
ATOM     25  C   UNL     1      33.115 -24.616 -14.415  0.00  0.00    +0.068 C 
ATOM     26  C   UNL     1      32.658 -23.888 -15.508  0.00  0.00    +0.022 C 
ATOM     27  C   UNL     1      32.178 -25.076 -13.504  0.00  0.00    +0.113 C 
ATOM     28  C   UNL     1      31.297 -23.644 -15.654  0.00  0.00    +0.073 C 
ATOM     29  C   UNL     1      30.440 -24.148 -14.688  0.00  0.00    +0.103 C 
BRANCH  28  32
ATOM     30  O   UNL     1      31.552 -22.391 -17.632  0.00  0.00    -0.270 OA
ATOM     31  N   UNL     1      29.407 -22.748 -16.903  0.00  0.00    -0.325 N 
ATOM     32  C   UNL     1      30.788 -22.888 -16.784  0.00  0.00    +0.244 C 
ATOM     33  H   UNL     1      29.026 -22.241 -17.657  0.00  0.00    +0.145 HD
ATOM     34  H   UNL     1      28.811 -23.156 -16.234  0.00  0.00    +0.145 HD
ENDBRANCH  28  32
ENDBRANCH  22  25
ENDBRANCH   1  22
TORSDOF 6
ENDMDL
