MODEL 1
REMARK VINA RESULT:     -16.0      0.000      0.000
REMARK  Name = 11952989
REMARK  5 active torsions:
REMARK  status: ('A' for Active; 'I' for Inactive)
REMARK    1  A    between atoms: C_4  and  C_21
REMARK    2  A    between atoms: C_6  and  C_11
REMARK    3  A    between atoms: C_24  and  C_27
REMARK    4  A    between atoms: C_27  and  C_29
REMARK    5  A    between atoms: C_29  and  O_30
REMARK                            x       y       z     vdW  Elec       q    Type
REMARK                         _______ _______ _______ _____ _____    ______ ____
ROOT
ATOM      1  N   UNL     1      33.803 -14.917 -26.307  0.00  0.00    -0.297 N 
ATOM      2  N   UNL     1      34.807 -17.055 -25.833  0.00  0.00    -0.229 NA
ATOM      3  C   UNL     1      33.982 -15.473 -24.152  0.00  0.00    +0.033 C 
ATOM      4  C   UNL     1      33.372 -14.193 -24.248  0.00  0.00    +0.017 C 
ATOM      5  C   UNL     1      34.237 -15.897 -25.453  0.00  0.00    +0.132 C 
ATOM      6  C   UNL     1      34.945 -17.548 -23.446  0.00  0.00    +0.019 C 
ATOM      7  C   UNL     1      34.351 -16.335 -23.107  0.00  0.00    +0.004 C 
ATOM      8  C   UNL     1      33.276 -13.878 -25.586  0.00  0.00    +0.063 C 
ATOM      9  C   UNL     1      35.142 -17.846 -24.787  0.00  0.00    +0.100 C 
ATOM     10  H   UNL     1      33.861 -14.955 -27.290  0.00  0.00    +0.154 HD
ENDROOT
BRANCH   6  11
ATOM     11  C   UNL     1      35.350 -18.481 -22.416  0.00  0.00    +0.001 C 
ATOM     12  C   UNL     1      34.777 -20.218 -20.812  0.00  0.00    +0.000 C 
ATOM     13  C   UNL     1      34.401 -19.307 -21.813  0.00  0.00    +0.000 C 
ATOM     14  C   UNL     1      36.135 -20.291 -20.418  0.00  0.00    +0.000 C 
ATOM     15  C   UNL     1      36.685 -18.553 -22.029  0.00  0.00    +0.000 C 
ATOM     16  C   UNL     1      37.076 -19.452 -21.036  0.00  0.00    +0.000 C 
ATOM     17  C   UNL     1      33.835 -21.057 -20.194  0.00  0.00    +0.000 C 
ATOM     18  C   UNL     1      36.510 -21.202 -19.417  0.00  0.00    +0.000 C 
ATOM     19  C   UNL     1      34.228 -21.955 -19.201  0.00  0.00    +0.000 C 
ATOM     20  C   UNL     1      35.562 -22.028 -18.813  0.00  0.00    +0.000 C 
ENDBRANCH   6  11
BRANCH   4  21
ATOM     21  C   UNL     1      32.909 -13.313 -23.214  0.00  0.00    +0.001 C 
ATOM     22  C   UNL     1      32.783 -11.946 -23.466  0.00  0.00    -0.000 C 
ATOM     23  C   UNL     1      32.584 -13.821 -21.956  0.00  0.00    -0.000 C 
ATOM     24  C   UNL     1      32.008 -11.600 -21.204  0.00  0.00    -0.011 C 
ATOM     25  C   UNL     1      32.333 -11.090 -22.461  0.00  0.00    -0.004 C 
ATOM     26  C   UNL     1      32.133 -12.966 -20.952  0.00  0.00    -0.004 C 
BRANCH  24  27
ATOM     27  C   UNL     1      31.524 -10.683 -20.131  0.00  0.00    +0.136 C 
BRANCH  27  29
ATOM     28  O   UNL     1      31.644  -8.434 -21.055  0.00  0.00    -0.250 OA
ATOM     29  C   UNL     1      32.053  -9.269 -20.259  0.00  0.00    +0.318 C 
BRANCH  29  30
ATOM     30  O   UNL     1      33.054  -9.020 -19.374  0.00  0.00    -0.480 OA
ATOM     31  H   UNL     1      32.852  -8.692 -18.520  0.00  0.00    +0.295 HD
ENDBRANCH  29  30
ENDBRANCH  27  29
ENDBRANCH  24  27
ENDBRANCH   4  21
TORSDOF 5
ENDMDL
MODEL 2
REMARK VINA RESULT:     -13.7      3.860      8.782
REMARK  Name = 11952989
REMARK  5 active torsions:
REMARK  status: ('A' for Active; 'I' for Inactive)
REMARK    1  A    between atoms: C_4  and  C_21
REMARK    2  A    between atoms: C_6  and  C_11
REMARK    3  A    between atoms: C_24  and  C_27
REMARK    4  A    between atoms: C_27  and  C_29
REMARK    5  A    between atoms: C_29  and  O_30
REMARK                            x       y       z     vdW  Elec       q    Type
REMARK                         _______ _______ _______ _____ _____    ______ ____
ROOT
ATOM      1  N   UNL     1      35.212 -18.083 -25.660  0.00  0.00    -0.297 N 
ATOM      2  N   UNL     1      34.499 -15.782 -25.699  0.00  0.00    -0.229 NA
ATOM      3  C   UNL     1      34.491 -17.236 -23.724  0.00  0.00    +0.033 C 
ATOM      4  C   UNL     1      34.869 -18.590 -23.521  0.00  0.00    +0.017 C 
ATOM      5  C   UNL     1      34.717 -16.951 -25.068  0.00  0.00    +0.132 C 
ATOM      6  C   UNL     1      33.734 -14.973 -23.526  0.00  0.00    +0.019 C 
ATOM      7  C   UNL     1      33.979 -16.204 -22.922  0.00  0.00    +0.004 C 
ATOM      8  C   UNL     1      35.309 -19.085 -24.730  0.00  0.00    +0.063 C 
ATOM      9  C   UNL     1      34.006 -14.825 -24.879  0.00  0.00    +0.100 C 
ATOM     10  H   UNL     1      35.461 -18.164 -26.610  0.00  0.00    +0.154 HD
ENDROOT
BRANCH   6  11
ATOM     11  C   UNL     1      33.206 -13.868 -22.755  0.00  0.00    +0.001 C 
ATOM     12  C   UNL     1      32.675 -11.502 -22.568  0.00  0.00    +0.000 C 
ATOM     13  C   UNL     1      33.184 -12.585 -23.302  0.00  0.00    +0.000 C 
ATOM     14  C   UNL     1      32.182 -11.723 -21.260  0.00  0.00    +0.000 C 
ATOM     15  C   UNL     1      32.721 -14.087 -21.469  0.00  0.00    +0.000 C 
ATOM     16  C   UNL     1      32.212 -13.022 -20.725  0.00  0.00    +0.000 C 
ATOM     17  C   UNL     1      32.645 -10.203 -23.102  0.00  0.00    +0.000 C 
ATOM     18  C   UNL     1      31.673 -10.640 -20.525  0.00  0.00    +0.000 C 
ATOM     19  C   UNL     1      32.136  -9.139 -22.357  0.00  0.00    +0.000 C 
ATOM     20  C   UNL     1      31.651  -9.356 -21.071  0.00  0.00    +0.000 C 
ENDBRANCH   6  11
BRANCH   4  21
ATOM     21  C   UNL     1      34.838 -19.387 -22.329  0.00  0.00    +0.001 C 
ATOM     22  C   UNL     1      33.617 -19.804 -21.799  0.00  0.00    -0.000 C 
ATOM     23  C   UNL     1      36.030 -19.748 -21.698  0.00  0.00    -0.000 C 
ATOM     24  C   UNL     1      34.779 -20.939 -20.011  0.00  0.00    -0.011 C 
ATOM     25  C   UNL     1      33.587 -20.579 -20.640  0.00  0.00    -0.004 C 
ATOM     26  C   UNL     1      36.000 -20.523 -20.540  0.00  0.00    -0.004 C 
BRANCH  24  27
ATOM     27  C   UNL     1      34.746 -21.771 -18.772  0.00  0.00    +0.136 C 
BRANCH  27  29
ATOM     28  O   UNL     1      32.532 -22.610 -18.201  0.00  0.00    -0.250 OA
ATOM     29  C   UNL     1      33.613 -22.778 -18.750  0.00  0.00    +0.318 C 
BRANCH  29  30
ATOM     30  O   UNL     1      33.932 -23.915 -19.423  0.00  0.00    -0.480 OA
ATOM     31  H   UNL     1      33.412 -24.687 -19.312  0.00  0.00    +0.295 HD
ENDBRANCH  29  30
ENDBRANCH  27  29
ENDBRANCH  24  27
ENDBRANCH   4  21
TORSDOF 5
ENDMDL
MODEL 3
REMARK VINA RESULT:     -13.6      7.098     10.835
REMARK  Name = 11952989
REMARK  5 active torsions:
REMARK  status: ('A' for Active; 'I' for Inactive)
REMARK    1  A    between atoms: C_4  and  C_21
REMARK    2  A    between atoms: C_6  and  C_11
REMARK    3  A    between atoms: C_24  and  C_27
REMARK    4  A    between atoms: C_27  and  C_29
REMARK    5  A    between atoms: C_29  and  O_30
REMARK                            x       y       z     vdW  Elec       q    Type
REMARK                         _______ _______ _______ _____ _____    ______ ____
ROOT
ATOM      1  N   UNL     1      33.037 -25.255 -13.904  0.00  0.00    -0.297 N 
ATOM      2  N   UNL     1      35.026 -24.584 -15.086  0.00  0.00    -0.229 NA
ATOM      3  C   UNL     1      32.749 -23.834 -15.601  0.00  0.00    +0.033 C 
ATOM      4  C   UNL     1      31.484 -24.120 -15.020  0.00  0.00    +0.017 C 
ATOM      5  C   UNL     1      33.695 -24.557 -14.881  0.00  0.00    +0.132 C 
ATOM      6  C   UNL     1      34.581 -23.031 -16.917  0.00  0.00    +0.019 C 
ATOM      7  C   UNL     1      33.212 -23.038 -16.661  0.00  0.00    +0.004 C 
ATOM      8  C   UNL     1      31.693 -24.997 -13.978  0.00  0.00    +0.063 C 
ATOM      9  C   UNL     1      35.416 -23.801 -16.119  0.00  0.00    +0.100 C 
ATOM     10  H   UNL     1      33.465 -25.852 -13.246  0.00  0.00    +0.154 HD
ENDROOT
BRANCH   6  11
ATOM     11  C   UNL     1      35.122 -22.234 -17.996  0.00  0.00    +0.001 C 
ATOM     12  C   UNL     1      34.779 -20.924 -20.017  0.00  0.00    +0.000 C 
ATOM     13  C   UNL     1      34.270 -21.700 -18.963  0.00  0.00    +0.000 C 
ATOM     14  C   UNL     1      36.173 -20.686 -20.090  0.00  0.00    +0.000 C 
ATOM     15  C   UNL     1      36.492 -22.000 -18.068  0.00  0.00    +0.000 C 
ATOM     16  C   UNL     1      37.016 -21.231 -19.108  0.00  0.00    +0.000 C 
ATOM     17  C   UNL     1      33.937 -20.379 -21.000  0.00  0.00    +0.000 C 
ATOM     18  C   UNL     1      36.682 -19.910 -21.145  0.00  0.00    +0.000 C 
ATOM     19  C   UNL     1      34.461 -19.611 -22.040  0.00  0.00    +0.000 C 
ATOM     20  C   UNL     1      35.831 -19.376 -22.112  0.00  0.00    +0.000 C 
ENDBRANCH   6  11
BRANCH   4  21
ATOM     21  C   UNL     1      30.178 -23.642 -15.374  0.00  0.00    +0.001 C 
ATOM     22  C   UNL     1      29.752 -22.386 -14.941  0.00  0.00    -0.000 C 
ATOM     23  C   UNL     1      29.332 -24.433 -16.153  0.00  0.00    -0.000 C 
ATOM     24  C   UNL     1      27.638 -22.714 -16.063  0.00  0.00    -0.011 C 
ATOM     25  C   UNL     1      28.483 -21.923 -15.285  0.00  0.00    -0.004 C 
ATOM     26  C   UNL     1      28.063 -23.970 -16.497  0.00  0.00    -0.004 C 
BRANCH  24  27
ATOM     27  C   UNL     1      26.282 -22.215 -16.433  0.00  0.00    +0.136 C 
BRANCH  27  29
ATOM     28  O   UNL     1      26.260 -20.250 -17.871  0.00  0.00    -0.250 OA
ATOM     29  C   UNL     1      26.251 -21.468 -17.751  0.00  0.00    +0.318 C 
BRANCH  29  30
ATOM     30  O   UNL     1      26.211 -22.316 -18.813  0.00  0.00    -0.480 OA
ATOM     31  H   UNL     1      25.640 -23.059 -18.798  0.00  0.00    +0.295 HD
ENDBRANCH  29  30
ENDBRANCH  27  29
ENDBRANCH  24  27
ENDBRANCH   4  21
TORSDOF 5
ENDMDL
MODEL 4
REMARK VINA RESULT:     -13.3      7.165     12.034
REMARK  Name = 11952989
REMARK  5 active torsions:
REMARK  status: ('A' for Active; 'I' for Inactive)
REMARK    1  A    between atoms: C_4  and  C_21
REMARK    2  A    between atoms: C_6  and  C_11
REMARK    3  A    between atoms: C_24  and  C_27
REMARK    4  A    between atoms: C_27  and  C_29
REMARK    5  A    between atoms: C_29  and  O_30
REMARK                            x       y       z     vdW  Elec       q    Type
REMARK                         _______ _______ _______ _____ _____    ______ ____
ROOT
ATOM      1  N   UNL     1      32.041 -24.120 -15.786  0.00  0.00    -0.297 N 
ATOM      2  N   UNL     1      31.855 -22.699 -17.722  0.00  0.00    -0.229 NA
ATOM      3  C   UNL     1      33.958 -23.400 -16.674  0.00  0.00    +0.033 C 
ATOM      4  C   UNL     1      34.252 -24.219 -15.551  0.00  0.00    +0.017 C 
ATOM      5  C   UNL     1      32.572 -23.359 -16.793  0.00  0.00    +0.132 C 
ATOM      6  C   UNL     1      34.016 -21.978 -18.600  0.00  0.00    +0.019 C 
ATOM      7  C   UNL     1      34.710 -22.680 -17.617  0.00  0.00    +0.004 C 
ATOM      8  C   UNL     1      33.052 -24.648 -15.025  0.00  0.00    +0.063 C 
ATOM      9  C   UNL     1      32.629 -22.023 -18.603  0.00  0.00    +0.100 C 
ATOM     10  H   UNL     1      31.079 -24.267 -15.632  0.00  0.00    +0.154 HD
ENDROOT
BRANCH   6  11
ATOM     11  C   UNL     1      34.730 -21.215 -19.601  0.00  0.00    +0.001 C 
ATOM     12  C   UNL     1      34.706 -19.847 -21.612  0.00  0.00    +0.000 C 
ATOM     13  C   UNL     1      34.029 -20.591 -20.632  0.00  0.00    +0.000 C 
ATOM     14  C   UNL     1      36.116 -19.736 -21.544  0.00  0.00    +0.000 C 
ATOM     15  C   UNL     1      36.116 -21.106 -19.534  0.00  0.00    +0.000 C 
ATOM     16  C   UNL     1      36.806 -20.371 -20.498  0.00  0.00    +0.000 C 
ATOM     17  C   UNL     1      34.017 -19.212 -22.658  0.00  0.00    +0.000 C 
ATOM     18  C   UNL     1      36.794 -18.992 -22.524  0.00  0.00    +0.000 C 
ATOM     19  C   UNL     1      34.708 -18.478 -23.623  0.00  0.00    +0.000 C 
ATOM     20  C   UNL     1      36.093 -18.368 -23.556  0.00  0.00    +0.000 C 
ENDBRANCH   6  11
BRANCH   4  21
ATOM     21  C   UNL     1      35.516 -24.591 -14.987  0.00  0.00    +0.001 C 
ATOM     22  C   UNL     1      36.081 -25.830 -15.293  0.00  0.00    -0.000 C 
ATOM     23  C   UNL     1      36.185 -23.715 -14.131  0.00  0.00    -0.000 C 
ATOM     24  C   UNL     1      37.978 -25.315 -13.889  0.00  0.00    -0.011 C 
ATOM     25  C   UNL     1      37.311 -26.191 -14.744  0.00  0.00    -0.004 C 
ATOM     26  C   UNL     1      37.415 -24.076 -13.582  0.00  0.00    -0.004 C 
BRANCH  24  27
ATOM     27  C   UNL     1      39.295 -25.701 -13.305  0.00  0.00    +0.136 C 
BRANCH  27  29
ATOM     28  O   UNL     1      40.947 -26.785 -14.729  0.00  0.00    -0.250 OA
ATOM     29  C   UNL     1      40.415 -25.760 -14.324  0.00  0.00    +0.318 C 
BRANCH  29  30
ATOM     30  O   UNL     1      40.775 -24.521 -14.753  0.00  0.00    -0.480 OA
ATOM     31  H   UNL     1      40.116 -23.883 -14.948  0.00  0.00    +0.295 HD
ENDBRANCH  29  30
ENDBRANCH  27  29
ENDBRANCH  24  27
ENDBRANCH   4  21
TORSDOF 5
ENDMDL
MODEL 5
REMARK VINA RESULT:     -13.3      1.351      2.743
REMARK  Name = 11952989
REMARK  5 active torsions:
REMARK  status: ('A' for Active; 'I' for Inactive)
REMARK    1  A    between atoms: C_4  and  C_21
REMARK    2  A    between atoms: C_6  and  C_11
REMARK    3  A    between atoms: C_24  and  C_27
REMARK    4  A    between atoms: C_27  and  C_29
REMARK    5  A    between atoms: C_29  and  O_30
REMARK                            x       y       z     vdW  Elec       q    Type
REMARK                         _______ _______ _______ _____ _____    ______ ____
ROOT
ATOM      1  N   UNL     1      35.297 -16.897 -25.272  0.00  0.00    -0.297 N 
ATOM      2  N   UNL     1      35.672 -19.106 -24.388  0.00  0.00    -0.229 NA
ATOM      3  C   UNL     1      34.642 -17.246 -23.167  0.00  0.00    +0.033 C 
ATOM      4  C   UNL     1      34.347 -15.903 -23.522  0.00  0.00    +0.017 C 
ATOM      5  C   UNL     1      35.233 -17.838 -24.279  0.00  0.00    +0.132 C 
ATOM      6  C   UNL     1      34.913 -19.364 -22.082  0.00  0.00    +0.019 C 
ATOM      7  C   UNL     1      34.475 -18.043 -22.022  0.00  0.00    +0.004 C 
ATOM      8  C   UNL     1      34.762 -15.717 -24.824  0.00  0.00    +0.063 C 
ATOM      9  C   UNL     1      35.487 -19.827 -23.258  0.00  0.00    +0.100 C 
ATOM     10  H   UNL     1      35.671 -17.045 -26.171  0.00  0.00    +0.154 HD
ENDROOT
BRANCH   6  11
ATOM     11  C   UNL     1      34.772 -20.237 -20.937  0.00  0.00    +0.001 C 
ATOM     12  C   UNL     1      35.762 -21.375 -19.028  0.00  0.00    +0.000 C 
ATOM     13  C   UNL     1      35.881 -20.528 -20.142  0.00  0.00    +0.000 C 
ATOM     14  C   UNL     1      34.499 -21.933 -18.715  0.00  0.00    +0.000 C 
ATOM     15  C   UNL     1      33.531 -20.786 -20.630  0.00  0.00    +0.000 C 
ATOM     16  C   UNL     1      33.394 -21.628 -19.526  0.00  0.00    +0.000 C 
ATOM     17  C   UNL     1      36.868 -21.679 -18.217  0.00  0.00    +0.000 C 
ATOM     18  C   UNL     1      34.380 -22.779 -17.601  0.00  0.00    +0.000 C 
ATOM     19  C   UNL     1      36.730 -22.522 -17.114  0.00  0.00    +0.000 C 
ATOM     20  C   UNL     1      35.489 -23.071 -16.806  0.00  0.00    +0.000 C 
ENDBRANCH   6  11
BRANCH   4  21
ATOM     21  C   UNL     1      33.738 -14.858 -22.752  0.00  0.00    +0.001 C 
ATOM     22  C   UNL     1      33.596 -14.999 -21.371  0.00  0.00    -0.000 C 
ATOM     23  C   UNL     1      33.287 -13.697 -23.382  0.00  0.00    -0.000 C 
ATOM     24  C   UNL     1      32.554 -12.822 -21.254  0.00  0.00    -0.011 C 
ATOM     25  C   UNL     1      33.004 -13.982 -20.623  0.00  0.00    -0.004 C 
ATOM     26  C   UNL     1      32.696 -12.680 -22.634  0.00  0.00    -0.004 C 
BRANCH  24  27
ATOM     27  C   UNL     1      31.924 -11.734 -20.451  0.00  0.00    +0.136 C 
BRANCH  27  29
ATOM     28  O   UNL     1      31.590  -9.563 -21.501  0.00  0.00    -0.250 OA
ATOM     29  C   UNL     1      31.199 -10.704 -21.294  0.00  0.00    +0.318 C 
BRANCH  29  30
ATOM     30  O   UNL     1      30.041 -11.194 -21.810  0.00  0.00    -0.480 OA
ATOM     31  H   UNL     1      29.530 -10.670 -22.395  0.00  0.00    +0.295 HD
ENDBRANCH  29  30
ENDBRANCH  27  29
ENDBRANCH  24  27
ENDBRANCH   4  21
TORSDOF 5
ENDMDL
MODEL 6
REMARK VINA RESULT:     -13.3      5.703     11.511
REMARK  Name = 11952989
REMARK  5 active torsions:
REMARK  status: ('A' for Active; 'I' for Inactive)
REMARK    1  A    between atoms: C_4  and  C_21
REMARK    2  A    between atoms: C_6  and  C_11
REMARK    3  A    between atoms: C_24  and  C_27
REMARK    4  A    between atoms: C_27  and  C_29
REMARK    5  A    between atoms: C_29  and  O_30
REMARK                            x       y       z     vdW  Elec       q    Type
REMARK                         _______ _______ _______ _____ _____    ______ ____
ROOT
ATOM      1  N   UNL     1      31.488  -9.703 -20.102  0.00  0.00    -0.297 N 
ATOM      2  N   UNL     1      31.830  -7.461 -20.915  0.00  0.00    -0.229 NA
ATOM      3  C   UNL     1      32.484  -9.510 -22.091  0.00  0.00    +0.033 C 
ATOM      4  C   UNL     1      32.362 -10.888 -21.770  0.00  0.00    +0.017 C 
ATOM      5  C   UNL     1      31.929  -8.798 -21.032  0.00  0.00    +0.132 C 
ATOM      6  C   UNL     1      32.924  -7.381 -23.095  0.00  0.00    +0.019 C 
ATOM      7  C   UNL     1      33.002  -8.770 -23.167  0.00  0.00    +0.004 C 
ATOM      8  C   UNL     1      31.746 -10.976 -20.540  0.00  0.00    +0.063 C 
ATOM      9  C   UNL     1      32.344  -6.799 -21.977  0.00  0.00    +0.100 C 
ATOM     10  H   UNL     1      31.052  -9.473 -19.249  0.00  0.00    +0.154 HD
ENDROOT
BRANCH   6  11
ATOM     11  C   UNL     1      33.440  -6.561 -24.169  0.00  0.00    +0.001 C 
ATOM     12  C   UNL     1      33.099  -4.817 -25.831  0.00  0.00    +0.000 C 
ATOM     13  C   UNL     1      32.614  -5.621 -24.786  0.00  0.00    +0.000 C 
ATOM     14  C   UNL     1      34.441  -4.968 -26.255  0.00  0.00    +0.000 C 
ATOM     15  C   UNL     1      34.760  -6.710 -24.587  0.00  0.00    +0.000 C 
ATOM     16  C   UNL     1      35.258  -5.919 -25.622  0.00  0.00    +0.000 C 
ATOM     17  C   UNL     1      32.281  -3.866 -26.464  0.00  0.00    +0.000 C 
ATOM     18  C   UNL     1      34.925  -4.164 -27.300  0.00  0.00    +0.000 C 
ATOM     19  C   UNL     1      32.781  -3.076 -27.500  0.00  0.00    +0.000 C 
ATOM     20  C   UNL     1      34.100  -3.224 -27.917  0.00  0.00    +0.000 C 
ENDBRANCH   6  11
BRANCH   4  21
ATOM     21  C   UNL     1      32.770 -12.047 -22.510  0.00  0.00    +0.001 C 
ATOM     22  C   UNL     1      32.495 -13.324 -22.017  0.00  0.00    -0.000 C 
ATOM     23  C   UNL     1      33.442 -11.900 -23.724  0.00  0.00    -0.000 C 
ATOM     24  C   UNL     1      33.563 -14.302 -23.951  0.00  0.00    -0.011 C 
ATOM     25  C   UNL     1      32.892 -14.450 -22.737  0.00  0.00    -0.004 C 
ATOM     26  C   UNL     1      33.839 -13.027 -24.444  0.00  0.00    -0.004 C 
BRANCH  24  27
ATOM     27  C   UNL     1      33.985 -15.508 -24.721  0.00  0.00    +0.136 C 
BRANCH  27  29
ATOM     28  O   UNL     1      34.034 -14.788 -27.047  0.00  0.00    -0.250 OA
ATOM     29  C   UNL     1      33.540 -15.485 -26.170  0.00  0.00    +0.318 C 
BRANCH  29  30
ATOM     30  O   UNL     1      32.510 -16.342 -26.398  0.00  0.00    -0.480 OA
ATOM     31  H   UNL     1      32.235 -16.521 -27.276  0.00  0.00    +0.295 HD
ENDBRANCH  29  30
ENDBRANCH  27  29
ENDBRANCH  24  27
ENDBRANCH   4  21
TORSDOF 5
ENDMDL
MODEL 7
REMARK VINA RESULT:     -13.2      4.404      7.110
REMARK  Name = 11952989
REMARK  5 active torsions:
REMARK  status: ('A' for Active; 'I' for Inactive)
REMARK    1  A    between atoms: C_4  and  C_21
REMARK    2  A    between atoms: C_6  and  C_11
REMARK    3  A    between atoms: C_24  and  C_27
REMARK    4  A    between atoms: C_27  and  C_29
REMARK    5  A    between atoms: C_29  and  O_30
REMARK                            x       y       z     vdW  Elec       q    Type
REMARK                         _______ _______ _______ _____ _____    ______ ____
ROOT
ATOM      1  N   UNL     1      31.627  -8.882 -20.318  0.00  0.00    -0.297 N 
ATOM      2  N   UNL     1      31.647 -11.287 -20.442  0.00  0.00    -0.229 NA
ATOM      3  C   UNL     1      32.576  -9.773 -22.132  0.00  0.00    +0.033 C 
ATOM      4  C   UNL     1      32.652  -8.357 -22.223  0.00  0.00    +0.017 C 
ATOM      5  C   UNL     1      31.932 -10.067 -20.934  0.00  0.00    +0.132 C 
ATOM      6  C   UNL     1      32.710 -12.140 -22.468  0.00  0.00    +0.019 C 
ATOM      7  C   UNL     1      32.981 -10.854 -22.931  0.00  0.00    +0.004 C 
ATOM      8  C   UNL     1      32.060  -7.836 -21.092  0.00  0.00    +0.063 C 
ATOM      9  C   UNL     1      32.059 -12.291 -21.251  0.00  0.00    +0.100 C 
ATOM     10  H   UNL     1      31.167  -8.793 -19.451  0.00  0.00    +0.154 HD
ENDROOT
BRANCH   6  11
ATOM     11  C   UNL     1      33.100 -13.297 -23.243  0.00  0.00    +0.001 C 
ATOM     12  C   UNL     1      34.210 -15.458 -23.378  0.00  0.00    +0.000 C 
ATOM     13  C   UNL     1      33.823 -14.328 -22.641  0.00  0.00    +0.000 C 
ATOM     14  C   UNL     1      33.860 -15.544 -24.747  0.00  0.00    +0.000 C 
ATOM     15  C   UNL     1      32.756 -13.382 -24.589  0.00  0.00    +0.000 C 
ATOM     16  C   UNL     1      33.132 -14.498 -25.337  0.00  0.00    +0.000 C 
ATOM     17  C   UNL     1      34.938 -16.504 -22.788  0.00  0.00    +0.000 C 
ATOM     18  C   UNL     1      34.247 -16.675 -25.485  0.00  0.00    +0.000 C 
ATOM     19  C   UNL     1      35.315 -17.620 -23.538  0.00  0.00    +0.000 C 
ATOM     20  C   UNL     1      34.970 -17.705 -24.883  0.00  0.00    +0.000 C 
ENDBRANCH   6  11
BRANCH   4  21
ATOM     21  C   UNL     1      33.214  -7.528 -23.249  0.00  0.00    +0.001 C 
ATOM     22  C   UNL     1      34.585  -7.563 -23.503  0.00  0.00    -0.000 C 
ATOM     23  C   UNL     1      32.389  -6.684 -23.995  0.00  0.00    -0.000 C 
ATOM     24  C   UNL     1      34.306  -5.914 -25.247  0.00  0.00    -0.011 C 
ATOM     25  C   UNL     1      35.131  -6.756 -24.501  0.00  0.00    -0.004 C 
ATOM     26  C   UNL     1      32.935  -5.878 -24.994  0.00  0.00    -0.004 C 
BRANCH  24  27
ATOM     27  C   UNL     1      34.891  -5.054 -26.316  0.00  0.00    +0.136 C 
BRANCH  27  29
ATOM     28  O   UNL     1      33.160  -4.733 -27.999  0.00  0.00    -0.250 OA
ATOM     29  C   UNL     1      33.853  -4.275 -27.100  0.00  0.00    +0.318 C 
BRANCH  29  30
ATOM     30  O   UNL     1      33.773  -2.982 -26.689  0.00  0.00    -0.480 OA
ATOM     31  H   UNL     1      34.224  -2.708 -25.914  0.00  0.00    +0.295 HD
ENDBRANCH  29  30
ENDBRANCH  27  29
ENDBRANCH  24  27
ENDBRANCH   4  21
TORSDOF 5
ENDMDL
MODEL 8
REMARK VINA RESULT:     -13.1      7.715     12.456
REMARK  Name = 11952989
REMARK  5 active torsions:
REMARK  status: ('A' for Active; 'I' for Inactive)
REMARK    1  A    between atoms: C_4  and  C_21
REMARK    2  A    between atoms: C_6  and  C_11
REMARK    3  A    between atoms: C_24  and  C_27
REMARK    4  A    between atoms: C_27  and  C_29
REMARK    5  A    between atoms: C_29  and  O_30
REMARK                            x       y       z     vdW  Elec       q    Type
REMARK                         _______ _______ _______ _____ _____    ______ ____
ROOT
ATOM      1  N   UNL     1      32.194 -24.652 -14.666  0.00  0.00    -0.297 N 
ATOM      2  N   UNL     1      31.437 -23.323 -16.527  0.00  0.00    -0.229 NA
ATOM      3  C   UNL     1      33.781 -23.769 -15.964  0.00  0.00    +0.033 C 
ATOM      4  C   UNL     1      34.400 -24.515 -14.925  0.00  0.00    +0.017 C 
ATOM      5  C   UNL     1      32.407 -23.875 -15.773  0.00  0.00    +0.132 C 
ATOM      6  C   UNL     1      33.262 -22.414 -17.869  0.00  0.00    +0.019 C 
ATOM      7  C   UNL     1      34.226 -23.008 -17.057  0.00  0.00    +0.004 C 
ATOM      8  C   UNL     1      33.398 -25.047 -14.142  0.00  0.00    +0.063 C 
ATOM      9  C   UNL     1      31.921 -22.602 -17.564  0.00  0.00    +0.100 C 
ATOM     10  H   UNL     1      31.311 -24.892 -14.301  0.00  0.00    +0.154 HD
ENDROOT
BRANCH   6  11
ATOM     11  C   UNL     1      33.654 -21.617 -19.011  0.00  0.00    +0.001 C 
ATOM     12  C   UNL     1      35.396 -20.535 -20.319  0.00  0.00    +0.000 C 
ATOM     13  C   UNL     1      34.999 -21.309 -19.217  0.00  0.00    +0.000 C 
ATOM     14  C   UNL     1      34.415 -20.068 -21.226  0.00  0.00    +0.000 C 
ATOM     15  C   UNL     1      32.689 -21.157 -19.902  0.00  0.00    +0.000 C 
ATOM     16  C   UNL     1      33.065 -20.388 -21.003  0.00  0.00    +0.000 C 
ATOM     17  C   UNL     1      36.746 -20.215 -20.542  0.00  0.00    +0.000 C 
ATOM     18  C   UNL     1      34.812 -19.294 -22.329  0.00  0.00    +0.000 C 
ATOM     19  C   UNL     1      37.121 -19.445 -21.644  0.00  0.00    +0.000 C 
ATOM     20  C   UNL     1      36.157 -18.985 -22.535  0.00  0.00    +0.000 C 
ENDBRANCH   6  11
BRANCH   4  21
ATOM     21  C   UNL     1      35.790 -24.736 -14.651  0.00  0.00    +0.001 C 
ATOM     22  C   UNL     1      36.576 -23.700 -14.146  0.00  0.00    -0.000 C 
ATOM     23  C   UNL     1      36.359 -25.989 -14.888  0.00  0.00    -0.000 C 
ATOM     24  C   UNL     1      38.495 -25.168 -14.116  0.00  0.00    -0.011 C 
ATOM     25  C   UNL     1      37.928 -23.916 -13.879  0.00  0.00    -0.004 C 
ATOM     26  C   UNL     1      37.710 -26.205 -14.621  0.00  0.00    -0.004 C 
BRANCH  24  27
ATOM     27  C   UNL     1      39.941 -25.398 -13.828  0.00  0.00    +0.136 C 
BRANCH  27  29
ATOM     28  O   UNL     1      41.295 -27.243 -14.661  0.00  0.00    -0.250 OA
ATOM     29  C   UNL     1      40.642 -26.231 -14.882  0.00  0.00    +0.318 C 
BRANCH  29  30
ATOM     30  O   UNL     1      40.464 -25.723 -16.130  0.00  0.00    -0.480 OA
ATOM     31  H   UNL     1      39.975 -24.932 -16.249  0.00  0.00    +0.295 HD
ENDBRANCH  29  30
ENDBRANCH  27  29
ENDBRANCH  24  27
ENDBRANCH   4  21
TORSDOF 5
ENDMDL
