MODEL 1
REMARK VINA RESULT:     -13.1      0.000      0.000
REMARK  Name = 446129
REMARK  7 active torsions:
REMARK  status: ('A' for Active; 'I' for Inactive)
REMARK    1  A    between atoms: C_1  and  O_2
REMARK    2  A    between atoms: C_1  and  C_4
REMARK    3  A    between atoms: C_1  and  C_18
REMARK    4  A    between atoms: C_4  and  N_5
REMARK    5  A    between atoms: C_18  and  O_19
REMARK    6  A    between atoms: O_19  and  C_23
REMARK    7  A    between atoms: C_20  and  C_26
REMARK                            x       y       z     vdW  Elec       q    Type
REMARK                         _______ _______ _______ _____ _____    ______ ____
ROOT
ATOM      1  C   UNL     1      33.776 -15.649 -25.189  0.00  0.00    +0.133 C 
ENDROOT
BRANCH   1   2
ATOM      2  O   UNL     1      33.850 -15.745 -26.613  0.00  0.00    -0.383 OA
ATOM      3  H   UNL     1      33.440 -14.962 -27.013  0.00  0.00    +0.210 HD
ENDBRANCH   1   2
BRANCH   1   4
ATOM      4  C   UNL     1      35.200 -15.705 -24.632  0.00  0.00    -0.043 C 
BRANCH   4   5
ATOM      5  N   UNL     1      35.454 -16.941 -23.892  0.00  0.00    +0.391 N 
ATOM      6  N   UNL     1      34.962 -18.947 -21.918  0.00  0.00    -0.298 N 
ATOM      7  C   UNL     1      34.329 -17.872 -24.043  0.00  0.00    -0.055 C 
ATOM      8  C   UNL     1      35.676 -16.653 -22.470  0.00  0.00    -0.055 C 
ATOM      9  C   UNL     1      34.607 -19.192 -23.320  0.00  0.00    +0.069 C 
ATOM     10  C   UNL     1      35.999 -17.932 -21.694  0.00  0.00    +0.069 C 
ATOM     11  H   UNL     1      36.294 -17.374 -24.275  0.00  0.00    -0.079 HD
ATOM     12  N   UNL     1      35.931 -20.407 -20.283  0.00  0.00    -0.229 NA
ATOM     13  C   UNL     1      34.835 -19.976 -20.979  0.00  0.00    +0.132 C 
ATOM     14  C   UNL     1      33.569 -20.544 -20.777  0.00  0.00    +0.034 C 
ATOM     15  C   UNL     1      33.427 -21.568 -19.847  0.00  0.00    +0.004 C 
ATOM     16  C   UNL     1      35.755 -21.404 -19.388  0.00  0.00    +0.100 C 
ATOM     17  C   UNL     1      34.536 -22.012 -19.135  0.00  0.00    +0.021 C 
ENDBRANCH   4   5
ENDBRANCH   1   4
BRANCH   1  18
ATOM     18  C   UNL     1      33.035 -14.363 -24.823  0.00  0.00    +0.232 C 
BRANCH  18  19
ATOM     19  O   UNL     1      33.350 -14.017 -23.478  0.00  0.00    -0.473 OA
BRANCH  19  23
ATOM     20  C   UNL     1      32.200 -10.238 -22.204  0.00  0.00    -0.022 C 
ATOM     21  C   UNL     1      31.746 -11.370 -21.527  0.00  0.00    -0.001 C 
ATOM     22  C   UNL     1      33.039 -10.377 -23.310  0.00  0.00    -0.001 C 
ATOM     23  C   UNL     1      32.970 -12.771 -23.058  0.00  0.00    +0.139 C 
ATOM     24  C   UNL     1      32.133 -12.640 -21.955  0.00  0.00    +0.037 C 
ATOM     25  C   UNL     1      33.424 -11.647 -23.738  0.00  0.00    +0.037 C 
BRANCH  20  26
ATOM     26  C   UNL     1      31.778  -8.857 -21.739  0.00  0.00    +0.022 C 
ATOM     27  C   UNL     1      32.771  -8.265 -20.722  0.00  0.00    +0.004 C 
ATOM     28  C   UNL     1      31.563  -7.896 -22.921  0.00  0.00    +0.004 C 
ATOM     29  C   UNL     1      32.332  -6.879 -20.254  0.00  0.00    +0.000 C 
ATOM     30  C   UNL     1      31.129  -6.511 -22.444  0.00  0.00    +0.000 C 
ATOM     31  C   UNL     1      32.111  -5.931 -21.430  0.00  0.00    +0.000 C 
ENDBRANCH  20  26
ENDBRANCH  19  23
ENDBRANCH  18  19
ENDBRANCH   1  18
TORSDOF 7
ENDMDL
MODEL 2
REMARK VINA RESULT:     -12.6      3.012     10.808
REMARK  Name = 446129
REMARK  7 active torsions:
REMARK  status: ('A' for Active; 'I' for Inactive)
REMARK    1  A    between atoms: C_1  and  O_2
REMARK    2  A    between atoms: C_1  and  C_4
REMARK    3  A    between atoms: C_1  and  C_18
REMARK    4  A    between atoms: C_4  and  N_5
REMARK    5  A    between atoms: C_18  and  O_19
REMARK    6  A    between atoms: O_19  and  C_23
REMARK    7  A    between atoms: C_20  and  C_26
REMARK                            x       y       z     vdW  Elec       q    Type
REMARK                         _______ _______ _______ _____ _____    ______ ____
ROOT
ATOM      1  C   UNL     1      35.687 -18.093 -22.538  0.00  0.00    +0.133 C 
ENDROOT
BRANCH   1   2
ATOM      2  O   UNL     1      37.035 -18.445 -22.860  0.00  0.00    -0.383 OA
ATOM      3  H   UNL     1      37.493 -17.672 -23.225  0.00  0.00    +0.210 HD
ENDBRANCH   1   2
BRANCH   1   4
ATOM      4  C   UNL     1      35.078 -17.382 -23.750  0.00  0.00    -0.043 C 
BRANCH   4   5
ATOM      5  N   UNL     1      34.886 -15.952 -23.510  0.00  0.00    +0.391 N 
ATOM      6  N   UNL     1      33.422 -13.592 -22.843  0.00  0.00    -0.298 N 
ATOM      7  C   UNL     1      34.451 -15.714 -22.129  0.00  0.00    -0.055 C 
ATOM      8  C   UNL     1      33.900 -15.401 -24.447  0.00  0.00    -0.055 C 
ATOM      9  C   UNL     1      34.302 -14.216 -21.850  0.00  0.00    +0.069 C 
ATOM     10  C   UNL     1      33.732 -13.893 -24.246  0.00  0.00    +0.069 C 
ATOM     11  H   UNL     1      35.780 -15.483 -23.660  0.00  0.00    -0.079 HD
ATOM     12  N   UNL     1      33.041 -11.280 -23.345  0.00  0.00    -0.229 NA
ATOM     13  C   UNL     1      32.805 -12.370 -22.553  0.00  0.00    +0.132 C 
ATOM     14  C   UNL     1      31.951 -12.299 -21.443  0.00  0.00    +0.034 C 
ATOM     15  C   UNL     1      31.331 -11.091 -21.142  0.00  0.00    +0.004 C 
ATOM     16  C   UNL     1      32.421 -10.122 -23.022  0.00  0.00    +0.100 C 
ATOM     17  C   UNL     1      31.565  -9.978 -21.942  0.00  0.00    +0.021 C 
ENDBRANCH   4   5
ENDBRANCH   1   4
BRANCH   1  18
ATOM     18  C   UNL     1      34.932 -19.360 -22.139  0.00  0.00    +0.232 C 
BRANCH  18  19
ATOM     19  O   UNL     1      35.774 -20.156 -21.312  0.00  0.00    -0.473 OA
BRANCH  19  23
ATOM     20  C   UNL     1      33.908 -22.420 -18.376  0.00  0.00    -0.022 C 
ATOM     21  C   UNL     1      33.143 -21.682 -19.279  0.00  0.00    -0.001 C 
ATOM     22  C   UNL     1      35.300 -22.395 -18.458  0.00  0.00    -0.001 C 
ATOM     23  C   UNL     1      35.159 -20.902 -20.343  0.00  0.00    +0.139 C 
ATOM     24  C   UNL     1      33.770 -20.922 -20.266  0.00  0.00    +0.037 C 
ATOM     25  C   UNL     1      35.927 -21.633 -19.444  0.00  0.00    +0.037 C 
BRANCH  20  26
ATOM     26  C   UNL     1      33.226 -23.246 -17.302  0.00  0.00    +0.022 C 
ATOM     27  C   UNL     1      33.999 -23.210 -15.972  0.00  0.00    +0.004 C 
ATOM     28  C   UNL     1      31.761 -22.823 -17.099  0.00  0.00    +0.004 C 
ATOM     29  C   UNL     1      33.308 -24.053 -14.901  0.00  0.00    +0.000 C 
ATOM     30  C   UNL     1      31.079 -23.667 -16.023  0.00  0.00    +0.000 C 
ATOM     31  C   UNL     1      31.853 -23.636 -14.708  0.00  0.00    +0.000 C 
ENDBRANCH  20  26
ENDBRANCH  19  23
ENDBRANCH  18  19
ENDBRANCH   1  18
TORSDOF 7
ENDMDL
MODEL 3
REMARK VINA RESULT:     -12.4      2.602     10.421
REMARK  Name = 446129
REMARK  7 active torsions:
REMARK  status: ('A' for Active; 'I' for Inactive)
REMARK    1  A    between atoms: C_1  and  O_2
REMARK    2  A    between atoms: C_1  and  C_4
REMARK    3  A    between atoms: C_1  and  C_18
REMARK    4  A    between atoms: C_4  and  N_5
REMARK    5  A    between atoms: C_18  and  O_19
REMARK    6  A    between atoms: O_19  and  C_23
REMARK    7  A    between atoms: C_20  and  C_26
REMARK                            x       y       z     vdW  Elec       q    Type
REMARK                         _______ _______ _______ _____ _____    ______ ____
ROOT
ATOM      1  C   UNL     1      33.584 -14.506 -25.110  0.00  0.00    +0.133 C 
ENDROOT
BRANCH   1   2
ATOM      2  O   UNL     1      32.381 -14.575 -25.880  0.00  0.00    -0.383 OA
ATOM      3  H   UNL     1      32.597 -14.514 -26.824  0.00  0.00    +0.210 HD
ENDBRANCH   1   2
BRANCH   1   4
ATOM      4  C   UNL     1      33.200 -14.300 -23.643  0.00  0.00    -0.043 C 
BRANCH   4   5
ATOM      5  N   UNL     1      33.345 -12.906 -23.226  0.00  0.00    +0.391 N 
ATOM      6  N   UNL     1      32.851 -10.094 -23.309  0.00  0.00    -0.298 N 
ATOM      7  C   UNL     1      32.056 -12.365 -22.779  0.00  0.00    -0.055 C 
ATOM      8  C   UNL     1      33.874 -12.092 -24.327  0.00  0.00    -0.055 C 
ATOM      9  C   UNL     1      32.206 -10.923 -22.286  0.00  0.00    +0.069 C 
ATOM     10  C   UNL     1      34.085 -10.641 -23.886  0.00  0.00    +0.069 C 
ATOM     11  H   UNL     1      34.004 -12.874 -22.447  0.00  0.00    -0.079 HD
ATOM     12  N   UNL     1      33.808  -7.902 -23.155  0.00  0.00    -0.229 NA
ATOM     13  C   UNL     1      32.705  -8.703 -23.270  0.00  0.00    +0.132 C 
ATOM     14  C   UNL     1      31.413  -8.164 -23.349  0.00  0.00    +0.034 C 
ATOM     15  C   UNL     1      31.251  -6.783 -23.310  0.00  0.00    +0.004 C 
ATOM     16  C   UNL     1      33.612  -6.564 -23.120  0.00  0.00    +0.100 C 
ATOM     17  C   UNL     1      32.366  -5.962 -23.194  0.00  0.00    +0.021 C 
ENDBRANCH   4   5
ENDBRANCH   1   4
BRANCH   1  18
ATOM     18  C   UNL     1      34.393 -15.779 -25.350  0.00  0.00    +0.232 C 
BRANCH  18  19
ATOM     19  O   UNL     1      35.357 -15.915 -24.310  0.00  0.00    -0.473 OA
BRANCH  19  23
ATOM     20  C   UNL     1      35.104 -19.334 -21.970  0.00  0.00    -0.022 C 
ATOM     21  C   UNL     1      35.284 -18.089 -21.368  0.00  0.00    -0.001 C 
ATOM     22  C   UNL     1      35.010 -19.430 -23.359  0.00  0.00    -0.001 C 
ATOM     23  C   UNL     1      35.274 -17.043 -23.538  0.00  0.00    +0.139 C 
ATOM     24  C   UNL     1      35.368 -16.940 -22.154  0.00  0.00    +0.037 C 
ATOM     25  C   UNL     1      35.096 -18.281 -24.145  0.00  0.00    +0.037 C 
BRANCH  20  26
ATOM     26  C   UNL     1      35.012 -20.584 -21.115  0.00  0.00    +0.022 C 
ATOM     27  C   UNL     1      36.191 -20.695 -20.132  0.00  0.00    +0.004 C 
ATOM     28  C   UNL     1      33.668 -20.673 -20.373  0.00  0.00    +0.004 C 
ATOM     29  C   UNL     1      36.094 -21.961 -19.283  0.00  0.00    +0.000 C 
ATOM     30  C   UNL     1      33.581 -21.939 -19.523  0.00  0.00    +0.000 C 
ATOM     31  C   UNL     1      34.756 -22.049 -18.556  0.00  0.00    +0.000 C 
ENDBRANCH  20  26
ENDBRANCH  19  23
ENDBRANCH  18  19
ENDBRANCH   1  18
TORSDOF 7
ENDMDL
MODEL 4
REMARK VINA RESULT:     -12.4      2.727     10.715
REMARK  Name = 446129
REMARK  7 active torsions:
REMARK  status: ('A' for Active; 'I' for Inactive)
REMARK    1  A    between atoms: C_1  and  O_2
REMARK    2  A    between atoms: C_1  and  C_4
REMARK    3  A    between atoms: C_1  and  C_18
REMARK    4  A    between atoms: C_4  and  N_5
REMARK    5  A    between atoms: C_18  and  O_19
REMARK    6  A    between atoms: O_19  and  C_23
REMARK    7  A    between atoms: C_20  and  C_26
REMARK                            x       y       z     vdW  Elec       q    Type
REMARK                         _______ _______ _______ _____ _____    ______ ____
ROOT
ATOM      1  C   UNL     1      35.467 -18.020 -22.989  0.00  0.00    +0.133 C 
ENDROOT
BRANCH   1   2
ATOM      2  O   UNL     1      36.893 -18.088 -22.919  0.00  0.00    -0.383 OA
ATOM      3  H   UNL     1      37.235 -17.282 -22.502  0.00  0.00    +0.210 HD
ENDBRANCH   1   2
BRANCH   1   4
ATOM      4  C   UNL     1      35.088 -17.188 -24.216  0.00  0.00    -0.043 C 
BRANCH   4   5
ATOM      5  N   UNL     1      34.886 -15.777 -23.884  0.00  0.00    +0.391 N 
ATOM      6  N   UNL     1      33.412 -13.484 -23.031  0.00  0.00    -0.298 N 
ATOM      7  C   UNL     1      34.489 -15.630 -22.479  0.00  0.00    -0.055 C 
ATOM      8  C   UNL     1      33.865 -15.185 -24.757  0.00  0.00    -0.055 C 
ATOM      9  C   UNL     1      34.329 -14.155 -22.104  0.00  0.00    +0.069 C 
ATOM     10  C   UNL     1      33.685 -13.694 -24.458  0.00  0.00    +0.069 C 
ATOM     11  H   UNL     1      35.769 -15.287 -24.030  0.00  0.00    -0.079 HD
ATOM     12  N   UNL     1      32.988 -11.151 -23.379  0.00  0.00    -0.229 NA
ATOM     13  C   UNL     1      32.789 -12.291 -22.649  0.00  0.00    +0.132 C 
ATOM     14  C   UNL     1      31.967 -12.300 -21.513  0.00  0.00    +0.034 C 
ATOM     15  C   UNL     1      31.341 -11.122 -21.121  0.00  0.00    +0.004 C 
ATOM     16  C   UNL     1      32.363 -10.025 -22.968  0.00  0.00    +0.100 C 
ATOM     17  C   UNL     1      31.537  -9.959 -21.857  0.00  0.00    +0.021 C 
ENDBRANCH   4   5
ENDBRANCH   1   4
BRANCH   1  18
ATOM     18  C   UNL     1      34.910 -19.443 -23.029  0.00  0.00    +0.232 C 
BRANCH  18  19
ATOM     19  O   UNL     1      33.932 -19.584 -22.003  0.00  0.00    -0.473 OA
BRANCH  19  23
ATOM     20  C   UNL     1      34.944 -21.989 -18.776  0.00  0.00    -0.022 C 
ATOM     21  C   UNL     1      35.945 -21.376 -19.529  0.00  0.00    -0.001 C 
ATOM     22  C   UNL     1      33.604 -21.795 -19.108  0.00  0.00    -0.001 C 
ATOM     23  C   UNL     1      34.266 -20.377 -20.939  0.00  0.00    +0.139 C 
ATOM     24  C   UNL     1      35.605 -20.567 -20.614  0.00  0.00    +0.037 C 
ATOM     25  C   UNL     1      33.264 -20.987 -20.193  0.00  0.00    +0.037 C 
BRANCH  20  26
ATOM     26  C   UNL     1      35.315 -22.869 -17.597  0.00  0.00    +0.022 C 
ATOM     27  C   UNL     1      36.515 -22.306 -16.814  0.00  0.00    +0.004 C 
ATOM     28  C   UNL     1      34.115 -23.112 -16.665  0.00  0.00    +0.004 C 
ATOM     29  C   UNL     1      36.885 -23.205 -15.636  0.00  0.00    +0.000 C 
ATOM     30  C   UNL     1      34.495 -24.007 -15.486  0.00  0.00    +0.000 C 
ATOM     31  C   UNL     1      35.690 -23.451 -14.718  0.00  0.00    +0.000 C 
ENDBRANCH  20  26
ENDBRANCH  19  23
ENDBRANCH  18  19
ENDBRANCH   1  18
TORSDOF 7
ENDMDL
MODEL 5
REMARK VINA RESULT:     -12.4      3.034     10.686
REMARK  Name = 446129
REMARK  7 active torsions:
REMARK  status: ('A' for Active; 'I' for Inactive)
REMARK    1  A    between atoms: C_1  and  O_2
REMARK    2  A    between atoms: C_1  and  C_4
REMARK    3  A    between atoms: C_1  and  C_18
REMARK    4  A    between atoms: C_4  and  N_5
REMARK    5  A    between atoms: C_18  and  O_19
REMARK    6  A    between atoms: O_19  and  C_23
REMARK    7  A    between atoms: C_20  and  C_26
REMARK                            x       y       z     vdW  Elec       q    Type
REMARK                         _______ _______ _______ _____ _____    ______ ____
ROOT
ATOM      1  C   UNL     1      36.966 -18.498 -21.988  0.00  0.00    +0.133 C 
ENDROOT
BRANCH   1   2
ATOM      2  O   UNL     1      38.302 -18.629 -22.480  0.00  0.00    -0.383 OA
ATOM      3  H   UNL     1      38.415 -19.505 -22.880  0.00  0.00    +0.210 HD
ENDBRANCH   1   2
BRANCH   1   4
ATOM      4  C   UNL     1      36.016 -18.473 -23.189  0.00  0.00    -0.043 C 
BRANCH   4   5
ATOM      5  N   UNL     1      35.012 -17.415 -23.075  0.00  0.00    +0.391 N 
ATOM      6  N   UNL     1      34.060 -14.724 -22.961  0.00  0.00    -0.298 N 
ATOM      7  C   UNL     1      35.005 -16.578 -24.280  0.00  0.00    -0.055 C 
ATOM      8  C   UNL     1      35.272 -16.585 -21.892  0.00  0.00    -0.055 C 
ATOM      9  C   UNL     1      33.920 -15.502 -24.197  0.00  0.00    +0.069 C 
ATOM     10  C   UNL     1      34.195 -15.509 -21.728  0.00  0.00    +0.069 C 
ATOM     11  H   UNL     1      34.097 -17.855 -22.973  0.00  0.00    -0.079 HD
ATOM     12  N   UNL     1      32.544 -13.195 -21.909  0.00  0.00    -0.229 NA
ATOM     13  C   UNL     1      33.482 -13.453 -22.871  0.00  0.00    +0.132 C 
ATOM     14  C   UNL     1      33.886 -12.469 -23.785  0.00  0.00    +0.034 C 
ATOM     15  C   UNL     1      33.319 -11.201 -23.709  0.00  0.00    +0.004 C 
ATOM     16  C   UNL     1      32.015 -11.951 -21.866  0.00  0.00    +0.100 C 
ATOM     17  C   UNL     1      32.366 -10.929 -22.734  0.00  0.00    +0.021 C 
ENDBRANCH   4   5
ENDBRANCH   1   4
BRANCH   1  18
ATOM     18  C   UNL     1      36.685 -19.646 -21.020  0.00  0.00    +0.232 C 
BRANCH  18  19
ATOM     19  O   UNL     1      35.378 -20.152 -21.273  0.00  0.00    -0.473 OA
BRANCH  19  23
ATOM     20  C   UNL     1      33.668 -22.478 -18.291  0.00  0.00    -0.022 C 
ATOM     21  C   UNL     1      35.054 -22.455 -18.449  0.00  0.00    -0.001 C 
ATOM     22  C   UNL     1      32.857 -21.720 -19.136  0.00  0.00    -0.001 C 
ATOM     23  C   UNL     1      34.814 -20.920 -20.290  0.00  0.00    +0.139 C 
ATOM     24  C   UNL     1      35.628 -21.674 -19.451  0.00  0.00    +0.037 C 
ATOM     25  C   UNL     1      33.432 -20.939 -20.139  0.00  0.00    +0.037 C 
BRANCH  20  26
ATOM     26  C   UNL     1      33.044 -23.330 -17.202  0.00  0.00    +0.022 C 
ATOM     27  C   UNL     1      33.897 -23.341 -15.921  0.00  0.00    +0.004 C 
ATOM     28  C   UNL     1      31.599 -22.899 -16.897  0.00  0.00    +0.004 C 
ATOM     29  C   UNL     1      33.264 -24.208 -14.834  0.00  0.00    +0.000 C 
ATOM     30  C   UNL     1      30.974 -23.768 -15.806  0.00  0.00    +0.000 C 
ATOM     31  C   UNL     1      31.827 -23.783 -14.541  0.00  0.00    +0.000 C 
ENDBRANCH  20  26
ENDBRANCH  19  23
ENDBRANCH  18  19
ENDBRANCH   1  18
TORSDOF 7
ENDMDL
MODEL 6
REMARK VINA RESULT:     -12.3      3.340     10.977
REMARK  Name = 446129
REMARK  7 active torsions:
REMARK  status: ('A' for Active; 'I' for Inactive)
REMARK    1  A    between atoms: C_1  and  O_2
REMARK    2  A    between atoms: C_1  and  C_4
REMARK    3  A    between atoms: C_1  and  C_18
REMARK    4  A    between atoms: C_4  and  N_5
REMARK    5  A    between atoms: C_18  and  O_19
REMARK    6  A    between atoms: O_19  and  C_23
REMARK    7  A    between atoms: C_20  and  C_26
REMARK                            x       y       z     vdW  Elec       q    Type
REMARK                         _______ _______ _______ _____ _____    ______ ____
ROOT
ATOM      1  C   UNL     1      36.072 -18.679 -21.568  0.00  0.00    +0.133 C 
ENDROOT
BRANCH   1   2
ATOM      2  O   UNL     1      37.465 -18.933 -21.370  0.00  0.00    -0.383 OA
ATOM      3  H   UNL     1      37.634 -19.089 -20.428  0.00  0.00    +0.210 HD
ENDBRANCH   1   2
BRANCH   1   4
ATOM      4  C   UNL     1      35.895 -18.044 -22.950  0.00  0.00    -0.043 C 
BRANCH   4   5
ATOM      5  N   UNL     1      35.576 -16.619 -22.865  0.00  0.00    +0.391 N 
ATOM      6  N   UNL     1      33.887 -14.339 -22.542  0.00  0.00    -0.298 N 
ATOM      7  C   UNL     1      35.009 -16.295 -21.551  0.00  0.00    -0.055 C 
ATOM      8  C   UNL     1      34.634 -16.238 -23.924  0.00  0.00    -0.055 C 
ATOM      9  C   UNL     1      34.724 -14.796 -21.428  0.00  0.00    +0.069 C 
ATOM     10  C   UNL     1      34.337 -14.737 -23.881  0.00  0.00    +0.069 C 
ATOM     11  H   UNL     1      36.442 -16.093 -22.989  0.00  0.00    -0.079 HD
ATOM     12  N   UNL     1      33.376 -12.120 -23.292  0.00  0.00    -0.229 NA
ATOM     13  C   UNL     1      33.157 -13.151 -22.420  0.00  0.00    +0.132 C 
ATOM     14  C   UNL     1      32.209 -13.052 -21.391  0.00  0.00    +0.034 C 
ATOM     15  C   UNL     1      31.477 -11.878 -21.256  0.00  0.00    +0.004 C 
ATOM     16  C   UNL     1      32.645 -10.994 -23.130  0.00  0.00    +0.100 C 
ATOM     17  C   UNL     1      31.693 -10.825 -22.139  0.00  0.00    +0.021 C 
ENDBRANCH   4   5
ENDBRANCH   1   4
BRANCH   1  18
ATOM     18  C   UNL     1      35.307 -19.991 -21.404  0.00  0.00    +0.232 C 
BRANCH  18  19
ATOM     19  O   UNL     1      36.030 -20.837 -20.516  0.00  0.00    -0.473 OA
BRANCH  19  23
ATOM     20  C   UNL     1      33.822 -22.799 -17.599  0.00  0.00    -0.022 C 
ATOM     21  C   UNL     1      35.200 -22.646 -17.445  0.00  0.00    -0.001 C 
ATOM     22  C   UNL     1      33.187 -22.294 -18.734  0.00  0.00    -0.001 C 
ATOM     23  C   UNL     1      35.302 -21.485 -19.554  0.00  0.00    +0.139 C 
ATOM     24  C   UNL     1      35.942 -21.986 -18.425  0.00  0.00    +0.037 C 
ATOM     25  C   UNL     1      33.929 -21.636 -19.714  0.00  0.00    +0.037 C 
BRANCH  20  26
ATOM     26  C   UNL     1      33.016 -23.517 -16.534  0.00  0.00    +0.022 C 
ATOM     27  C   UNL     1      33.645 -23.367 -15.138  0.00  0.00    +0.004 C 
ATOM     28  C   UNL     1      31.546 -23.064 -16.526  0.00  0.00    +0.004 C 
ATOM     29  C   UNL     1      32.831 -24.101 -14.074  0.00  0.00    +0.000 C 
ATOM     30  C   UNL     1      30.739 -23.800 -15.457  0.00  0.00    +0.000 C 
ATOM     31  C   UNL     1      31.371 -23.655 -14.076  0.00  0.00    +0.000 C 
ENDBRANCH  20  26
ENDBRANCH  19  23
ENDBRANCH  18  19
ENDBRANCH   1  18
TORSDOF 7
ENDMDL
MODEL 7
REMARK VINA RESULT:     -12.3      2.946     10.412
REMARK  Name = 446129
REMARK  7 active torsions:
REMARK  status: ('A' for Active; 'I' for Inactive)
REMARK    1  A    between atoms: C_1  and  O_2
REMARK    2  A    between atoms: C_1  and  C_4
REMARK    3  A    between atoms: C_1  and  C_18
REMARK    4  A    between atoms: C_4  and  N_5
REMARK    5  A    between atoms: C_18  and  O_19
REMARK    6  A    between atoms: O_19  and  C_23
REMARK    7  A    between atoms: C_20  and  C_26
REMARK                            x       y       z     vdW  Elec       q    Type
REMARK                         _______ _______ _______ _____ _____    ______ ____
ROOT
ATOM      1  C   UNL     1      33.287 -13.670 -23.750  0.00  0.00    +0.133 C 
ENDROOT
BRANCH   1   2
ATOM      2  O   UNL     1      32.707 -14.340 -24.873  0.00  0.00    -0.383 OA
ATOM      3  H   UNL     1      32.963 -13.884 -25.689  0.00  0.00    +0.210 HD
ENDBRANCH   1   2
BRANCH   1   4
ATOM      4  C   UNL     1      32.328 -13.806 -22.565  0.00  0.00    -0.043 C 
BRANCH   4   5
ATOM      5  N   UNL     1      31.893 -12.506 -22.057  0.00  0.00    +0.391 N 
ATOM      6  N   UNL     1      32.227  -9.836 -21.099  0.00  0.00    -0.298 N 
ATOM      7  C   UNL     1      32.296 -11.433 -22.974  0.00  0.00    -0.055 C 
ATOM      8  C   UNL     1      32.455 -12.261 -20.723  0.00  0.00    -0.055 C 
ATOM      9  C   UNL     1      31.797 -10.072 -22.481  0.00  0.00    +0.069 C 
ATOM     10  C   UNL     1      31.961 -10.928 -20.155  0.00  0.00    +0.069 C 
ATOM     11  H   UNL     1      30.875 -12.516 -21.988  0.00  0.00    -0.079 HD
ATOM     12  N   UNL     1      31.512  -8.189 -19.511  0.00  0.00    -0.229 NA
ATOM     13  C   UNL     1      32.269  -8.529 -20.598  0.00  0.00    +0.132 C 
ATOM     14  C   UNL     1      33.096  -7.595 -21.237  0.00  0.00    +0.034 C 
ATOM     15  C   UNL     1      33.147  -6.293 -20.752  0.00  0.00    +0.004 C 
ATOM     16  C   UNL     1      31.588  -6.914 -19.067  0.00  0.00    +0.100 C 
ATOM     17  C   UNL     1      32.382  -5.938 -19.647  0.00  0.00    +0.021 C 
ENDBRANCH   4   5
ENDBRANCH   1   4
BRANCH   1  18
ATOM     18  C   UNL     1      34.667 -14.270 -23.482  0.00  0.00    +0.232 C 
BRANCH  18  19
ATOM     19  O   UNL     1      34.799 -15.474 -24.232  0.00  0.00    -0.473 OA
BRANCH  19  23
ATOM     20  C   UNL     1      35.054 -19.003 -22.062  0.00  0.00    -0.022 C 
ATOM     21  C   UNL     1      34.941 -19.045 -23.451  0.00  0.00    -0.001 C 
ATOM     22  C   UNL     1      35.080 -17.774 -21.402  0.00  0.00    -0.001 C 
ATOM     23  C   UNL     1      34.882 -16.638 -23.516  0.00  0.00    +0.139 C 
ATOM     24  C   UNL     1      34.856 -17.860 -24.181  0.00  0.00    +0.037 C 
ATOM     25  C   UNL     1      34.993 -16.588 -22.131  0.00  0.00    +0.037 C 
BRANCH  20  26
ATOM     26  C   UNL     1      35.145 -20.293 -21.268  0.00  0.00    +0.022 C 
ATOM     27  C   UNL     1      36.412 -20.342 -20.396  0.00  0.00    +0.004 C 
ATOM     28  C   UNL     1      33.884 -20.535 -20.422  0.00  0.00    +0.004 C 
ATOM     29  C   UNL     1      36.499 -21.648 -19.609  0.00  0.00    +0.000 C 
ATOM     30  C   UNL     1      33.981 -21.841 -19.634  0.00  0.00    +0.000 C 
ATOM     31  C   UNL     1      35.242 -21.889 -18.777  0.00  0.00    +0.000 C 
ENDBRANCH  20  26
ENDBRANCH  19  23
ENDBRANCH  18  19
ENDBRANCH   1  18
TORSDOF 7
ENDMDL
MODEL 8
REMARK VINA RESULT:     -12.1      6.479     10.032
REMARK  Name = 446129
REMARK  7 active torsions:
REMARK  status: ('A' for Active; 'I' for Inactive)
REMARK    1  A    between atoms: C_1  and  O_2
REMARK    2  A    between atoms: C_1  and  C_4
REMARK    3  A    between atoms: C_1  and  C_18
REMARK    4  A    between atoms: C_4  and  N_5
REMARK    5  A    between atoms: C_18  and  O_19
REMARK    6  A    between atoms: O_19  and  C_23
REMARK    7  A    between atoms: C_20  and  C_26
REMARK                            x       y       z     vdW  Elec       q    Type
REMARK                         _______ _______ _______ _____ _____    ______ ____
ROOT
ATOM      1  C   UNL     1      37.328 -22.767 -16.055  0.00  0.00    +0.133 C 
ENDROOT
BRANCH   1   2
ATOM      2  O   UNL     1      37.556 -22.191 -14.766  0.00  0.00    -0.383 OA
ATOM      3  H   UNL     1      36.835 -22.441 -14.167  0.00  0.00    +0.210 HD
ENDBRANCH   1   2
BRANCH   1   4
ATOM      4  C   UNL     1      36.291 -23.882 -15.902  0.00  0.00    -0.043 C 
BRANCH   4   5
ATOM      5  N   UNL     1      34.922 -23.368 -15.925  0.00  0.00    +0.391 N 
ATOM      6  N   UNL     1      32.074 -23.539 -16.061  0.00  0.00    -0.298 N 
ATOM      7  C   UNL     1      34.154 -23.895 -14.791  0.00  0.00    -0.055 C 
ATOM      8  C   UNL     1      34.259 -23.724 -17.186  0.00  0.00    -0.055 C 
ATOM      9  C   UNL     1      32.736 -23.320 -14.771  0.00  0.00    +0.069 C 
ATOM     10  C   UNL     1      32.844 -23.143 -17.246  0.00  0.00    +0.069 C 
ATOM     11  H   UNL     1      34.963 -22.351 -15.851  0.00  0.00    -0.079 HD
ATOM     12  N   UNL     1      30.065 -22.586 -16.957  0.00  0.00    -0.229 NA
ATOM     13  C   UNL     1      30.677 -23.497 -16.141  0.00  0.00    +0.132 C 
ATOM     14  C   UNL     1      29.936 -24.404 -15.370  0.00  0.00    +0.034 C 
ATOM     15  C   UNL     1      28.548 -24.374 -15.438  0.00  0.00    +0.004 C 
ATOM     16  C   UNL     1      28.714 -22.586 -16.998  0.00  0.00    +0.100 C 
ATOM     17  C   UNL     1      27.917 -23.452 -16.265  0.00  0.00    +0.021 C 
ENDBRANCH   4   5
ENDBRANCH   1   4
BRANCH   1  18
ATOM     18  C   UNL     1      36.888 -21.661 -17.013  0.00  0.00    +0.232 C 
BRANCH  18  19
ATOM     19  O   UNL     1      36.842 -22.189 -18.335  0.00  0.00    -0.473 OA
BRANCH  19  23
ATOM     20  C   UNL     1      35.357 -19.683 -21.292  0.00  0.00    -0.022 C 
ATOM     21  C   UNL     1      34.512 -20.598 -20.664  0.00  0.00    -0.001 C 
ATOM     22  C   UNL     1      36.701 -19.610 -20.926  0.00  0.00    -0.001 C 
ATOM     23  C   UNL     1      36.352 -21.363 -19.311  0.00  0.00    +0.139 C 
ATOM     24  C   UNL     1      35.011 -21.440 -19.670  0.00  0.00    +0.037 C 
ATOM     25  C   UNL     1      37.200 -20.453 -19.933  0.00  0.00    +0.037 C 
BRANCH  20  26
ATOM     26  C   UNL     1      34.814 -18.768 -22.373  0.00  0.00    +0.022 C 
ATOM     27  C   UNL     1      35.500 -17.390 -22.358  0.00  0.00    +0.004 C 
ATOM     28  C   UNL     1      34.906 -19.412 -23.767  0.00  0.00    +0.004 C 
ATOM     29  C   UNL     1      34.939 -16.474 -23.444  0.00  0.00    +0.000 C 
ATOM     30  C   UNL     1      34.347 -18.488 -24.848  0.00  0.00    +0.000 C 
ATOM     31  C   UNL     1      35.024 -17.120 -24.824  0.00  0.00    +0.000 C 
ENDBRANCH  20  26
ENDBRANCH  19  23
ENDBRANCH  18  19
ENDBRANCH   1  18
TORSDOF 7
ENDMDL
MODEL 9
REMARK VINA RESULT:     -11.9      4.410      7.851
REMARK  Name = 446129
REMARK  7 active torsions:
REMARK  status: ('A' for Active; 'I' for Inactive)
REMARK    1  A    between atoms: C_1  and  O_2
REMARK    2  A    between atoms: C_1  and  C_4
REMARK    3  A    between atoms: C_1  and  C_18
REMARK    4  A    between atoms: C_4  and  N_5
REMARK    5  A    between atoms: C_18  and  O_19
REMARK    6  A    between atoms: O_19  and  C_23
REMARK    7  A    between atoms: C_20  and  C_26
REMARK                            x       y       z     vdW  Elec       q    Type
REMARK                         _______ _______ _______ _____ _____    ______ ____
ROOT
ATOM      1  C   UNL     1      33.959 -21.013 -19.887  0.00  0.00    +0.133 C 
ENDROOT
BRANCH   1   2
ATOM      2  O   UNL     1      32.697 -20.893 -20.547  0.00  0.00    -0.383 OA
ATOM      3  H   UNL     1      32.294 -20.039 -20.324  0.00  0.00    +0.210 HD
ENDBRANCH   1   2
BRANCH   1   4
ATOM      4  C   UNL     1      34.049 -22.416 -19.281  0.00  0.00    -0.043 C 
BRANCH   4   5
ATOM      5  N   UNL     1      34.549 -22.391 -17.906  0.00  0.00    +0.391 N 
ATOM      6  N   UNL     1      35.951 -23.378 -15.623  0.00  0.00    -0.298 N 
ATOM      7  C   UNL     1      36.016 -22.417 -17.890  0.00  0.00    -0.055 C 
ATOM      8  C   UNL     1      34.020 -23.530 -17.146  0.00  0.00    -0.055 C 
ATOM      9  C   UNL     1      36.552 -22.334 -16.459  0.00  0.00    +0.069 C 
ATOM     10  C   UNL     1      34.489 -23.483 -15.689  0.00  0.00    +0.069 C 
ATOM     11  H   UNL     1      34.229 -21.526 -17.468  0.00  0.00    -0.079 HD
ATOM     12  N   UNL     1      35.935 -23.642 -13.240  0.00  0.00    -0.229 NA
ATOM     13  C   UNL     1      36.585 -23.769 -14.437  0.00  0.00    +0.132 C 
ATOM     14  C   UNL     1      37.886 -24.286 -14.514  0.00  0.00    +0.034 C 
ATOM     15  C   UNL     1      38.529 -24.677 -13.345  0.00  0.00    +0.004 C 
ATOM     16  C   UNL     1      36.592 -24.033 -12.125  0.00  0.00    +0.100 C 
ATOM     17  C   UNL     1      37.877 -24.553 -12.124  0.00  0.00    +0.021 C 
ENDBRANCH   4   5
ENDBRANCH   1   4
BRANCH   1  18
ATOM     18  C   UNL     1      35.069 -20.719 -20.895  0.00  0.00    +0.232 C 
BRANCH  18  19
ATOM     19  O   UNL     1      35.622 -19.438 -20.610  0.00  0.00    -0.473 OA
BRANCH  19  23
ATOM     20  C   UNL     1      34.957 -16.453 -23.416  0.00  0.00    -0.022 C 
ATOM     21  C   UNL     1      35.160 -17.768 -23.833  0.00  0.00    -0.001 C 
ATOM     22  C   UNL     1      34.978 -16.140 -22.057  0.00  0.00    -0.001 C 
ATOM     23  C   UNL     1      35.403 -18.453 -21.536  0.00  0.00    +0.139 C 
ATOM     24  C   UNL     1      35.383 -18.771 -22.890  0.00  0.00    +0.037 C 
ATOM     25  C   UNL     1      35.202 -17.144 -21.114  0.00  0.00    +0.037 C 
BRANCH  20  26
ATOM     26  C   UNL     1      34.715 -15.362 -24.443  0.00  0.00    +0.022 C 
ATOM     27  C   UNL     1      33.745 -15.817 -25.548  0.00  0.00    +0.004 C 
ATOM     28  C   UNL     1      34.229 -14.057 -23.788  0.00  0.00    +0.004 C 
ATOM     29  C   UNL     1      33.516 -14.715 -26.580  0.00  0.00    +0.000 C 
ATOM     30  C   UNL     1      33.998 -12.962 -24.827  0.00  0.00    +0.000 C 
ATOM     31  C   UNL     1      33.043 -13.420 -25.925  0.00  0.00    +0.000 C 
ENDBRANCH  20  26
ENDBRANCH  19  23
ENDBRANCH  18  19
ENDBRANCH   1  18
TORSDOF 7
ENDMDL
