MODEL 1
REMARK VINA RESULT:     -13.5      0.000      0.000
REMARK  Name = 4369498
REMARK  8 active torsions:
REMARK  status: ('A' for Active; 'I' for Inactive)
REMARK    1  A    between atoms: N_2  and  C_11
REMARK    2  A    between atoms: C_5  and  C_25
REMARK    3  A    between atoms: C_8  and  S_14
REMARK    4  A    between atoms: C_13  and  O_23
REMARK    5  A    between atoms: S_14  and  N_17
REMARK    6  A    between atoms: N_17  and  C_19
REMARK    7  A    between atoms: C_19  and  C_20
REMARK    8  A    between atoms: C_26  and  C_32
REMARK                            x       y       z     vdW  Elec       q    Type
REMARK                         _______ _______ _______ _____ _____    ______ ____
ROOT
ATOM      1  O   UNL     1      33.514 -11.448 -23.352  0.00  0.00    -0.424 OA
ATOM      2  N   UNL     1      34.147 -13.541 -24.060  0.00  0.00    -0.265 N 
ATOM      3  N   UNL     1      32.345 -13.189 -22.506  0.00  0.00    -0.193 NA
ATOM      4  C   UNL     1      33.317 -12.795 -23.296  0.00  0.00    +0.293 C 
ATOM      5  C   UNL     1      32.566 -10.952 -22.509  0.00  0.00    +0.168 C 
ATOM      6  C   UNL     1      31.859 -12.012 -21.998  0.00  0.00    +0.141 C 
ATOM      7  H   UNL     1      34.809 -13.026 -24.577  0.00  0.00    +0.157 HD
ENDROOT
BRANCH   2  11
ATOM      8  C   UNL     1      34.924 -17.115 -23.422  0.00  0.00    +0.123 C 
ATOM      9  C   UNL     1      34.846 -15.730 -23.262  0.00  0.00    +0.038 C 
ATOM     10  C   UNL     1      34.374 -17.718 -24.553  0.00  0.00    +0.023 C 
ATOM     11  C   UNL     1      34.218 -14.952 -24.234  0.00  0.00    +0.087 C 
ATOM     12  C   UNL     1      33.746 -16.939 -25.524  0.00  0.00    +0.040 C 
ATOM     13  C   UNL     1      33.667 -15.555 -25.365  0.00  0.00    +0.152 C 
BRANCH   8  14
ATOM     14  S   UNL     1      35.714 -18.091 -22.208  0.00  0.00    +0.060 S 
ATOM     15  O   UNL     1      37.036 -18.465 -22.694  0.00  0.00    -0.153 OA
ATOM     16  O   UNL     1      35.592 -17.398 -20.933  0.00  0.00    -0.153 OA
BRANCH  14  17
ATOM     17  N   UNL     1      34.731 -19.489 -22.164  0.00  0.00    -0.179 NA
ATOM     18  H   UNL     1      35.203 -20.199 -22.723  0.00  0.00    +0.149 HD
BRANCH  17  19
ATOM     19  C   UNL     1      34.403 -20.113 -20.874  0.00  0.00    +0.091 C 
BRANCH  19  20
ATOM     20  C   UNL     1      35.316 -21.259 -20.594  0.00  0.00    +0.017 C 
ATOM     21  C   UNL     1      36.401 -21.100 -19.568  0.00  0.00    +0.001 C 
ATOM     22  C   UNL     1      35.216 -21.972 -19.277  0.00  0.00    +0.001 C 
ENDBRANCH  19  20
ENDBRANCH  17  19
ENDBRANCH  14  17
ENDBRANCH   8  14
BRANCH  13  23
ATOM     23  O   UNL     1      33.051 -14.812 -26.326  0.00  0.00    -0.470 OA
ATOM     24  C   UNL     1      33.871 -13.924 -27.083  0.00  0.00    +0.253 C 
ENDBRANCH  13  23
ENDBRANCH   2  11
BRANCH   5  25
ATOM     25  C   UNL     1      32.530  -9.518 -22.359  0.00  0.00    +0.036 C 
ATOM     26  C   UNL     1      32.941  -7.309 -23.246  0.00  0.00    +0.002 C 
ATOM     27  C   UNL     1      32.977  -8.695 -23.392  0.00  0.00    +0.003 C 
ATOM     28  C   UNL     1      32.045  -8.953 -21.179  0.00  0.00    +0.003 C 
ATOM     29  C   UNL     1      32.457  -6.745 -22.066  0.00  0.00    +0.000 C 
ATOM     30  C   UNL     1      32.008  -7.567 -21.032  0.00  0.00    +0.000 C 
BRANCH  26  32
ATOM     31  N   UNL     1      32.939  -4.691 -25.904  0.00  0.00    -0.242 NA
ATOM     32  C   UNL     1      33.406  -6.456 -24.318  0.00  0.00    +0.019 C 
ATOM     33  C   UNL     1      34.708  -6.550 -24.796  0.00  0.00    +0.003 C 
ATOM     34  C   UNL     1      32.568  -5.518 -24.901  0.00  0.00    +0.099 C 
ATOM     35  C   UNL     1      35.126  -5.717 -25.827  0.00  0.00    +0.021 C 
ATOM     36  C   UNL     1      34.211  -4.813 -26.342  0.00  0.00    +0.099 C 
ENDBRANCH  26  32
ENDBRANCH   5  25
TORSDOF 8
ENDMDL
MODEL 2
REMARK VINA RESULT:     -13.3      4.989      9.859
REMARK  Name = 4369498
REMARK  8 active torsions:
REMARK  status: ('A' for Active; 'I' for Inactive)
REMARK    1  A    between atoms: N_2  and  C_11
REMARK    2  A    between atoms: C_5  and  C_25
REMARK    3  A    between atoms: C_8  and  S_14
REMARK    4  A    between atoms: C_13  and  O_23
REMARK    5  A    between atoms: S_14  and  N_17
REMARK    6  A    between atoms: N_17  and  C_19
REMARK    7  A    between atoms: C_19  and  C_20
REMARK    8  A    between atoms: C_26  and  C_32
REMARK                            x       y       z     vdW  Elec       q    Type
REMARK                         _______ _______ _______ _____ _____    ______ ____
ROOT
ATOM      1  O   UNL     1      34.397 -20.506 -20.940  0.00  0.00    -0.424 OA
ATOM      2  N   UNL     1      34.083 -21.798 -19.066  0.00  0.00    -0.265 N 
ATOM      3  N   UNL     1      36.179 -20.727 -19.565  0.00  0.00    -0.193 NA
ATOM      4  C   UNL     1      34.923 -21.033 -19.800  0.00  0.00    +0.293 C 
ATOM      5  C   UNL     1      35.432 -19.797 -21.471  0.00  0.00    +0.168 C 
ATOM      6  C   UNL     1      36.511 -19.935 -20.634  0.00  0.00    +0.141 C 
ATOM      7  H   UNL     1      33.176 -21.891 -19.438  0.00  0.00    +0.157 HD
ENDROOT
BRANCH   2  11
ATOM      8  C   UNL     1      35.821 -23.229 -16.114  0.00  0.00    +0.123 C 
ATOM      9  C   UNL     1      35.591 -22.551 -17.312  0.00  0.00    +0.038 C 
ATOM     10  C   UNL     1      34.762 -23.845 -15.447  0.00  0.00    +0.023 C 
ATOM     11  C   UNL     1      34.303 -22.490 -17.842  0.00  0.00    +0.087 C 
ATOM     12  C   UNL     1      33.473 -23.783 -15.977  0.00  0.00    +0.040 C 
ATOM     13  C   UNL     1      33.244 -23.106 -17.175  0.00  0.00    +0.152 C 
BRANCH   8  14
ATOM     14  S   UNL     1      37.435 -23.310 -15.451  0.00  0.00    +0.060 S 
ATOM     15  O   UNL     1      38.360 -22.691 -16.392  0.00  0.00    -0.153 OA
ATOM     16  O   UNL     1      37.377 -22.820 -14.080  0.00  0.00    -0.153 OA
BRANCH  14  17
ATOM     17  N   UNL     1      37.735 -24.992 -15.416  0.00  0.00    -0.179 NA
ATOM     18  H   UNL     1      38.457 -25.178 -16.112  0.00  0.00    +0.149 HD
BRANCH  17  19
ATOM     19  C   UNL     1      38.175 -25.631 -14.167  0.00  0.00    +0.091 C 
BRANCH  19  20
ATOM     20  C   UNL     1      39.639 -25.436 -13.960  0.00  0.00    +0.017 C 
ATOM     21  C   UNL     1      40.592 -26.510 -14.400  0.00  0.00    +0.001 C 
ATOM     22  C   UNL     1      40.525 -25.213 -15.151  0.00  0.00    +0.001 C 
ENDBRANCH  19  20
ENDBRANCH  17  19
ENDBRANCH  14  17
ENDBRANCH   8  14
BRANCH  13  23
ATOM     23  O   UNL     1      31.978 -23.058 -17.677  0.00  0.00    -0.470 OA
ATOM     24  C   UNL     1      30.911 -22.956 -16.735  0.00  0.00    +0.253 C 
ENDBRANCH  13  23
ENDBRANCH   2  11
BRANCH   5  25
ATOM     25  C   UNL     1      35.169 -19.112 -22.713  0.00  0.00    +0.036 C 
ATOM     26  C   UNL     1      34.654 -17.081 -23.915  0.00  0.00    +0.002 C 
ATOM     27  C   UNL     1      34.907 -17.742 -22.714  0.00  0.00    +0.003 C 
ATOM     28  C   UNL     1      35.178 -19.821 -23.915  0.00  0.00    +0.003 C 
ATOM     29  C   UNL     1      34.662 -17.790 -25.116  0.00  0.00    +0.000 C 
ATOM     30  C   UNL     1      34.925 -19.160 -25.117  0.00  0.00    +0.000 C 
BRANCH  26  32
ATOM     31  N   UNL     1      33.561 -13.715 -25.095  0.00  0.00    -0.242 NA
ATOM     32  C   UNL     1      34.381 -15.660 -23.915  0.00  0.00    +0.019 C 
ATOM     33  C   UNL     1      34.652 -14.877 -22.799  0.00  0.00    +0.003 C 
ATOM     34  C   UNL     1      33.840 -15.036 -25.028  0.00  0.00    +0.099 C 
ATOM     35  C   UNL     1      34.380 -13.514 -22.829  0.00  0.00    +0.021 C 
ATOM     36  C   UNL     1      33.839 -12.987 -23.991  0.00  0.00    +0.099 C 
ENDBRANCH  26  32
ENDBRANCH   5  25
TORSDOF 8
ENDMDL
MODEL 3
REMARK VINA RESULT:     -13.0      5.395     10.384
REMARK  Name = 4369498
REMARK  8 active torsions:
REMARK  status: ('A' for Active; 'I' for Inactive)
REMARK    1  A    between atoms: N_2  and  C_11
REMARK    2  A    between atoms: C_5  and  C_25
REMARK    3  A    between atoms: C_8  and  S_14
REMARK    4  A    between atoms: C_13  and  O_23
REMARK    5  A    between atoms: S_14  and  N_17
REMARK    6  A    between atoms: N_17  and  C_19
REMARK    7  A    between atoms: C_19  and  C_20
REMARK    8  A    between atoms: C_26  and  C_32
REMARK                            x       y       z     vdW  Elec       q    Type
REMARK                         _______ _______ _______ _____ _____    ______ ____
ROOT
ATOM      1  O   UNL     1      33.858 -20.870 -20.302  0.00  0.00    -0.424 OA
ATOM      2  N   UNL     1      33.101 -22.115 -18.526  0.00  0.00    -0.265 N 
ATOM      3  N   UNL     1      35.442 -21.764 -18.959  0.00  0.00    -0.193 NA
ATOM      4  C   UNL     1      34.160 -21.621 -19.207  0.00  0.00    +0.293 C 
ATOM      5  C   UNL     1      35.078 -20.508 -20.788  0.00  0.00    +0.168 C 
ATOM      6  C   UNL     1      36.036 -21.053 -19.969  0.00  0.00    +0.141 C 
ATOM      7  H   UNL     1      32.221 -21.877 -18.897  0.00  0.00    +0.157 HD
ENDROOT
BRANCH   2  11
ATOM      8  C   UNL     1      34.206 -24.300 -15.734  0.00  0.00    +0.123 C 
ATOM      9  C   UNL     1      34.235 -23.500 -16.878  0.00  0.00    +0.038 C 
ATOM     10  C   UNL     1      33.000 -24.522 -15.070  0.00  0.00    +0.023 C 
ATOM     11  C   UNL     1      33.058 -22.925 -17.356  0.00  0.00    +0.087 C 
ATOM     12  C   UNL     1      31.823 -23.947 -15.548  0.00  0.00    +0.040 C 
ATOM     13  C   UNL     1      31.852 -23.148 -16.691  0.00  0.00    +0.152 C 
BRANCH   8  14
ATOM     14  S   UNL     1      35.678 -25.023 -15.136  0.00  0.00    +0.060 S 
ATOM     15  O   UNL     1      35.734 -24.847 -13.691  0.00  0.00    -0.153 OA
ATOM     16  O   UNL     1      35.773 -26.365 -15.696  0.00  0.00    -0.153 OA
BRANCH  14  17
ATOM     17  N   UNL     1      36.885 -24.048 -15.853  0.00  0.00    -0.179 NA
ATOM     18  H   UNL     1      36.489 -23.114 -15.953  0.00  0.00    +0.149 HD
BRANCH  17  19
ATOM     19  C   UNL     1      38.187 -23.888 -15.188  0.00  0.00    +0.091 C 
BRANCH  19  20
ATOM     20  C   UNL     1      38.821 -25.216 -14.941  0.00  0.00    +0.017 C 
ATOM     21  C   UNL     1      40.250 -25.272 -14.484  0.00  0.00    +0.001 C 
ATOM     22  C   UNL     1      39.144 -25.624 -13.534  0.00  0.00    +0.001 C 
ENDBRANCH  19  20
ENDBRANCH  17  19
ENDBRANCH  14  17
ENDBRANCH   8  14
BRANCH  13  23
ATOM     23  O   UNL     1      30.691 -22.596 -17.144  0.00  0.00    -0.470 OA
ATOM     24  C   UNL     1      29.490 -22.973 -16.472  0.00  0.00    +0.253 C 
ENDBRANCH  13  23
ENDBRANCH   2  11
BRANCH   5  25
ATOM     25  C   UNL     1      35.079 -19.689 -21.974  0.00  0.00    +0.036 C 
ATOM     26  C   UNL     1      34.878 -17.521 -23.022  0.00  0.00    +0.002 C 
ATOM     27  C   UNL     1      34.877 -18.313 -21.874  0.00  0.00    +0.003 C 
ATOM     28  C   UNL     1      35.283 -20.274 -23.225  0.00  0.00    +0.003 C 
ATOM     29  C   UNL     1      35.082 -18.107 -24.272  0.00  0.00    +0.000 C 
ATOM     30  C   UNL     1      35.284 -19.483 -24.373  0.00  0.00    +0.000 C 
BRANCH  26  32
ATOM     31  N   UNL     1      34.348 -13.967 -24.023  0.00  0.00    -0.242 NA
ATOM     32  C   UNL     1      34.668 -16.094 -22.918  0.00  0.00    +0.019 C 
ATOM     33  C   UNL     1      34.582 -15.470 -21.679  0.00  0.00    +0.003 C 
ATOM     34  C   UNL     1      34.545 -15.304 -24.051  0.00  0.00    +0.099 C 
ATOM     35  C   UNL     1      34.379 -14.096 -21.610  0.00  0.00    +0.021 C 
ATOM     36  C   UNL     1      34.270 -13.397 -22.801  0.00  0.00    +0.099 C 
ENDBRANCH  26  32
ENDBRANCH   5  25
TORSDOF 8
ENDMDL
MODEL 4
REMARK VINA RESULT:     -12.7      3.514     11.033
REMARK  Name = 4369498
REMARK  8 active torsions:
REMARK  status: ('A' for Active; 'I' for Inactive)
REMARK    1  A    between atoms: N_2  and  C_11
REMARK    2  A    between atoms: C_5  and  C_25
REMARK    3  A    between atoms: C_8  and  S_14
REMARK    4  A    between atoms: C_13  and  O_23
REMARK    5  A    between atoms: S_14  and  N_17
REMARK    6  A    between atoms: N_17  and  C_19
REMARK    7  A    between atoms: C_19  and  C_20
REMARK    8  A    between atoms: C_26  and  C_32
REMARK                            x       y       z     vdW  Elec       q    Type
REMARK                         _______ _______ _______ _____ _____    ______ ____
ROOT
ATOM      1  O   UNL     1      32.806 -11.812 -23.256  0.00  0.00    -0.424 OA
ATOM      2  N   UNL     1      32.138  -9.896 -22.178  0.00  0.00    -0.265 N 
ATOM      3  N   UNL     1      34.046  -9.961 -23.642  0.00  0.00    -0.193 NA
ATOM      4  C   UNL     1      33.016 -10.488 -23.020  0.00  0.00    +0.293 C 
ATOM      5  C   UNL     1      33.809 -12.146 -24.115  0.00  0.00    +0.168 C 
ATOM      6  C   UNL     1      34.559 -11.020 -24.346  0.00  0.00    +0.141 C 
ATOM      7  H   UNL     1      31.437 -10.491 -21.826  0.00  0.00    +0.157 HD
ENDROOT
BRANCH   2  11
ATOM      8  C   UNL     1      31.632  -6.218 -22.180  0.00  0.00    +0.123 C 
ATOM      9  C   UNL     1      31.703  -7.542 -22.615  0.00  0.00    +0.038 C 
ATOM     10  C   UNL     1      31.924  -5.903 -20.853  0.00  0.00    +0.023 C 
ATOM     11  C   UNL     1      32.067  -8.550 -21.721  0.00  0.00    +0.087 C 
ATOM     12  C   UNL     1      32.287  -6.911 -19.960  0.00  0.00    +0.040 C 
ATOM     13  C   UNL     1      32.358  -8.234 -20.394  0.00  0.00    +0.152 C 
BRANCH   8  14
ATOM     14  S   UNL     1      31.181  -4.955 -23.299  0.00  0.00    +0.060 S 
ATOM     15  O   UNL     1      30.443  -5.550 -24.405  0.00  0.00    -0.153 OA
ATOM     16  O   UNL     1      30.571  -3.878 -22.530  0.00  0.00    -0.153 OA
BRANCH  14  17
ATOM     17  N   UNL     1      32.697  -4.418 -23.878  0.00  0.00    -0.179 NA
ATOM     18  H   UNL     1      33.410  -4.918 -23.348  0.00  0.00    +0.149 HD
BRANCH  17  19
ATOM     19  C   UNL     1      33.035  -4.578 -25.300  0.00  0.00    +0.091 C 
BRANCH  19  20
ATOM     20  C   UNL     1      33.721  -5.882 -25.537  0.00  0.00    +0.017 C 
ATOM     21  C   UNL     1      35.178  -5.889 -25.898  0.00  0.00    +0.001 C 
ATOM     22  C   UNL     1      34.739  -6.366 -24.545  0.00  0.00    +0.001 C 
ENDBRANCH  19  20
ENDBRANCH  17  19
ENDBRANCH  14  17
ENDBRANCH   8  14
BRANCH  13  23
ATOM     23  O   UNL     1      32.716  -9.204 -19.506  0.00  0.00    -0.470 OA
ATOM     24  C   UNL     1      31.675 -10.041 -19.006  0.00  0.00    +0.253 C 
ENDBRANCH  13  23
ENDBRANCH   2  11
BRANCH   5  25
ATOM     25  C   UNL     1      33.847 -13.519 -24.553  0.00  0.00    +0.036 C 
ATOM     26  C   UNL     1      34.398 -15.835 -24.137  0.00  0.00    +0.002 C 
ATOM     27  C   UNL     1      34.362 -14.507 -23.713  0.00  0.00    +0.003 C 
ATOM     28  C   UNL     1      33.367 -13.862 -25.818  0.00  0.00    +0.003 C 
ATOM     29  C   UNL     1      33.918 -16.176 -25.402  0.00  0.00    +0.000 C 
ATOM     30  C   UNL     1      33.402 -15.189 -26.242  0.00  0.00    +0.000 C 
BRANCH  26  32
ATOM     31  N   UNL     1      35.533 -17.563 -21.032  0.00  0.00    -0.242 NA
ATOM     32  C   UNL     1      34.934 -16.858 -23.266  0.00  0.00    +0.019 C 
ATOM     33  C   UNL     1      35.355 -18.083 -23.772  0.00  0.00    +0.003 C 
ATOM     34  C   UNL     1      35.043 -16.650 -21.900  0.00  0.00    +0.099 C 
ATOM     35  C   UNL     1      35.865 -19.047 -22.911  0.00  0.00    +0.021 C 
ATOM     36  C   UNL     1      35.933 -18.740 -21.561  0.00  0.00    +0.099 C 
ENDBRANCH  26  32
ENDBRANCH   5  25
TORSDOF 8
ENDMDL
MODEL 5
REMARK VINA RESULT:     -12.1      6.499     11.243
REMARK  Name = 4369498
REMARK  8 active torsions:
REMARK  status: ('A' for Active; 'I' for Inactive)
REMARK    1  A    between atoms: N_2  and  C_11
REMARK    2  A    between atoms: C_5  and  C_25
REMARK    3  A    between atoms: C_8  and  S_14
REMARK    4  A    between atoms: C_13  and  O_23
REMARK    5  A    between atoms: S_14  and  N_17
REMARK    6  A    between atoms: N_17  and  C_19
REMARK    7  A    between atoms: C_19  and  C_20
REMARK    8  A    between atoms: C_26  and  C_32
REMARK                            x       y       z     vdW  Elec       q    Type
REMARK                         _______ _______ _______ _____ _____    ______ ____
ROOT
ATOM      1  O   UNL     1      35.267 -21.185 -19.126  0.00  0.00    -0.424 OA
ATOM      2  N   UNL     1      34.673 -22.551 -17.377  0.00  0.00    -0.265 N 
ATOM      3  N   UNL     1      33.120 -21.897 -19.095  0.00  0.00    -0.193 NA
ATOM      4  C   UNL     1      34.296 -21.912 -18.508  0.00  0.00    +0.293 C 
ATOM      5  C   UNL     1      34.630 -20.661 -20.211  0.00  0.00    +0.168 C 
ATOM      6  C   UNL     1      33.329 -21.095 -20.187  0.00  0.00    +0.141 C 
ATOM      7  H   UNL     1      35.615 -22.420 -17.121  0.00  0.00    +0.157 HD
ENDROOT
BRANCH   2  11
ATOM      8  C   UNL     1      31.802 -23.994 -15.517  0.00  0.00    +0.123 C 
ATOM      9  C   UNL     1      32.548 -23.188 -16.378  0.00  0.00    +0.038 C 
ATOM     10  C   UNL     1      32.433 -24.993 -14.775  0.00  0.00    +0.023 C 
ATOM     11  C   UNL     1      33.924 -23.382 -16.497  0.00  0.00    +0.087 C 
ATOM     12  C   UNL     1      33.810 -25.186 -14.894  0.00  0.00    +0.040 C 
ATOM     13  C   UNL     1      34.555 -24.381 -15.755  0.00  0.00    +0.152 C 
BRANCH   8  14
ATOM     14  S   UNL     1      30.080 -23.751 -15.365  0.00  0.00    +0.060 S 
ATOM     15  O   UNL     1      29.460 -25.012 -14.977  0.00  0.00    -0.153 OA
ATOM     16  O   UNL     1      29.869 -22.568 -14.540  0.00  0.00    -0.153 OA
BRANCH  14  17
ATOM     17  N   UNL     1      29.616 -23.385 -16.969  0.00  0.00    -0.179 NA
ATOM     18  H   UNL     1      30.058 -24.081 -17.569  0.00  0.00    +0.149 HD
BRANCH  17  19
ATOM     19  C   UNL     1      28.192 -23.355 -17.330  0.00  0.00    +0.091 C 
BRANCH  19  20
ATOM     20  C   UNL     1      27.570 -22.061 -16.923  0.00  0.00    +0.017 C 
ATOM     21  C   UNL     1      26.280 -21.634 -17.560  0.00  0.00    +0.001 C 
ATOM     22  C   UNL     1      26.297 -22.077 -16.127  0.00  0.00    +0.001 C 
ENDBRANCH  19  20
ENDBRANCH  17  19
ENDBRANCH  14  17
ENDBRANCH   8  14
BRANCH  13  23
ATOM     23  O   UNL     1      35.899 -24.585 -15.856  0.00  0.00    -0.470 OA
ATOM     24  C   UNL     1      36.492 -25.470 -14.908  0.00  0.00    +0.253 C 
ENDBRANCH  13  23
ENDBRANCH   2  11
BRANCH   5  25
ATOM     25  C   UNL     1      35.424 -19.823 -21.076  0.00  0.00    +0.036 C 
ATOM     26  C   UNL     1      35.568 -18.156 -22.819  0.00  0.00    +0.002 C 
ATOM     27  C   UNL     1      34.801 -18.966 -21.983  0.00  0.00    +0.003 C 
ATOM     28  C   UNL     1      36.817 -19.868 -21.005  0.00  0.00    +0.003 C 
ATOM     29  C   UNL     1      36.961 -18.203 -22.748  0.00  0.00    +0.000 C 
ATOM     30  C   UNL     1      37.585 -19.059 -21.840  0.00  0.00    +0.000 C 
BRANCH  26  32
ATOM     31  N   UNL     1      34.047 -16.900 -25.985  0.00  0.00    -0.242 NA
ATOM     32  C   UNL     1      34.922 -17.269 -23.761  0.00  0.00    +0.019 C 
ATOM     33  C   UNL     1      34.555 -15.978 -23.396  0.00  0.00    +0.003 C 
ATOM     34  C   UNL     1      34.647 -17.678 -25.057  0.00  0.00    +0.099 C 
ATOM     35  C   UNL     1      33.936 -15.149 -24.323  0.00  0.00    +0.021 C 
ATOM     36  C   UNL     1      33.706 -15.653 -25.593  0.00  0.00    +0.099 C 
ENDBRANCH  26  32
ENDBRANCH   5  25
TORSDOF 8
ENDMDL
MODEL 6
REMARK VINA RESULT:     -12.0      7.173     11.617
REMARK  Name = 4369498
REMARK  8 active torsions:
REMARK  status: ('A' for Active; 'I' for Inactive)
REMARK    1  A    between atoms: N_2  and  C_11
REMARK    2  A    between atoms: C_5  and  C_25
REMARK    3  A    between atoms: C_8  and  S_14
REMARK    4  A    between atoms: C_13  and  O_23
REMARK    5  A    between atoms: S_14  and  N_17
REMARK    6  A    between atoms: N_17  and  C_19
REMARK    7  A    between atoms: C_19  and  C_20
REMARK    8  A    between atoms: C_26  and  C_32
REMARK                            x       y       z     vdW  Elec       q    Type
REMARK                         _______ _______ _______ _____ _____    ______ ____
ROOT
ATOM      1  O   UNL     1      36.349 -21.105 -18.723  0.00  0.00    -0.424 OA
ATOM      2  N   UNL     1      36.139 -22.366 -16.814  0.00  0.00    -0.265 N 
ATOM      3  N   UNL     1      34.554 -22.477 -18.621  0.00  0.00    -0.193 NA
ATOM      4  C   UNL     1      35.636 -22.031 -18.024  0.00  0.00    +0.293 C 
ATOM      5  C   UNL     1      35.637 -20.958 -19.875  0.00  0.00    +0.168 C 
ATOM      6  C   UNL     1      34.549 -21.792 -19.808  0.00  0.00    +0.141 C 
ATOM      7  H   UNL     1      36.971 -21.900 -16.568  0.00  0.00    +0.157 HD
ENDROOT
BRANCH   2  11
ATOM      8  C   UNL     1      33.810 -24.183 -14.564  0.00  0.00    +0.123 C 
ATOM      9  C   UNL     1      34.297 -23.290 -15.520  0.00  0.00    +0.038 C 
ATOM     10  C   UNL     1      34.681 -25.068 -13.929  0.00  0.00    +0.023 C 
ATOM     11  C   UNL     1      35.655 -23.284 -15.839  0.00  0.00    +0.087 C 
ATOM     12  C   UNL     1      36.039 -25.061 -14.248  0.00  0.00    +0.040 C 
ATOM     13  C   UNL     1      36.526 -24.169 -15.204  0.00  0.00    +0.152 C 
BRANCH   8  14
ATOM     14  S   UNL     1      32.111 -24.190 -14.161  0.00  0.00    +0.060 S 
ATOM     15  O   UNL     1      31.647 -25.570 -14.109  0.00  0.00    -0.153 OA
ATOM     16  O   UNL     1      31.927 -23.331 -12.999  0.00  0.00    -0.153 OA
BRANCH  14  17
ATOM     17  N   UNL     1      31.407 -23.427 -15.519  0.00  0.00    -0.179 NA
ATOM     18  H   UNL     1      32.094 -23.471 -16.271  0.00  0.00    +0.149 HD
BRANCH  17  19
ATOM     19  C   UNL     1      30.142 -23.935 -16.069  0.00  0.00    +0.091 C 
BRANCH  19  20
ATOM     20  C   UNL     1      29.297 -22.813 -16.573  0.00  0.00    +0.017 C 
ATOM     21  C   UNL     1      28.011 -23.125 -17.282  0.00  0.00    +0.001 C 
ATOM     22  C   UNL     1      27.983 -22.528 -15.907  0.00  0.00    +0.001 C 
ENDBRANCH  19  20
ENDBRANCH  17  19
ENDBRANCH  14  17
ENDBRANCH   8  14
BRANCH  13  23
ATOM     23  O   UNL     1      37.856 -24.177 -15.501  0.00  0.00    -0.470 OA
ATOM     24  C   UNL     1      38.685 -25.048 -14.734  0.00  0.00    +0.253 C 
ENDBRANCH  13  23
ENDBRANCH   2  11
BRANCH   5  25
ATOM     25  C   UNL     1      36.159 -20.017 -20.835  0.00  0.00    +0.036 C 
ATOM     26  C   UNL     1      35.828 -18.567 -22.739  0.00  0.00    +0.002 C 
ATOM     27  C   UNL     1      35.322 -19.476 -21.811  0.00  0.00    +0.003 C 
ATOM     28  C   UNL     1      37.504 -19.647 -20.788  0.00  0.00    +0.003 C 
ATOM     29  C   UNL     1      37.173 -18.198 -22.691  0.00  0.00    +0.000 C 
ATOM     30  C   UNL     1      38.011 -18.737 -21.715  0.00  0.00    +0.000 C 
BRANCH  26  32
ATOM     31  N   UNL     1      33.313 -18.362 -25.487  0.00  0.00    -0.242 NA
ATOM     32  C   UNL     1      34.960 -18.007 -23.752  0.00  0.00    +0.019 C 
ATOM     33  C   UNL     1      34.915 -16.636 -23.980  0.00  0.00    +0.003 C 
ATOM     34  C   UNL     1      34.146 -18.820 -24.526  0.00  0.00    +0.099 C 
ATOM     35  C   UNL     1      34.070 -16.128 -24.960  0.00  0.00    +0.021 C 
ATOM     36  C   UNL     1      33.297 -17.025 -25.679  0.00  0.00    +0.099 C 
ENDBRANCH  26  32
ENDBRANCH   5  25
TORSDOF 8
ENDMDL
MODEL 7
REMARK VINA RESULT:     -11.9      3.129      5.960
REMARK  Name = 4369498
REMARK  8 active torsions:
REMARK  status: ('A' for Active; 'I' for Inactive)
REMARK    1  A    between atoms: N_2  and  C_11
REMARK    2  A    between atoms: C_5  and  C_25
REMARK    3  A    between atoms: C_8  and  S_14
REMARK    4  A    between atoms: C_13  and  O_23
REMARK    5  A    between atoms: S_14  and  N_17
REMARK    6  A    between atoms: N_17  and  C_19
REMARK    7  A    between atoms: C_19  and  C_20
REMARK    8  A    between atoms: C_26  and  C_32
REMARK                            x       y       z     vdW  Elec       q    Type
REMARK                         _______ _______ _______ _____ _____    ______ ____
ROOT
ATOM      1  O   UNL     1      34.580 -16.578 -22.792  0.00  0.00    -0.424 OA
ATOM      2  N   UNL     1      35.168 -18.611 -21.898  0.00  0.00    -0.265 N 
ATOM      3  N   UNL     1      35.021 -16.608 -20.574  0.00  0.00    -0.193 NA
ATOM      4  C   UNL     1      34.941 -17.294 -21.692  0.00  0.00    +0.293 C 
ATOM      5  C   UNL     1      34.418 -15.314 -22.311  0.00  0.00    +0.168 C 
ATOM      6  C   UNL     1      34.686 -15.337 -20.965  0.00  0.00    +0.141 C 
ATOM      7  H   UNL     1      35.047 -18.912 -22.828  0.00  0.00    +0.157 HD
ENDROOT
BRANCH   2  11
ATOM      8  C   UNL     1      34.960 -21.527 -19.609  0.00  0.00    +0.123 C 
ATOM      9  C   UNL     1      34.595 -20.523 -20.507  0.00  0.00    +0.038 C 
ATOM     10  C   UNL     1      36.286 -21.638 -19.190  0.00  0.00    +0.023 C 
ATOM     11  C   UNL     1      35.555 -19.632 -20.984  0.00  0.00    +0.087 C 
ATOM     12  C   UNL     1      37.246 -20.747 -19.668  0.00  0.00    +0.040 C 
ATOM     13  C   UNL     1      36.881 -19.744 -20.565  0.00  0.00    +0.152 C 
BRANCH   8  14
ATOM     14  S   UNL     1      33.758 -22.641 -19.007  0.00  0.00    +0.060 S 
ATOM     15  O   UNL     1      32.480 -21.946 -18.913  0.00  0.00    -0.153 OA
ATOM     16  O   UNL     1      33.850 -23.862 -19.795  0.00  0.00    -0.153 OA
BRANCH  14  17
ATOM     17  N   UNL     1      34.319 -22.969 -17.426  0.00  0.00    -0.179 NA
ATOM     18  H   UNL     1      34.375 -22.073 -16.941  0.00  0.00    +0.149 HD
BRANCH  17  19
ATOM     19  C   UNL     1      33.559 -23.877 -16.554  0.00  0.00    +0.091 C 
BRANCH  19  20
ATOM     20  C   UNL     1      32.727 -23.106 -15.584  0.00  0.00    +0.017 C 
ATOM     21  C   UNL     1      31.232 -23.120 -15.728  0.00  0.00    +0.001 C 
ATOM     22  C   UNL     1      31.883 -23.849 -14.590  0.00  0.00    +0.001 C 
ENDBRANCH  19  20
ENDBRANCH  17  19
ENDBRANCH  14  17
ENDBRANCH   8  14
BRANCH  13  23
ATOM     23  O   UNL     1      37.834 -18.882 -21.020  0.00  0.00    -0.470 OA
ATOM     24  C   UNL     1      37.950 -18.732 -22.433  0.00  0.00    +0.253 C 
ENDBRANCH  13  23
ENDBRANCH   2  11
BRANCH   5  25
ATOM     25  C   UNL     1      34.027 -14.309 -23.269  0.00  0.00    +0.036 C 
ATOM     26  C   UNL     1      33.403 -12.031 -23.777  0.00  0.00    +0.002 C 
ATOM     27  C   UNL     1      33.781 -13.002 -22.850  0.00  0.00    +0.003 C 
ATOM     28  C   UNL     1      33.897 -14.645 -24.617  0.00  0.00    +0.003 C 
ATOM     29  C   UNL     1      33.273 -12.368 -25.125  0.00  0.00    +0.000 C 
ATOM     30  C   UNL     1      33.520 -13.674 -25.545  0.00  0.00    +0.000 C 
BRANCH  26  32
ATOM     31  N   UNL     1      31.776  -9.138 -22.075  0.00  0.00    -0.242 NA
ATOM     32  C   UNL     1      33.147 -10.676 -23.342  0.00  0.00    +0.019 C 
ATOM     33  C   UNL     1      33.970  -9.627 -23.736  0.00  0.00    +0.003 C 
ATOM     34  C   UNL     1      32.072 -10.380 -22.518  0.00  0.00    +0.099 C 
ATOM     35  C   UNL     1      33.697  -8.335 -23.302  0.00  0.00    +0.021 C 
ATOM     36  C   UNL     1      32.598  -8.145 -22.480  0.00  0.00    +0.099 C 
ENDBRANCH  26  32
ENDBRANCH   5  25
TORSDOF 8
ENDMDL
MODEL 8
REMARK VINA RESULT:     -11.7      5.732     10.963
REMARK  Name = 4369498
REMARK  8 active torsions:
REMARK  status: ('A' for Active; 'I' for Inactive)
REMARK    1  A    between atoms: N_2  and  C_11
REMARK    2  A    between atoms: C_5  and  C_25
REMARK    3  A    between atoms: C_8  and  S_14
REMARK    4  A    between atoms: C_13  and  O_23
REMARK    5  A    between atoms: S_14  and  N_17
REMARK    6  A    between atoms: N_17  and  C_19
REMARK    7  A    between atoms: C_19  and  C_20
REMARK    8  A    between atoms: C_26  and  C_32
REMARK                            x       y       z     vdW  Elec       q    Type
REMARK                         _______ _______ _______ _____ _____    ______ ____
ROOT
ATOM      1  O   UNL     1      35.609 -21.013 -19.391  0.00  0.00    -0.424 OA
ATOM      2  N   UNL     1      35.814 -22.192 -17.430  0.00  0.00    -0.265 N 
ATOM      3  N   UNL     1      33.771 -22.134 -18.698  0.00  0.00    -0.193 NA
ATOM      4  C   UNL     1      35.025 -21.821 -18.464  0.00  0.00    +0.293 C 
ATOM      5  C   UNL     1      34.614 -20.799 -20.298  0.00  0.00    +0.168 C 
ATOM      6  C   UNL     1      33.502 -21.481 -19.873  0.00  0.00    +0.141 C 
ATOM      7  H   UNL     1      36.732 -21.835 -17.460  0.00  0.00    +0.157 HD
ENDROOT
BRANCH   2  11
ATOM      8  C   UNL     1      33.915 -23.976 -14.786  0.00  0.00    +0.123 C 
ATOM      9  C   UNL     1      34.208 -23.174 -15.889  0.00  0.00    +0.038 C 
ATOM     10  C   UNL     1      34.944 -24.620 -14.099  0.00  0.00    +0.023 C 
ATOM     11  C   UNL     1      35.530 -23.016 -16.304  0.00  0.00    +0.087 C 
ATOM     12  C   UNL     1      36.266 -24.461 -14.515  0.00  0.00    +0.040 C 
ATOM     13  C   UNL     1      36.559 -23.660 -15.618  0.00  0.00    +0.152 C 
BRANCH   8  14
ATOM     14  S   UNL     1      32.260 -24.172 -14.262  0.00  0.00    +0.060 S 
ATOM     15  O   UNL     1      31.937 -25.593 -14.251  0.00  0.00    -0.153 OA
ATOM     16  O   UNL     1      32.084 -23.390 -13.046  0.00  0.00    -0.153 OA
BRANCH  14  17
ATOM     17  N   UNL     1      31.384 -23.422 -15.524  0.00  0.00    -0.179 NA
ATOM     18  H   UNL     1      31.312 -24.104 -16.279  0.00  0.00    +0.149 HD
BRANCH  17  19
ATOM     19  C   UNL     1      30.025 -22.920 -15.272  0.00  0.00    +0.091 C 
BRANCH  19  20
ATOM     20  C   UNL     1      29.252 -22.828 -16.545  0.00  0.00    +0.017 C 
ATOM     21  C   UNL     1      28.301 -23.931 -16.908  0.00  0.00    +0.001 C 
ATOM     22  C   UNL     1      27.771 -22.592 -16.488  0.00  0.00    +0.001 C 
ENDBRANCH  19  20
ENDBRANCH  17  19
ENDBRANCH  14  17
ENDBRANCH   8  14
BRANCH  13  23
ATOM     23  O   UNL     1      37.857 -23.517 -16.007  0.00  0.00    -0.470 OA
ATOM     24  C   UNL     1      38.828 -24.307 -15.324  0.00  0.00    +0.253 C 
ENDBRANCH  13  23
ENDBRANCH   2  11
BRANCH   5  25
ATOM     25  C   UNL     1      34.943 -19.957 -21.422  0.00  0.00    +0.036 C 
ATOM     26  C   UNL     1      35.044 -17.768 -22.440  0.00  0.00    +0.002 C 
ATOM     27  C   UNL     1      34.726 -18.581 -21.353  0.00  0.00    +0.003 C 
ATOM     28  C   UNL     1      35.480 -20.520 -22.580  0.00  0.00    +0.003 C 
ATOM     29  C   UNL     1      35.581 -18.332 -23.598  0.00  0.00    +0.000 C 
ATOM     30  C   UNL     1      35.799 -19.708 -23.668  0.00  0.00    +0.000 C 
BRANCH  26  32
ATOM     31  N   UNL     1      34.639 -14.219 -23.512  0.00  0.00    -0.242 NA
ATOM     32  C   UNL     1      34.817 -16.342 -22.368  0.00  0.00    +0.019 C 
ATOM     33  C   UNL     1      34.567 -15.715 -21.152  0.00  0.00    +0.003 C 
ATOM     34  C   UNL     1      34.842 -15.555 -23.509  0.00  0.00    +0.099 C 
ATOM     35  C   UNL     1      34.353 -14.342 -21.115  0.00  0.00    +0.021 C 
ATOM     36  C   UNL     1      34.399 -13.646 -22.312  0.00  0.00    +0.099 C 
ENDBRANCH  26  32
ENDBRANCH   5  25
TORSDOF 8
ENDMDL
MODEL 9
REMARK VINA RESULT:     -11.7      3.754     12.613
REMARK  Name = 4369498
REMARK  8 active torsions:
REMARK  status: ('A' for Active; 'I' for Inactive)
REMARK    1  A    between atoms: N_2  and  C_11
REMARK    2  A    between atoms: C_5  and  C_25
REMARK    3  A    between atoms: C_8  and  S_14
REMARK    4  A    between atoms: C_13  and  O_23
REMARK    5  A    between atoms: S_14  and  N_17
REMARK    6  A    between atoms: N_17  and  C_19
REMARK    7  A    between atoms: C_19  and  C_20
REMARK    8  A    between atoms: C_26  and  C_32
REMARK                            x       y       z     vdW  Elec       q    Type
REMARK                         _______ _______ _______ _____ _____    ______ ____
ROOT
ATOM      1  O   UNL     1      35.322 -20.183 -19.914  0.00  0.00    -0.424 OA
ATOM      2  N   UNL     1      35.388 -18.644 -21.618  0.00  0.00    -0.265 N 
ATOM      3  N   UNL     1      33.588 -20.220 -21.365  0.00  0.00    -0.193 NA
ATOM      4  C   UNL     1      34.727 -19.662 -21.022  0.00  0.00    +0.293 C 
ATOM      5  C   UNL     1      34.464 -21.168 -19.525  0.00  0.00    +0.168 C 
ATOM      6  C   UNL     1      33.414 -21.186 -20.409  0.00  0.00    +0.141 C 
ATOM      7  H   UNL     1      36.233 -18.388 -21.183  0.00  0.00    +0.157 HD
ENDROOT
BRANCH   2  11
ATOM      8  C   UNL     1      34.226 -15.836 -23.751  0.00  0.00    +0.123 C 
ATOM      9  C   UNL     1      34.558 -16.591 -22.625  0.00  0.00    +0.038 C 
ATOM     10  C   UNL     1      34.394 -16.376 -25.026  0.00  0.00    +0.023 C 
ATOM     11  C   UNL     1      35.057 -17.884 -22.776  0.00  0.00    +0.087 C 
ATOM     12  C   UNL     1      34.893 -17.670 -25.176  0.00  0.00    +0.040 C 
ATOM     13  C   UNL     1      35.225 -18.424 -24.051  0.00  0.00    +0.152 C 
BRANCH   8  14
ATOM     14  S   UNL     1      33.598 -14.217 -23.564  0.00  0.00    +0.060 S 
ATOM     15  O   UNL     1      34.696 -13.326 -23.211  0.00  0.00    -0.153 OA
ATOM     16  O   UNL     1      32.785 -13.918 -24.735  0.00  0.00    -0.153 OA
BRANCH  14  17
ATOM     17  N   UNL     1      32.566 -14.377 -22.211  0.00  0.00    -0.179 NA
ATOM     18  H   UNL     1      32.726 -15.307 -21.826  0.00  0.00    +0.149 HD
BRANCH  17  19
ATOM     19  C   UNL     1      32.675 -13.429 -21.092  0.00  0.00    +0.091 C 
BRANCH  19  20
ATOM     20  C   UNL     1      31.652 -12.350 -21.211  0.00  0.00    +0.017 C 
ATOM     21  C   UNL     1      31.876 -11.045 -20.504  0.00  0.00    +0.001 C 
ATOM     22  C   UNL     1      31.977 -11.114 -21.999  0.00  0.00    +0.001 C 
ENDBRANCH  19  20
ENDBRANCH  17  19
ENDBRANCH  14  17
ENDBRANCH   8  14
BRANCH  13  23
ATOM     23  O   UNL     1      35.709 -19.687 -24.219  0.00  0.00    -0.470 OA
ATOM     24  C   UNL     1      35.018 -20.528 -25.140  0.00  0.00    +0.253 C 
ENDBRANCH  13  23
ENDBRANCH   2  11
BRANCH   5  25
ATOM     25  C   UNL     1      34.837 -21.915 -18.349  0.00  0.00    +0.036 C 
ATOM     26  C   UNL     1      34.216 -23.221 -16.414  0.00  0.00    +0.002 C 
ATOM     27  C   UNL     1      33.854 -22.499 -17.550  0.00  0.00    +0.003 C 
ATOM     28  C   UNL     1      36.184 -22.056 -18.011  0.00  0.00    +0.003 C 
ATOM     29  C   UNL     1      35.562 -23.361 -16.076  0.00  0.00    +0.000 C 
ATOM     30  C   UNL     1      36.546 -22.778 -16.875  0.00  0.00    +0.000 C 
BRANCH  26  32
ATOM     31  N   UNL     1      32.619 -25.031 -13.570  0.00  0.00    -0.242 NA
ATOM     32  C   UNL     1      33.196 -23.825 -15.585  0.00  0.00    +0.019 C 
ATOM     33  C   UNL     1      31.858 -23.800 -15.961  0.00  0.00    +0.003 C 
ATOM     34  C   UNL     1      33.521 -24.448 -14.390  0.00  0.00    +0.099 C 
ATOM     35  C   UNL     1      30.900 -24.389 -15.143  0.00  0.00    +0.021 C 
ATOM     36  C   UNL     1      31.329 -24.986 -13.969  0.00  0.00    +0.099 C 
ENDBRANCH  26  32
ENDBRANCH   5  25
TORSDOF 8
ENDMDL
