MODEL 1
REMARK VINA RESULT:     -14.2      0.000      0.000
REMARK  Name = 5326868
REMARK  6 active torsions:
REMARK  status: ('A' for Active; 'I' for Inactive)
REMARK    1  A    between atoms: C_2  and  C_28
REMARK    2  A    between atoms: C_7  and  N_12
REMARK    3  A    between atoms: C_13  and  C_18
REMARK    4  A    between atoms: C_16  and  N_23
REMARK    5  A    between atoms: C_28  and  C_29
REMARK    6  A    between atoms: C_29  and  C_31
REMARK                            x       y       z     vdW  Elec       q    Type
REMARK                         _______ _______ _______ _____ _____    ______ ____
ROOT
ATOM      1  N   UNL     1      34.691 -17.896 -25.370  0.00  0.00    -0.312 N 
ATOM      2  C   UNL     1      35.232 -17.623 -23.234  0.00  0.00    -0.006 C 
ATOM      3  C   UNL     1      34.588 -16.437 -23.685  0.00  0.00    +0.012 C 
ATOM      4  C   UNL     1      34.259 -16.634 -25.028  0.00  0.00    +0.048 C 
ATOM      5  C   UNL     1      35.281 -18.501 -24.293  0.00  0.00    +0.058 C 
ATOM      6  C   UNL     1      34.253 -15.210 -23.078  0.00  0.00    +0.016 C 
ATOM      7  C   UNL     1      33.602 -14.229 -23.835  0.00  0.00    +0.051 C 
ATOM      8  C   UNL     1      33.608 -15.662 -25.797  0.00  0.00    +0.016 C 
ATOM      9  C   UNL     1      33.285 -14.454 -25.173  0.00  0.00    +0.016 C 
ATOM     10  H   UNL     1      34.590 -18.304 -26.260  0.00  0.00    +0.152 HD
ENDROOT
BRANCH   7  12
ATOM     11  O   UNL     1      32.011 -13.654 -21.359  0.00  0.00    -0.270 OA
ATOM     12  N   UNL     1      33.267 -13.011 -23.241  0.00  0.00    -0.280 N 
ATOM     13  C   UNL     1      32.517 -12.797 -22.078  0.00  0.00    +0.250 C 
ATOM     14  H   UNL     1      33.599 -12.203 -23.695  0.00  0.00    +0.155 HD
BRANCH  13  18
ATOM     15  F   UNL     1      30.892  -9.433 -19.007  0.00  0.00    -0.204 F 
ATOM     16  C   UNL     1      32.536  -9.053 -22.230  0.00  0.00    +0.050 C 
ATOM     17  C   UNL     1      32.735 -10.390 -22.577  0.00  0.00    +0.019 C 
ATOM     18  C   UNL     1      32.304 -11.372 -21.710  0.00  0.00    +0.057 C 
ATOM     19  C   UNL     1      31.914  -8.730 -21.024  0.00  0.00    +0.044 C 
ATOM     20  C   UNL     1      31.687 -11.080 -20.512  0.00  0.00    +0.034 C 
ATOM     21  C   UNL     1      31.489  -9.744 -20.165  0.00  0.00    +0.142 C 
BRANCH  16  23
ATOM     22  O   UNL     1      33.834  -6.186 -25.019  0.00  0.00    -0.350 OA
ATOM     23  N   UNL     1      32.964  -8.036 -23.091  0.00  0.00    -0.303 N 
ATOM     24  C   UNL     1      31.992  -7.346 -23.946  0.00  0.00    +0.123 C 
ATOM     25  C   UNL     1      34.328  -8.112 -23.630  0.00  0.00    +0.123 C 
ATOM     26  C   UNL     1      32.564  -6.005 -24.396  0.00  0.00    +0.164 C 
ATOM     27  C   UNL     1      34.776  -6.730 -24.094  0.00  0.00    +0.164 C 
ENDBRANCH  16  23
ENDBRANCH  13  18
ENDBRANCH   7  12
BRANCH   2  28
ATOM     28  C   UNL     1      35.758 -17.876 -21.878  0.00  0.00    +0.032 C 
BRANCH  28  29
ATOM     29  C   UNL     1      36.327 -19.296 -21.666  0.00  0.00    +0.031 C 
BRANCH  29  31
ATOM     30  N   UNL     1      33.758 -21.816 -19.336  0.00  0.00    -0.242 NA
ATOM     31  C   UNL     1      35.422 -20.183 -20.846  0.00  0.00    -0.019 C 
ATOM     32  C   UNL     1      35.976 -21.159 -20.041  0.00  0.00    +0.016 C 
ATOM     33  C   UNL     1      34.054 -20.007 -20.913  0.00  0.00    +0.016 C 
ATOM     34  C   UNL     1      35.104 -21.947 -19.307  0.00  0.00    +0.099 C 
ATOM     35  C   UNL     1      33.267 -20.846 -20.141  0.00  0.00    +0.099 C 
ENDBRANCH  29  31
ENDBRANCH  28  29
ENDBRANCH   2  28
TORSDOF 6
ENDMDL
MODEL 2
REMARK VINA RESULT:     -13.5      4.606      8.899
REMARK  Name = 5326868
REMARK  6 active torsions:
REMARK  status: ('A' for Active; 'I' for Inactive)
REMARK    1  A    between atoms: C_2  and  C_28
REMARK    2  A    between atoms: C_7  and  N_12
REMARK    3  A    between atoms: C_13  and  C_18
REMARK    4  A    between atoms: C_16  and  N_23
REMARK    5  A    between atoms: C_28  and  C_29
REMARK    6  A    between atoms: C_29  and  C_31
REMARK                            x       y       z     vdW  Elec       q    Type
REMARK                         _______ _______ _______ _____ _____    ______ ____
ROOT
ATOM      1  N   UNL     1      35.977 -23.254 -15.787  0.00  0.00    -0.312 N 
ATOM      2  C   UNL     1      33.925 -23.362 -16.629  0.00  0.00    -0.006 C 
ATOM      3  C   UNL     1      34.743 -22.634 -17.539  0.00  0.00    +0.012 C 
ATOM      4  C   UNL     1      36.024 -22.581 -16.987  0.00  0.00    +0.048 C 
ATOM      5  C   UNL     1      34.713 -23.730 -15.563  0.00  0.00    +0.058 C 
ATOM      6  C   UNL     1      34.513 -22.012 -18.783  0.00  0.00    +0.016 C 
ATOM      7  C   UNL     1      35.573 -21.363 -19.427  0.00  0.00    +0.051 C 
ATOM      8  C   UNL     1      37.093 -21.935 -17.619  0.00  0.00    +0.016 C 
ATOM      9  C   UNL     1      36.842 -21.326 -18.853  0.00  0.00    +0.016 C 
ATOM     10  H   UNL     1      36.741 -23.376 -15.179  0.00  0.00    +0.152 HD
ENDROOT
BRANCH   7  12
ATOM     11  O   UNL     1      36.538 -18.721 -20.465  0.00  0.00    -0.270 OA
ATOM     12  N   UNL     1      35.354 -20.744 -20.659  0.00  0.00    -0.280 N 
ATOM     13  C   UNL     1      35.831 -19.501 -21.095  0.00  0.00    +0.250 C 
ATOM     14  H   UNL     1      34.796 -21.241 -21.299  0.00  0.00    +0.155 HD
BRANCH  13  18
ATOM     15  F   UNL     1      34.876 -20.591 -25.709  0.00  0.00    -0.204 F 
ATOM     16  C   UNL     1      34.664 -17.402 -23.971  0.00  0.00    +0.050 C 
ATOM     17  C   UNL     1      35.069 -17.779 -22.690  0.00  0.00    +0.019 C 
ATOM     18  C   UNL     1      35.401 -19.098 -22.460  0.00  0.00    +0.057 C 
ATOM     19  C   UNL     1      34.599 -18.352 -24.990  0.00  0.00    +0.044 C 
ATOM     20  C   UNL     1      35.344 -20.056 -23.450  0.00  0.00    +0.034 C 
ATOM     21  C   UNL     1      34.939 -19.680 -24.730  0.00  0.00    +0.142 C 
BRANCH  16  23
ATOM     22  O   UNL     1      33.893 -13.362 -24.846  0.00  0.00    -0.350 OA
ATOM     23  N   UNL     1      34.321 -16.071 -24.233  0.00  0.00    -0.303 N 
ATOM     24  C   UNL     1      33.906 -15.674 -25.583  0.00  0.00    +0.123 C 
ATOM     25  C   UNL     1      34.978 -15.018 -23.446  0.00  0.00    +0.123 C 
ATOM     26  C   UNL     1      33.130 -14.363 -25.518  0.00  0.00    +0.164 C 
ATOM     27  C   UNL     1      34.143 -13.743 -23.493  0.00  0.00    +0.164 C 
ENDBRANCH  16  23
ENDBRANCH  13  18
ENDBRANCH   7  12
BRANCH   2  28
ATOM     28  C   UNL     1      32.491 -23.672 -16.792  0.00  0.00    +0.032 C 
BRANCH  28  29
ATOM     29  C   UNL     1      31.635 -23.421 -15.531  0.00  0.00    +0.031 C 
BRANCH  29  31
ATOM     30  N   UNL     1      27.430 -23.252 -16.348  0.00  0.00    -0.242 NA
ATOM     31  C   UNL     1      30.155 -23.361 -15.819  0.00  0.00    -0.019 C 
ATOM     32  C   UNL     1      29.559 -24.384 -16.530  0.00  0.00    +0.016 C 
ATOM     33  C   UNL     1      29.417 -22.285 -15.366  0.00  0.00    +0.016 C 
ATOM     34  C   UNL     1      28.198 -24.283 -16.768  0.00  0.00    +0.099 C 
ATOM     35  C   UNL     1      28.062 -22.277 -15.656  0.00  0.00    +0.099 C 
ENDBRANCH  29  31
ENDBRANCH  28  29
ENDBRANCH   2  28
TORSDOF 6
ENDMDL
MODEL 3
REMARK VINA RESULT:     -13.0      2.983      5.720
REMARK  Name = 5326868
REMARK  6 active torsions:
REMARK  status: ('A' for Active; 'I' for Inactive)
REMARK    1  A    between atoms: C_2  and  C_28
REMARK    2  A    between atoms: C_7  and  N_12
REMARK    3  A    between atoms: C_13  and  C_18
REMARK    4  A    between atoms: C_16  and  N_23
REMARK    5  A    between atoms: C_28  and  C_29
REMARK    6  A    between atoms: C_29  and  C_31
REMARK                            x       y       z     vdW  Elec       q    Type
REMARK                         _______ _______ _______ _____ _____    ______ ____
ROOT
ATOM      1  N   UNL     1      37.041 -21.284 -19.854  0.00  0.00    -0.312 N 
ATOM      2  C   UNL     1      34.828 -21.104 -19.835  0.00  0.00    -0.006 C 
ATOM      3  C   UNL     1      35.354 -20.040 -20.619  0.00  0.00    +0.012 C 
ATOM      4  C   UNL     1      36.744 -20.175 -20.614  0.00  0.00    +0.048 C 
ATOM      5  C   UNL     1      35.889 -21.852 -19.378  0.00  0.00    +0.058 C 
ATOM      6  C   UNL     1      34.779 -18.970 -21.334  0.00  0.00    +0.016 C 
ATOM      7  C   UNL     1      35.615 -18.078 -22.017  0.00  0.00    +0.051 C 
ATOM      8  C   UNL     1      37.592 -19.291 -21.292  0.00  0.00    +0.016 C 
ATOM      9  C   UNL     1      36.999 -18.238 -21.995  0.00  0.00    +0.016 C 
ATOM     10  H   UNL     1      37.949 -21.619 -19.677  0.00  0.00    +0.152 HD
ENDROOT
BRANCH   7  12
ATOM     11  O   UNL     1      34.650 -17.938 -24.852  0.00  0.00    -0.270 OA
ATOM     12  N   UNL     1      35.053 -17.015 -22.727  0.00  0.00    -0.280 N 
ATOM     13  C   UNL     1      34.617 -17.003 -24.058  0.00  0.00    +0.250 C 
ATOM     14  H   UNL     1      34.952 -16.171 -22.232  0.00  0.00    +0.155 HD
BRANCH  13  18
ATOM     15  F   UNL     1      33.441 -14.014 -27.672  0.00  0.00    -0.204 F 
ATOM     16  C   UNL     1      33.178 -13.544 -24.074  0.00  0.00    +0.050 C 
ATOM     17  C   UNL     1      33.678 -14.764 -23.618  0.00  0.00    +0.019 C 
ATOM     18  C   UNL     1      34.087 -15.702 -24.542  0.00  0.00    +0.057 C 
ATOM     19  C   UNL     1      33.098 -13.290 -25.443  0.00  0.00    +0.044 C 
ATOM     20  C   UNL     1      34.017 -15.477 -25.901  0.00  0.00    +0.034 C 
ATOM     21  C   UNL     1      33.519 -14.257 -26.357  0.00  0.00    +0.142 C 
BRANCH  16  23
ATOM     22  O   UNL     1      32.154 -10.658 -21.191  0.00  0.00    -0.350 OA
ATOM     23  N   UNL     1      32.756 -12.574 -23.157  0.00  0.00    -0.303 N 
ATOM     24  C   UNL     1      33.132 -11.170 -23.353  0.00  0.00    +0.123 C 
ATOM     25  C   UNL     1      32.560 -12.981 -21.759  0.00  0.00    +0.123 C 
ATOM     26  C   UNL     1      32.187 -10.270 -22.564  0.00  0.00    +0.164 C 
ATOM     27  C   UNL     1      31.644 -11.985 -21.057  0.00  0.00    +0.164 C 
ENDBRANCH  16  23
ENDBRANCH  13  18
ENDBRANCH   7  12
BRANCH   2  28
ATOM     28  C   UNL     1      33.402 -21.368 -19.556  0.00  0.00    +0.032 C 
BRANCH  28  29
ATOM     29  C   UNL     1      33.092 -22.818 -19.122  0.00  0.00    +0.031 C 
BRANCH  29  31
ATOM     30  N   UNL     1      32.596 -23.245 -14.886  0.00  0.00    -0.242 NA
ATOM     31  C   UNL     1      32.917 -22.969 -17.631  0.00  0.00    -0.019 C 
ATOM     32  C   UNL     1      34.017 -23.246 -16.843  0.00  0.00    +0.016 C 
ATOM     33  C   UNL     1      31.660 -22.827 -17.076  0.00  0.00    +0.016 C 
ATOM     34  C   UNL     1      33.804 -23.374 -15.480  0.00  0.00    +0.099 C 
ATOM     35  C   UNL     1      31.552 -22.974 -15.702  0.00  0.00    +0.099 C 
ENDBRANCH  29  31
ENDBRANCH  28  29
ENDBRANCH   2  28
TORSDOF 6
ENDMDL
MODEL 4
REMARK VINA RESULT:     -13.0      2.962     10.976
REMARK  Name = 5326868
REMARK  6 active torsions:
REMARK  status: ('A' for Active; 'I' for Inactive)
REMARK    1  A    between atoms: C_2  and  C_28
REMARK    2  A    between atoms: C_7  and  N_12
REMARK    3  A    between atoms: C_13  and  C_18
REMARK    4  A    between atoms: C_16  and  N_23
REMARK    5  A    between atoms: C_28  and  C_29
REMARK    6  A    between atoms: C_29  and  C_31
REMARK                            x       y       z     vdW  Elec       q    Type
REMARK                         _______ _______ _______ _____ _____    ______ ____
ROOT
ATOM      1  N   UNL     1      31.623  -7.630 -19.521  0.00  0.00    -0.312 N 
ATOM      2  C   UNL     1      32.079  -7.231 -21.657  0.00  0.00    -0.006 C 
ATOM      3  C   UNL     1      32.159  -8.635 -21.439  0.00  0.00    +0.012 C 
ATOM      4  C   UNL     1      31.870  -8.859 -20.091  0.00  0.00    +0.048 C 
ATOM      5  C   UNL     1      31.747  -6.641 -20.459  0.00  0.00    +0.058 C 
ATOM      6  C   UNL     1      32.454  -9.741 -22.262  0.00  0.00    +0.016 C 
ATOM      7  C   UNL     1      32.446 -11.026 -21.707  0.00  0.00    +0.051 C 
ATOM      8  C   UNL     1      31.858 -10.138 -19.523  0.00  0.00    +0.016 C 
ATOM      9  C   UNL     1      32.152 -11.219 -20.359  0.00  0.00    +0.016 C 
ATOM     10  H   UNL     1      31.391  -7.485 -18.576  0.00  0.00    +0.152 HD
ENDROOT
BRANCH   7  12
ATOM     11  O   UNL     1      34.337 -11.284 -24.020  0.00  0.00    -0.270 OA
ATOM     12  N   UNL     1      32.737 -12.127 -22.516  0.00  0.00    -0.280 N 
ATOM     13  C   UNL     1      33.634 -12.193 -23.589  0.00  0.00    +0.250 C 
ATOM     14  H   UNL     1      32.252 -12.957 -22.306  0.00  0.00    +0.155 HD
BRANCH  13  18
ATOM     15  F   UNL     1      33.100 -14.908 -27.556  0.00  0.00    -0.204 F 
ATOM     16  C   UNL     1      34.183 -15.847 -24.212  0.00  0.00    +0.050 C 
ATOM     17  C   UNL     1      34.115 -14.614 -23.563  0.00  0.00    +0.019 C 
ATOM     18  C   UNL     1      33.705 -13.509 -24.279  0.00  0.00    +0.057 C 
ATOM     19  C   UNL     1      33.840 -15.946 -25.560  0.00  0.00    +0.044 C 
ATOM     20  C   UNL     1      33.361 -13.579 -25.613  0.00  0.00    +0.034 C 
ATOM     21  C   UNL     1      33.428 -14.812 -26.261  0.00  0.00    +0.142 C 
BRANCH  16  23
ATOM     22  O   UNL     1      35.679 -19.229 -22.209  0.00  0.00    -0.350 OA
ATOM     23  N   UNL     1      34.596 -16.985 -23.510  0.00  0.00    -0.303 N 
ATOM     24  C   UNL     1      35.237 -16.842 -22.198  0.00  0.00    +0.123 C 
ATOM     25  C   UNL     1      35.009 -18.164 -24.283  0.00  0.00    +0.123 C 
ATOM     26  C   UNL     1      35.142 -18.158 -21.433  0.00  0.00    +0.164 C 
ATOM     27  C   UNL     1      34.923 -19.409 -23.407  0.00  0.00    +0.164 C 
ENDBRANCH  16  23
ENDBRANCH  13  18
ENDBRANCH   7  12
BRANCH   2  28
ATOM     28  C   UNL     1      32.308  -6.525 -22.933  0.00  0.00    +0.032 C 
BRANCH  28  29
ATOM     29  C   UNL     1      33.725  -6.705 -23.520  0.00  0.00    +0.031 C 
BRANCH  29  31
ATOM     30  N   UNL     1      34.325  -4.560 -27.182  0.00  0.00    -0.242 NA
ATOM     31  C   UNL     1      33.936  -5.950 -24.808  0.00  0.00    -0.019 C 
ATOM     32  C   UNL     1      35.168  -5.999 -25.431  0.00  0.00    +0.016 C 
ATOM     33  C   UNL     1      32.895  -5.220 -25.347  0.00  0.00    +0.016 C 
ATOM     34  C   UNL     1      35.312  -5.290 -26.612  0.00  0.00    +0.099 C 
ATOM     35  C   UNL     1      33.139  -4.544 -26.533  0.00  0.00    +0.099 C 
ENDBRANCH  29  31
ENDBRANCH  28  29
ENDBRANCH   2  28
TORSDOF 6
ENDMDL
MODEL 5
REMARK VINA RESULT:     -12.8      3.052     11.334
REMARK  Name = 5326868
REMARK  6 active torsions:
REMARK  status: ('A' for Active; 'I' for Inactive)
REMARK    1  A    between atoms: C_2  and  C_28
REMARK    2  A    between atoms: C_7  and  N_12
REMARK    3  A    between atoms: C_13  and  C_18
REMARK    4  A    between atoms: C_16  and  N_23
REMARK    5  A    between atoms: C_28  and  C_29
REMARK    6  A    between atoms: C_29  and  C_31
REMARK                            x       y       z     vdW  Elec       q    Type
REMARK                         _______ _______ _______ _____ _____    ______ ____
ROOT
ATOM      1  N   UNL     1      31.593  -8.546 -21.916  0.00  0.00    -0.312 N 
ATOM      2  C   UNL     1      33.396  -8.708 -23.201  0.00  0.00    -0.006 C 
ATOM      3  C   UNL     1      32.997 -10.022 -22.826  0.00  0.00    +0.012 C 
ATOM      4  C   UNL     1      31.864  -9.891 -22.020  0.00  0.00    +0.048 C 
ATOM      5  C   UNL     1      32.514  -7.823 -22.626  0.00  0.00    +0.058 C 
ATOM      6  C   UNL     1      33.494 -11.313 -23.094  0.00  0.00    +0.016 C 
ATOM      7  C   UNL     1      32.839 -12.423 -22.549  0.00  0.00    +0.051 C 
ATOM      8  C   UNL     1      31.199 -10.992 -21.467  0.00  0.00    +0.016 C 
ATOM      9  C   UNL     1      31.709 -12.264 -21.749  0.00  0.00    +0.016 C 
ATOM     10  H   UNL     1      30.846  -8.159 -21.405  0.00  0.00    +0.152 HD
ENDROOT
BRANCH   7  12
ATOM     11  O   UNL     1      34.672 -14.165 -20.937  0.00  0.00    -0.270 OA
ATOM     12  N   UNL     1      33.325 -13.706 -22.810  0.00  0.00    -0.280 N 
ATOM     13  C   UNL     1      34.184 -14.479 -22.018  0.00  0.00    +0.250 C 
ATOM     14  H   UNL     1      33.027 -14.117 -23.653  0.00  0.00    +0.155 HD
BRANCH  13  18
ATOM     15  F   UNL     1      35.107 -17.339 -25.806  0.00  0.00    -0.204 F 
ATOM     16  C   UNL     1      35.112 -18.101 -22.249  0.00  0.00    +0.050 C 
ATOM     17  C   UNL     1      34.769 -16.857 -21.718  0.00  0.00    +0.019 C 
ATOM     18  C   UNL     1      34.547 -15.806 -22.582  0.00  0.00    +0.057 C 
ATOM     19  C   UNL     1      35.226 -18.264 -23.629  0.00  0.00    +0.044 C 
ATOM     20  C   UNL     1      34.654 -15.940 -23.951  0.00  0.00    +0.034 C 
ATOM     21  C   UNL     1      34.996 -17.183 -24.481  0.00  0.00    +0.142 C 
BRANCH  16  23
ATOM     22  O   UNL     1      35.817 -21.523 -19.908  0.00  0.00    -0.350 OA
ATOM     23  N   UNL     1      35.343 -19.186 -21.395  0.00  0.00    -0.303 N 
ATOM     24  C   UNL     1      36.716 -19.631 -21.134  0.00  0.00    +0.123 C 
ATOM     25  C   UNL     1      34.319 -20.236 -21.316  0.00  0.00    +0.123 C 
ATOM     26  C   UNL     1      36.756 -20.450 -19.848  0.00  0.00    +0.164 C 
ATOM     27  C   UNL     1      34.486 -21.021 -20.019  0.00  0.00    +0.164 C 
ENDBRANCH  16  23
ENDBRANCH  13  18
ENDBRANCH   7  12
BRANCH   2  28
ATOM     28  C   UNL     1      34.548  -8.350 -24.052  0.00  0.00    +0.032 C 
BRANCH  28  29
ATOM     29  C   UNL     1      35.018  -6.885 -23.910  0.00  0.00    +0.031 C 
BRANCH  29  31
ATOM     30  N   UNL     1      33.894  -4.420 -27.232  0.00  0.00    -0.242 NA
ATOM     31  C   UNL     1      34.622  -6.017 -25.079  0.00  0.00    -0.019 C 
ATOM     32  C   UNL     1      35.548  -5.746 -26.068  0.00  0.00    +0.016 C 
ATOM     33  C   UNL     1      33.341  -5.506 -25.144  0.00  0.00    +0.016 C 
ATOM     34  C   UNL     1      35.135  -4.945 -27.121  0.00  0.00    +0.099 C 
ATOM     35  C   UNL     1      33.026  -4.715 -26.237  0.00  0.00    +0.099 C 
ENDBRANCH  29  31
ENDBRANCH  28  29
ENDBRANCH   2  28
TORSDOF 6
ENDMDL
MODEL 6
REMARK VINA RESULT:     -12.7      3.639     11.301
REMARK  Name = 5326868
REMARK  6 active torsions:
REMARK  status: ('A' for Active; 'I' for Inactive)
REMARK    1  A    between atoms: C_2  and  C_28
REMARK    2  A    between atoms: C_7  and  N_12
REMARK    3  A    between atoms: C_13  and  C_18
REMARK    4  A    between atoms: C_16  and  N_23
REMARK    5  A    between atoms: C_28  and  C_29
REMARK    6  A    between atoms: C_29  and  C_31
REMARK                            x       y       z     vdW  Elec       q    Type
REMARK                         _______ _______ _______ _____ _____    ______ ____
ROOT
ATOM      1  N   UNL     1      31.928  -4.408 -22.126  0.00  0.00    -0.312 N 
ATOM      2  C   UNL     1      32.536  -5.398 -24.017  0.00  0.00    -0.006 C 
ATOM      3  C   UNL     1      32.418  -6.396 -23.010  0.00  0.00    +0.012 C 
ATOM      4  C   UNL     1      32.036  -5.749 -21.834  0.00  0.00    +0.048 C 
ATOM      5  C   UNL     1      32.229  -4.186 -23.443  0.00  0.00    +0.058 C 
ATOM      6  C   UNL     1      32.602  -7.794 -22.986  0.00  0.00    +0.016 C 
ATOM      7  C   UNL     1      32.396  -8.489 -21.790  0.00  0.00    +0.051 C 
ATOM      8  C   UNL     1      31.827  -6.431 -20.629  0.00  0.00    +0.016 C 
ATOM      9  C   UNL     1      32.014  -7.817 -20.630  0.00  0.00    +0.016 C 
ATOM     10  H   UNL     1      31.672  -3.710 -21.481  0.00  0.00    +0.152 HD
ENDROOT
BRANCH   7  12
ATOM     11  O   UNL     1      30.446 -10.708 -22.302  0.00  0.00    -0.270 OA
ATOM     12  N   UNL     1      32.576  -9.873 -21.757  0.00  0.00    -0.280 N 
ATOM     13  C   UNL     1      31.626 -10.871 -22.006  0.00  0.00    +0.250 C 
ATOM     14  H   UNL     1      33.482 -10.186 -21.532  0.00  0.00    +0.155 HD
BRANCH  13  18
ATOM     15  F   UNL     1      32.482 -14.787 -19.301  0.00  0.00    -0.204 F 
ATOM     16  C   UNL     1      33.067 -14.226 -22.848  0.00  0.00    +0.050 C 
ATOM     17  C   UNL     1      32.607 -12.915 -22.980  0.00  0.00    +0.019 C 
ATOM     18  C   UNL     1      32.117 -12.268 -21.866  0.00  0.00    +0.057 C 
ATOM     19  C   UNL     1      33.024 -14.858 -21.605  0.00  0.00    +0.044 C 
ATOM     20  C   UNL     1      32.064 -12.870 -20.626  0.00  0.00    +0.034 C 
ATOM     21  C   UNL     1      32.523 -14.179 -20.493  0.00  0.00    +0.142 C 
BRANCH  16  23
ATOM     22  O   UNL     1      34.728 -16.050 -26.253  0.00  0.00    -0.350 OA
ATOM     23  N   UNL     1      33.568 -14.907 -23.962  0.00  0.00    -0.303 N 
ATOM     24  C   UNL     1      34.843 -15.628 -23.866  0.00  0.00    +0.123 C 
ATOM     25  C   UNL     1      33.243 -14.388 -25.297  0.00  0.00    +0.123 C 
ATOM     26  C   UNL     1      34.934 -16.664 -24.981  0.00  0.00    +0.164 C 
ATOM     27  C   UNL     1      33.417 -15.490 -26.335  0.00  0.00    +0.164 C 
ENDBRANCH  16  23
ENDBRANCH  13  18
ENDBRANCH   7  12
BRANCH   2  28
ATOM     28  C   UNL     1      32.919  -5.613 -25.427  0.00  0.00    +0.032 C 
BRANCH  28  29
ATOM     29  C   UNL     1      34.440  -5.567 -25.693  0.00  0.00    +0.031 C 
BRANCH  29  31
ATOM     30  N   UNL     1      35.454  -3.628 -29.378  0.00  0.00    -0.242 NA
ATOM     31  C   UNL     1      34.797  -4.885 -26.990  0.00  0.00    -0.019 C 
ATOM     32  C   UNL     1      33.791  -4.380 -27.791  0.00  0.00    +0.016 C 
ATOM     33  C   UNL     1      36.124  -4.776 -27.358  0.00  0.00    +0.016 C 
ATOM     34  C   UNL     1      34.171  -3.762 -28.972  0.00  0.00    +0.099 C 
ATOM     35  C   UNL     1      36.400  -4.140 -28.559  0.00  0.00    +0.099 C 
ENDBRANCH  29  31
ENDBRANCH  28  29
ENDBRANCH   2  28
TORSDOF 6
ENDMDL
MODEL 7
REMARK VINA RESULT:     -12.5      3.061     11.452
REMARK  Name = 5326868
REMARK  6 active torsions:
REMARK  status: ('A' for Active; 'I' for Inactive)
REMARK    1  A    between atoms: C_2  and  C_28
REMARK    2  A    between atoms: C_7  and  N_12
REMARK    3  A    between atoms: C_13  and  C_18
REMARK    4  A    between atoms: C_16  and  N_23
REMARK    5  A    between atoms: C_28  and  C_29
REMARK    6  A    between atoms: C_29  and  C_31
REMARK                            x       y       z     vdW  Elec       q    Type
REMARK                         _______ _______ _______ _____ _____    ______ ____
ROOT
ATOM      1  N   UNL     1      31.737  -6.355 -21.027  0.00  0.00    -0.312 N 
ATOM      2  C   UNL     1      32.318  -6.224 -23.166  0.00  0.00    -0.006 C 
ATOM      3  C   UNL     1      32.368  -7.592 -22.774  0.00  0.00    +0.012 C 
ATOM      4  C   UNL     1      32.000  -7.646 -21.428  0.00  0.00    +0.048 C 
ATOM      5  C   UNL     1      31.927  -5.489 -22.071  0.00  0.00    +0.058 C 
ATOM      6  C   UNL     1      32.694  -8.792 -23.437  0.00  0.00    +0.016 C 
ATOM      7  C   UNL     1      32.638  -9.998 -22.731  0.00  0.00    +0.051 C 
ATOM      8  C   UNL     1      31.940  -8.845 -20.709  0.00  0.00    +0.016 C 
ATOM      9  C   UNL     1      32.266 -10.023 -21.388  0.00  0.00    +0.016 C 
ATOM     10  H   UNL     1      31.454  -6.093 -20.122  0.00  0.00    +0.152 HD
ENDROOT
BRANCH   7  12
ATOM     11  O   UNL     1      32.180 -12.842 -21.897  0.00  0.00    -0.270 OA
ATOM     12  N   UNL     1      32.960 -11.192 -23.380  0.00  0.00    -0.280 N 
ATOM     13  C   UNL     1      32.722 -12.501 -22.943  0.00  0.00    +0.250 C 
ATOM     14  H   UNL     1      33.409 -11.102 -24.251  0.00  0.00    +0.155 HD
BRANCH  13  18
ATOM     15  F   UNL     1      33.677 -14.153 -27.387  0.00  0.00    -0.204 F 
ATOM     16  C   UNL     1      34.110 -15.764 -24.154  0.00  0.00    +0.050 C 
ATOM     17  C   UNL     1      33.651 -14.759 -23.302  0.00  0.00    +0.019 C 
ATOM     18  C   UNL     1      33.210 -13.574 -23.850  0.00  0.00    +0.057 C 
ATOM     19  C   UNL     1      34.119 -15.559 -25.534  0.00  0.00    +0.044 C 
ATOM     20  C   UNL     1      33.209 -13.345 -25.211  0.00  0.00    +0.034 C 
ATOM     21  C   UNL     1      33.668 -14.349 -26.062  0.00  0.00    +0.142 C 
BRANCH  16  23
ATOM     22  O   UNL     1      35.719 -19.360 -22.683  0.00  0.00    -0.350 OA
ATOM     23  N   UNL     1      34.564 -16.977 -23.625  0.00  0.00    -0.303 N 
ATOM     24  C   UNL     1      35.304 -16.991 -22.358  0.00  0.00    +0.123 C 
ATOM     25  C   UNL     1      34.905 -18.057 -24.560  0.00  0.00    +0.123 C 
ATOM     26  C   UNL     1      35.254 -18.388 -21.748  0.00  0.00    +0.164 C 
ATOM     27  C   UNL     1      34.873 -19.397 -23.833  0.00  0.00    +0.164 C 
ENDBRANCH  16  23
ENDBRANCH  13  18
ENDBRANCH   7  12
BRANCH   2  28
ATOM     28  C   UNL     1      32.628  -5.682 -24.504  0.00  0.00    +0.032 C 
BRANCH  28  29
ATOM     29  C   UNL     1      34.078  -5.929 -24.976  0.00  0.00    +0.031 C 
BRANCH  29  31
ATOM     30  N   UNL     1      35.001  -3.992 -28.686  0.00  0.00    -0.242 NA
ATOM     31  C   UNL     1      34.403  -5.248 -26.282  0.00  0.00    -0.019 C 
ATOM     32  C   UNL     1      33.379  -4.736 -27.055  0.00  0.00    +0.016 C 
ATOM     33  C   UNL     1      35.720  -5.146 -26.687  0.00  0.00    +0.016 C 
ATOM     34  C   UNL     1      33.729  -4.119 -28.245  0.00  0.00    +0.099 C 
ATOM     35  C   UNL     1      35.966  -4.510 -27.894  0.00  0.00    +0.099 C 
ENDBRANCH  29  31
ENDBRANCH  28  29
ENDBRANCH   2  28
TORSDOF 6
ENDMDL
MODEL 8
REMARK VINA RESULT:     -12.4      2.129      2.863
REMARK  Name = 5326868
REMARK  6 active torsions:
REMARK  status: ('A' for Active; 'I' for Inactive)
REMARK    1  A    between atoms: C_2  and  C_28
REMARK    2  A    between atoms: C_7  and  N_12
REMARK    3  A    between atoms: C_13  and  C_18
REMARK    4  A    between atoms: C_16  and  N_23
REMARK    5  A    between atoms: C_28  and  C_29
REMARK    6  A    between atoms: C_29  and  C_31
REMARK                            x       y       z     vdW  Elec       q    Type
REMARK                         _______ _______ _______ _____ _____    ______ ____
ROOT
ATOM      1  N   UNL     1      33.958 -17.981 -25.161  0.00  0.00    -0.312 N 
ATOM      2  C   UNL     1      34.924 -17.394 -23.251  0.00  0.00    -0.006 C 
ATOM      3  C   UNL     1      34.511 -16.210 -23.923  0.00  0.00    +0.012 C 
ATOM      4  C   UNL     1      33.909 -16.606 -25.118  0.00  0.00    +0.048 C 
ATOM      5  C   UNL     1      34.570 -18.466 -24.037  0.00  0.00    +0.058 C 
ATOM      6  C   UNL     1      34.595 -14.834 -23.628  0.00  0.00    +0.016 C 
ATOM      7  C   UNL     1      34.071 -13.908 -24.537  0.00  0.00    +0.051 C 
ATOM      8  C   UNL     1      33.382 -15.691 -26.038  0.00  0.00    +0.016 C 
ATOM      9  C   UNL     1      33.474 -14.332 -25.723  0.00  0.00    +0.016 C 
ATOM     10  H   UNL     1      33.605 -18.534 -25.894  0.00  0.00    +0.152 HD
ENDROOT
BRANCH   7  12
ATOM     11  O   UNL     1      32.269 -12.166 -22.892  0.00  0.00    -0.270 OA
ATOM     12  N   UNL     1      34.150 -12.543 -24.253  0.00  0.00    -0.280 N 
ATOM     13  C   UNL     1      33.276 -11.774 -23.474  0.00  0.00    +0.250 C 
ATOM     14  H   UNL     1      34.912 -12.063 -24.648  0.00  0.00    +0.155 HD
BRANCH  13  18
ATOM     15  F   UNL     1      36.014  -7.992 -24.731  0.00  0.00    -0.204 F 
ATOM     16  C   UNL     1      33.165  -8.165 -22.475  0.00  0.00    +0.050 C 
ATOM     17  C   UNL     1      32.850  -9.521 -22.562  0.00  0.00    +0.019 C 
ATOM     18  C   UNL     1      33.612 -10.329 -23.379  0.00  0.00    +0.057 C 
ATOM     19  C   UNL     1      34.234  -7.649 -23.207  0.00  0.00    +0.044 C 
ATOM     20  C   UNL     1      34.673  -9.844 -24.114  0.00  0.00    +0.034 C 
ATOM     21  C   UNL     1      34.989  -8.489 -24.027  0.00  0.00    +0.142 C 
BRANCH  16  23
ATOM     22  O   UNL     1      31.117  -5.473 -19.976  0.00  0.00    -0.350 OA
ATOM     23  N   UNL     1      32.409  -7.322 -21.653  0.00  0.00    -0.303 N 
ATOM     24  C   UNL     1      31.774  -6.127 -22.219  0.00  0.00    +0.123 C 
ATOM     25  C   UNL     1      32.778  -7.222 -20.235  0.00  0.00    +0.123 C 
ATOM     26  C   UNL     1      30.641  -5.665 -21.308  0.00  0.00    +0.164 C 
ATOM     27  C   UNL     1      31.591  -6.704 -19.430  0.00  0.00    +0.164 C 
ENDBRANCH  16  23
ENDBRANCH  13  18
ENDBRANCH   7  12
BRANCH   2  28
ATOM     28  C   UNL     1      35.610 -17.470 -21.945  0.00  0.00    +0.032 C 
BRANCH  28  29
ATOM     29  C   UNL     1      36.431 -18.760 -21.727  0.00  0.00    +0.031 C 
BRANCH  29  31
ATOM     30  N   UNL     1      34.319 -21.753 -19.501  0.00  0.00    -0.242 NA
ATOM     31  C   UNL     1      35.688 -19.813 -20.943  0.00  0.00    -0.019 C 
ATOM     32  C   UNL     1      34.307 -19.808 -20.937  0.00  0.00    +0.016 C 
ATOM     33  C   UNL     1      36.399 -20.768 -20.242  0.00  0.00    +0.016 C 
ATOM     34  C   UNL     1      33.671 -20.796 -20.202  0.00  0.00    +0.099 C 
ATOM     35  C   UNL     1      35.671 -21.714 -19.539  0.00  0.00    +0.099 C 
ENDBRANCH  29  31
ENDBRANCH  28  29
ENDBRANCH   2  28
TORSDOF 6
ENDMDL
MODEL 9
REMARK VINA RESULT:     -12.1      2.917      5.843
REMARK  Name = 5326868
REMARK  6 active torsions:
REMARK  status: ('A' for Active; 'I' for Inactive)
REMARK    1  A    between atoms: C_2  and  C_28
REMARK    2  A    between atoms: C_7  and  N_12
REMARK    3  A    between atoms: C_13  and  C_18
REMARK    4  A    between atoms: C_16  and  N_23
REMARK    5  A    between atoms: C_28  and  C_29
REMARK    6  A    between atoms: C_29  and  C_31
REMARK                            x       y       z     vdW  Elec       q    Type
REMARK                         _______ _______ _______ _____ _____    ______ ____
ROOT
ATOM      1  N   UNL     1      32.202 -13.368 -20.462  0.00  0.00    -0.312 N 
ATOM      2  C   UNL     1      32.640 -13.358 -22.639  0.00  0.00    -0.006 C 
ATOM      3  C   UNL     1      32.424 -12.014 -22.221  0.00  0.00    +0.012 C 
ATOM      4  C   UNL     1      32.151 -12.049 -20.853  0.00  0.00    +0.048 C 
ATOM      5  C   UNL     1      32.497 -14.167 -21.535  0.00  0.00    +0.058 C 
ATOM      6  C   UNL     1      32.434 -10.768 -22.880  0.00  0.00    +0.016 C 
ATOM      7  C   UNL     1      32.172  -9.606 -22.146  0.00  0.00    +0.051 C 
ATOM      8  C   UNL     1      31.887 -10.895 -20.106  0.00  0.00    +0.016 C 
ATOM      9  C   UNL     1      31.903  -9.670 -20.780  0.00  0.00    +0.016 C 
ATOM     10  H   UNL     1      32.049 -13.690 -19.545  0.00  0.00    +0.152 HD
ENDROOT
BRANCH   7  12
ATOM     11  O   UNL     1      34.461  -7.805 -22.855  0.00  0.00    -0.270 OA
ATOM     12  N   UNL     1      32.178  -8.368 -22.791  0.00  0.00    -0.280 N 
ATOM     13  C   UNL     1      33.283  -7.564 -23.099  0.00  0.00    +0.250 C 
ATOM     14  H   UNL     1      31.300  -8.017 -23.062  0.00  0.00    +0.155 HD
BRANCH  13  18
ATOM     15  F   UNL     1      30.894  -3.362 -23.240  0.00  0.00    -0.204 F 
ATOM     16  C   UNL     1      33.286  -4.767 -25.593  0.00  0.00    +0.050 C 
ATOM     17  C   UNL     1      33.584  -5.977 -24.966  0.00  0.00    +0.019 C 
ATOM     18  C   UNL     1      32.965  -6.275 -23.770  0.00  0.00    +0.057 C 
ATOM     19  C   UNL     1      32.378  -3.884 -25.011  0.00  0.00    +0.044 C 
ATOM     20  C   UNL     1      32.064  -5.420 -23.173  0.00  0.00    +0.034 C 
ATOM     21  C   UNL     1      31.766  -4.211 -23.800  0.00  0.00    +0.142 C 
BRANCH  16  23
ATOM     22  O   UNL     1      35.158  -4.052 -29.291  0.00  0.00    -0.350 OA
ATOM     23  N   UNL     1      33.900  -4.439 -26.807  0.00  0.00    -0.303 N 
ATOM     24  C   UNL     1      33.106  -4.391 -28.039  0.00  0.00    +0.123 C 
ATOM     25  C   UNL     1      35.314  -4.797 -26.987  0.00  0.00    +0.123 C 
ATOM     26  C   UNL     1      33.834  -3.558 -29.089  0.00  0.00    +0.164 C 
ATOM     27  C   UNL     1      35.924  -3.940 -28.091  0.00  0.00    +0.164 C 
ENDBRANCH  16  23
ENDBRANCH  13  18
ENDBRANCH   7  12
BRANCH   2  28
ATOM     28  C   UNL     1      32.961 -13.812 -24.006  0.00  0.00    +0.032 C 
BRANCH  28  29
ATOM     29  C   UNL     1      34.442 -14.194 -24.224  0.00  0.00    +0.031 C 
BRANCH  29  31
ATOM     30  N   UNL     1      35.139 -18.421 -24.075  0.00  0.00    -0.242 NA
ATOM     31  C   UNL     1      34.687 -15.682 -24.171  0.00  0.00    -0.019 C 
ATOM     32  C   UNL     1      34.357 -16.464 -25.261  0.00  0.00    +0.016 C 
ATOM     33  C   UNL     1      35.237 -16.241 -23.034  0.00  0.00    +0.016 C 
ATOM     34  C   UNL     1      34.603 -17.824 -25.164  0.00  0.00    +0.099 C 
ATOM     35  C   UNL     1      35.443 -17.611 -23.035  0.00  0.00    +0.099 C 
ENDBRANCH  29  31
ENDBRANCH  28  29
ENDBRANCH   2  28
TORSDOF 6
ENDMDL
