MODEL 1
REMARK VINA RESULT:     -14.0      0.000      0.000
REMARK  Name = 46926973
REMARK  4 active torsions:
REMARK  status: ('A' for Active; 'I' for Inactive)
REMARK    1  A    between atoms: C_4  and  C_17
REMARK    2  A    between atoms: C_6  and  C_13
REMARK    3  A    between atoms: C_17  and  C_19
REMARK    4  A    between atoms: C_21  and  C_26
REMARK                            x       y       z     vdW  Elec       q    Type
REMARK                         _______ _______ _______ _____ _____    ______ ____
ROOT
ATOM      1  O   UNL     1      36.954 -18.689 -22.915  0.00  0.00    -0.274 OA
ATOM      2  N   UNL     1      34.875 -19.632 -22.353  0.00  0.00    -0.269 N 
ATOM      3  N   UNL     1      34.128 -20.976 -20.555  0.00  0.00    -0.229 NA
ATOM      4  C   UNL     1      35.764 -18.886 -23.138  0.00  0.00    +0.232 C 
ATOM      5  C   UNL     1      35.140 -20.311 -21.157  0.00  0.00    +0.134 C 
ATOM      6  C   UNL     1      35.692 -21.618 -18.826  0.00  0.00    +0.038 C 
ATOM      7  C   UNL     1      36.433 -20.254 -20.663  0.00  0.00    +0.035 C 
ATOM      8  C   UNL     1      36.707 -20.924 -19.476  0.00  0.00    +0.006 C 
ATOM      9  C   UNL     1      34.432 -21.615 -19.402  0.00  0.00    +0.102 C 
ATOM     10  H   UNL     1      33.949 -19.686 -22.682  0.00  0.00    +0.156 HD
ENDROOT
BRANCH   6  13
ATOM     11  N   UNL     1      34.922 -23.059 -17.113  0.00  0.00    -0.241 NA
ATOM     12  N   UNL     1      37.390 -22.910 -15.790  0.00  0.00    -0.239 NA
ATOM     13  C   UNL     1      35.945 -22.324 -17.592  0.00  0.00    +0.102 C 
ATOM     14  C   UNL     1      37.157 -22.251 -16.942  0.00  0.00    +0.118 C 
ATOM     15  C   UNL     1      35.155 -23.719 -15.962  0.00  0.00    +0.119 C 
ATOM     16  C   UNL     1      36.366 -23.646 -15.311  0.00  0.00    +0.120 C 
ENDBRANCH   6  13
BRANCH   4  17
ATOM     17  C   UNL     1      35.060 -18.313 -24.358  0.00  0.00    +0.113 C 
BRANCH  17  19
ATOM     18  N   UNL     1      34.321 -14.987 -22.706  0.00  0.00    -0.244 NA
ATOM     19  C   UNL     1      34.595 -16.892 -24.169  0.00  0.00    +0.006 C 
ATOM     20  C   UNL     1      33.607 -14.868 -25.014  0.00  0.00    -0.004 C 
ATOM     21  C   UNL     1      33.775 -14.324 -23.751  0.00  0.00    +0.077 C 
ATOM     22  C   UNL     1      34.028 -16.178 -25.218  0.00  0.00    -0.005 C 
ATOM     23  C   UNL     1      34.718 -16.257 -22.943  0.00  0.00    +0.095 C 
ATOM     24  C   UNL     1      32.999 -14.105 -26.140  0.00  0.00    +0.033 C 
BRANCH  21  26
ATOM     25  N   UNL     1      32.579 -10.356 -22.845  0.00  0.00    -0.248 NA
ATOM     26  C   UNL     1      33.367 -12.972 -23.442  0.00  0.00    +0.020 C 
ATOM     27  C   UNL     1      32.352 -12.741 -22.519  0.00  0.00    +0.016 C 
ATOM     28  C   UNL     1      33.988 -11.896 -24.066  0.00  0.00    +0.022 C 
ATOM     29  C   UNL     1      31.999 -11.427 -22.259  0.00  0.00    +0.059 C 
ATOM     30  C   UNL     1      33.562 -10.619 -23.736  0.00  0.00    +0.098 C 
ATOM     31  C   UNL     1      30.913 -11.142 -21.274  0.00  0.00    +0.052 C 
ENDBRANCH  21  26
ENDBRANCH  17  19
ENDBRANCH   4  17
TORSDOF 4
ENDMDL
MODEL 2
REMARK VINA RESULT:     -14.0      1.008      1.717
REMARK  Name = 46926973
REMARK  4 active torsions:
REMARK  status: ('A' for Active; 'I' for Inactive)
REMARK    1  A    between atoms: C_4  and  C_17
REMARK    2  A    between atoms: C_6  and  C_13
REMARK    3  A    between atoms: C_17  and  C_19
REMARK    4  A    between atoms: C_21  and  C_26
REMARK                            x       y       z     vdW  Elec       q    Type
REMARK                         _______ _______ _______ _____ _____    ______ ____
ROOT
ATOM      1  O   UNL     1      36.742 -18.963 -23.187  0.00  0.00    -0.274 OA
ATOM      2  N   UNL     1      34.501 -19.324 -22.573  0.00  0.00    -0.269 N 
ATOM      3  N   UNL     1      33.467 -20.507 -20.804  0.00  0.00    -0.229 NA
ATOM      4  C   UNL     1      35.537 -18.810 -23.364  0.00  0.00    +0.232 C 
ATOM      5  C   UNL     1      34.604 -20.115 -21.421  0.00  0.00    +0.134 C 
ATOM      6  C   UNL     1      34.844 -21.650 -19.178  0.00  0.00    +0.038 C 
ATOM      7  C   UNL     1      35.877 -20.444 -20.985  0.00  0.00    +0.035 C 
ATOM      8  C   UNL     1      35.991 -21.228 -19.842  0.00  0.00    +0.006 C 
ATOM      9  C   UNL     1      33.617 -21.267 -19.696  0.00  0.00    +0.102 C 
ATOM     10  H   UNL     1      33.586 -19.102 -22.862  0.00  0.00    +0.156 HD
ENDROOT
BRANCH   6  13
ATOM     11  N   UNL     1      36.104 -22.426 -17.331  0.00  0.00    -0.241 NA
ATOM     12  N   UNL     1      33.957 -23.996 -16.443  0.00  0.00    -0.239 NA
ATOM     13  C   UNL     1      34.929 -22.465 -17.990  0.00  0.00    +0.102 C 
ATOM     14  C   UNL     1      33.874 -23.236 -17.553  0.00  0.00    +0.118 C 
ATOM     15  C   UNL     1      36.187 -23.185 -16.220  0.00  0.00    +0.119 C 
ATOM     16  C   UNL     1      35.133 -23.956 -15.784  0.00  0.00    +0.120 C 
ENDBRANCH   6  13
BRANCH   4  17
ATOM     17  C   UNL     1      34.983 -17.999 -24.524  0.00  0.00    +0.113 C 
BRANCH  17  19
ATOM     18  N   UNL     1      33.431 -14.551 -24.731  0.00  0.00    -0.244 NA
ATOM     19  C   UNL     1      34.535 -16.616 -24.128  0.00  0.00    +0.006 C 
ATOM     20  C   UNL     1      34.365 -14.836 -22.519  0.00  0.00    -0.004 C 
ATOM     21  C   UNL     1      33.696 -14.101 -23.484  0.00  0.00    +0.077 C 
ATOM     22  C   UNL     1      34.789 -16.117 -22.856  0.00  0.00    -0.005 C 
ATOM     23  C   UNL     1      33.858 -15.800 -25.021  0.00  0.00    +0.095 C 
ATOM     24  C   UNL     1      34.640 -14.304 -21.154  0.00  0.00    +0.033 C 
BRANCH  21  26
ATOM     25  N   UNL     1      32.294 -10.169 -22.731  0.00  0.00    -0.248 NA
ATOM     26  C   UNL     1      33.218 -12.761 -23.227  0.00  0.00    +0.020 C 
ATOM     27  C   UNL     1      32.185 -12.549 -22.320  0.00  0.00    +0.016 C 
ATOM     28  C   UNL     1      33.789 -11.678 -23.887  0.00  0.00    +0.022 C 
ATOM     29  C   UNL     1      31.764 -11.246 -22.109  0.00  0.00    +0.059 C 
ATOM     30  C   UNL     1      33.295 -10.414 -23.606  0.00  0.00    +0.098 C 
ATOM     31  C   UNL     1      30.658 -10.982 -21.143  0.00  0.00    +0.052 C 
ENDBRANCH  21  26
ENDBRANCH  17  19
ENDBRANCH   4  17
TORSDOF 4
ENDMDL
MODEL 3
REMARK VINA RESULT:     -13.7      1.281      1.792
REMARK  Name = 46926973
REMARK  4 active torsions:
REMARK  status: ('A' for Active; 'I' for Inactive)
REMARK    1  A    between atoms: C_4  and  C_17
REMARK    2  A    between atoms: C_6  and  C_13
REMARK    3  A    between atoms: C_17  and  C_19
REMARK    4  A    between atoms: C_21  and  C_26
REMARK                            x       y       z     vdW  Elec       q    Type
REMARK                         _______ _______ _______ _____ _____    ______ ____
ROOT
ATOM      1  O   UNL     1      33.807 -19.869 -22.234  0.00  0.00    -0.274 OA
ATOM      2  N   UNL     1      35.927 -19.936 -21.218  0.00  0.00    -0.269 N 
ATOM      3  N   UNL     1      36.768 -20.982 -19.271  0.00  0.00    -0.229 NA
ATOM      4  C   UNL     1      34.993 -19.559 -22.193  0.00  0.00    +0.232 C 
ATOM      5  C   UNL     1      35.720 -20.739 -20.090  0.00  0.00    +0.134 C 
ATOM      6  C   UNL     1      35.281 -22.311 -17.903  0.00  0.00    +0.038 C 
ATOM      7  C   UNL     1      34.444 -21.238 -19.886  0.00  0.00    +0.035 C 
ATOM      8  C   UNL     1      34.228 -22.037 -18.769  0.00  0.00    +0.006 C 
ATOM      9  C   UNL     1      36.520 -21.763 -18.195  0.00  0.00    +0.102 C 
ATOM     10  H   UNL     1      36.842 -19.595 -21.343  0.00  0.00    +0.156 HD
ENDROOT
BRANCH   6  13
ATOM     11  N   UNL     1      36.212 -23.593 -16.144  0.00  0.00    -0.241 NA
ATOM     12  N   UNL     1      33.660 -24.212 -15.160  0.00  0.00    -0.239 NA
ATOM     13  C   UNL     1      35.089 -23.136 -16.734  0.00  0.00    +0.102 C 
ATOM     14  C   UNL     1      33.836 -23.440 -16.250  0.00  0.00    +0.118 C 
ATOM     15  C   UNL     1      36.036 -24.364 -15.053  0.00  0.00    +0.119 C 
ATOM     16  C   UNL     1      34.783 -24.669 -14.569  0.00  0.00    +0.120 C 
ENDBRANCH   6  13
BRANCH   4  17
ATOM     17  C   UNL     1      35.640 -18.680 -23.252  0.00  0.00    +0.113 C 
BRANCH  17  19
ATOM     18  N   UNL     1      34.638 -15.200 -22.145  0.00  0.00    -0.244 NA
ATOM     19  C   UNL     1      35.081 -17.281 -23.293  0.00  0.00    +0.006 C 
ATOM     20  C   UNL     1      33.998 -15.478 -24.460  0.00  0.00    -0.004 C 
ATOM     21  C   UNL     1      34.088 -14.740 -23.291  0.00  0.00    +0.077 C 
ATOM     22  C   UNL     1      34.507 -16.772 -24.453  0.00  0.00    -0.005 C 
ATOM     23  C   UNL     1      35.121 -16.462 -22.176  0.00  0.00    +0.095 C 
ATOM     24  C   UNL     1      33.383 -14.935 -25.704  0.00  0.00    +0.033 C 
BRANCH  21  26
ATOM     25  N   UNL     1      32.617 -10.770 -23.030  0.00  0.00    -0.248 NA
ATOM     26  C   UNL     1      33.587 -13.387 -23.202  0.00  0.00    +0.020 C 
ATOM     27  C   UNL     1      32.580 -13.073 -22.295  0.00  0.00    +0.016 C 
ATOM     28  C   UNL     1      34.109 -12.393 -24.023  0.00  0.00    +0.022 C 
ATOM     29  C   UNL     1      32.134 -11.762 -22.249  0.00  0.00    +0.059 C 
ATOM     30  C   UNL     1      33.595 -11.113 -23.899  0.00  0.00    +0.098 C 
ATOM     31  C   UNL     1      31.054 -11.389 -21.289  0.00  0.00    +0.052 C 
ENDBRANCH  21  26
ENDBRANCH  17  19
ENDBRANCH   4  17
TORSDOF 4
ENDMDL
MODEL 4
REMARK VINA RESULT:     -13.7      2.626     10.216
REMARK  Name = 46926973
REMARK  4 active torsions:
REMARK  status: ('A' for Active; 'I' for Inactive)
REMARK    1  A    between atoms: C_4  and  C_17
REMARK    2  A    between atoms: C_6  and  C_13
REMARK    3  A    between atoms: C_17  and  C_19
REMARK    4  A    between atoms: C_21  and  C_26
REMARK                            x       y       z     vdW  Elec       q    Type
REMARK                         _______ _______ _______ _____ _____    ______ ____
ROOT
ATOM      1  O   UNL     1      34.235 -12.891 -26.022  0.00  0.00    -0.274 OA
ATOM      2  N   UNL     1      32.864 -13.539 -24.224  0.00  0.00    -0.269 N 
ATOM      3  N   UNL     1      31.966 -12.387 -22.363  0.00  0.00    -0.229 NA
ATOM      4  C   UNL     1      33.589 -13.734 -25.408  0.00  0.00    +0.232 C 
ATOM      5  C   UNL     1      32.717 -12.357 -23.487  0.00  0.00    +0.134 C 
ATOM      6  C   UNL     1      32.449 -10.035 -22.080  0.00  0.00    +0.038 C 
ATOM      7  C   UNL     1      33.355 -11.223 -23.965  0.00  0.00    +0.035 C 
ATOM      8  C   UNL     1      33.214 -10.044 -23.241  0.00  0.00    +0.006 C 
ATOM      9  C   UNL     1      31.852 -11.222 -21.686  0.00  0.00    +0.102 C 
ATOM     10  H   UNL     1      32.401 -14.330 -23.866  0.00  0.00    +0.156 HD
ENDROOT
BRANCH   6  13
ATOM     11  N   UNL     1      32.349  -7.671 -21.997  0.00  0.00    -0.241 NA
ATOM     12  N   UNL     1      31.919  -7.723 -19.226  0.00  0.00    -0.239 NA
ATOM     13  C   UNL     1      32.284  -8.827 -21.306  0.00  0.00    +0.102 C 
ATOM     14  C   UNL     1      32.072  -8.852 -19.945  0.00  0.00    +0.118 C 
ATOM     15  C   UNL     1      32.195  -6.542 -21.277  0.00  0.00    +0.119 C 
ATOM     16  C   UNL     1      31.985  -6.567 -19.917  0.00  0.00    +0.120 C 
ENDBRANCH   6  13
BRANCH   4  17
ATOM     17  C   UNL     1      33.482 -15.177 -25.877  0.00  0.00    +0.113 C 
BRANCH  17  19
ATOM     18  N   UNL     1      34.832 -16.634 -22.654  0.00  0.00    -0.244 NA
ATOM     19  C   UNL     1      34.033 -16.171 -24.888  0.00  0.00    +0.006 C 
ATOM     20  C   UNL     1      34.763 -18.390 -24.316  0.00  0.00    -0.004 C 
ATOM     21  C   UNL     1      35.033 -17.914 -23.043  0.00  0.00    +0.077 C 
ATOM     22  C   UNL     1      34.253 -17.495 -25.250  0.00  0.00    -0.005 C 
ATOM     23  C   UNL     1      34.336 -15.794 -23.589  0.00  0.00    +0.095 C 
ATOM     24  C   UNL     1      35.000 -19.808 -24.706  0.00  0.00    +0.033 C 
BRANCH  21  26
ATOM     25  N   UNL     1      36.595 -20.420 -19.998  0.00  0.00    -0.248 NA
ATOM     26  C   UNL     1      35.565 -18.768 -22.005  0.00  0.00    +0.020 C 
ATOM     27  C   UNL     1      34.749 -19.712 -21.390  0.00  0.00    +0.016 C 
ATOM     28  C   UNL     1      36.896 -18.650 -21.617  0.00  0.00    +0.022 C 
ATOM     29  C   UNL     1      35.308 -20.506 -20.401  0.00  0.00    +0.059 C 
ATOM     30  C   UNL     1      37.358 -19.492 -20.618  0.00  0.00    +0.098 C 
ATOM     31  C   UNL     1      34.461 -21.530 -19.720  0.00  0.00    +0.052 C 
ENDBRANCH  21  26
ENDBRANCH  17  19
ENDBRANCH   4  17
TORSDOF 4
ENDMDL
MODEL 5
REMARK VINA RESULT:     -13.6      2.760     11.133
REMARK  Name = 46926973
REMARK  4 active torsions:
REMARK  status: ('A' for Active; 'I' for Inactive)
REMARK    1  A    between atoms: C_4  and  C_17
REMARK    2  A    between atoms: C_6  and  C_13
REMARK    3  A    between atoms: C_17  and  C_19
REMARK    4  A    between atoms: C_21  and  C_26
REMARK                            x       y       z     vdW  Elec       q    Type
REMARK                         _______ _______ _______ _____ _____    ______ ____
ROOT
ATOM      1  O   UNL     1      32.522 -13.864 -23.490  0.00  0.00    -0.274 OA
ATOM      2  N   UNL     1      34.129 -12.242 -24.054  0.00  0.00    -0.269 N 
ATOM      3  N   UNL     1      34.266  -9.903 -23.729  0.00  0.00    -0.229 NA
ATOM      4  C   UNL     1      33.592 -13.535 -23.993  0.00  0.00    +0.232 C 
ATOM      5  C   UNL     1      33.575 -11.053 -23.563  0.00  0.00    +0.134 C 
ATOM      6  C   UNL     1      32.467  -8.757 -22.591  0.00  0.00    +0.038 C 
ATOM      7  C   UNL     1      32.344 -11.135 -22.933  0.00  0.00    +0.035 C 
ATOM      8  C   UNL     1      31.786  -9.960 -22.441  0.00  0.00    +0.006 C 
ATOM      9  C   UNL     1      33.692  -8.782 -23.237  0.00  0.00    +0.102 C 
ATOM     10  H   UNL     1      35.004 -12.159 -24.496  0.00  0.00    +0.156 HD
ENDROOT
BRANCH   6  13
ATOM     11  N   UNL     1      32.127  -7.264 -20.786  0.00  0.00    -0.241 NA
ATOM     12  N   UNL     1      30.694  -5.502 -22.430  0.00  0.00    -0.239 NA
ATOM     13  C   UNL     1      31.913  -7.521 -22.092  0.00  0.00    +0.102 C 
ATOM     14  C   UNL     1      31.209  -6.655 -22.899  0.00  0.00    +0.118 C 
ATOM     15  C   UNL     1      31.612  -6.110 -20.317  0.00  0.00    +0.119 C 
ATOM     16  C   UNL     1      30.907  -5.245 -21.124  0.00  0.00    +0.120 C 
ENDBRANCH   6  13
BRANCH   4  17
ATOM     17  C   UNL     1      34.525 -14.542 -24.648  0.00  0.00    +0.113 C 
BRANCH  17  19
ATOM     18  N   UNL     1      35.077 -16.807 -21.664  0.00  0.00    -0.244 NA
ATOM     19  C   UNL     1      34.727 -15.791 -23.830  0.00  0.00    +0.006 C 
ATOM     20  C   UNL     1      34.946 -18.180 -23.650  0.00  0.00    -0.004 C 
ATOM     21  C   UNL     1      35.099 -18.008 -22.284  0.00  0.00    +0.077 C 
ATOM     22  C   UNL     1      34.757 -17.044 -24.430  0.00  0.00    -0.005 C 
ATOM     23  C   UNL     1      34.891 -15.727 -22.455  0.00  0.00    +0.095 C 
ATOM     24  C   UNL     1      34.979 -19.522 -24.297  0.00  0.00    +0.033 C 
BRANCH  21  26
ATOM     25  N   UNL     1      35.694 -21.293 -19.667  0.00  0.00    -0.248 NA
ATOM     26  C   UNL     1      35.302 -19.128 -21.392  0.00  0.00    +0.020 C 
ATOM     27  C   UNL     1      34.214 -19.867 -20.940  0.00  0.00    +0.016 C 
ATOM     28  C   UNL     1      36.586 -19.471 -20.983  0.00  0.00    +0.022 C 
ATOM     29  C   UNL     1      34.462 -20.930 -20.086  0.00  0.00    +0.059 C 
ATOM     30  C   UNL     1      36.727 -20.552 -20.127  0.00  0.00    +0.098 C 
ATOM     31  C   UNL     1      33.318 -21.745 -19.581  0.00  0.00    +0.052 C 
ENDBRANCH  21  26
ENDBRANCH  17  19
ENDBRANCH   4  17
TORSDOF 4
ENDMDL
MODEL 6
REMARK VINA RESULT:     -13.4      2.489      4.015
REMARK  Name = 46926973
REMARK  4 active torsions:
REMARK  status: ('A' for Active; 'I' for Inactive)
REMARK    1  A    between atoms: C_4  and  C_17
REMARK    2  A    between atoms: C_6  and  C_13
REMARK    3  A    between atoms: C_17  and  C_19
REMARK    4  A    between atoms: C_21  and  C_26
REMARK                            x       y       z     vdW  Elec       q    Type
REMARK                         _______ _______ _______ _____ _____    ______ ____
ROOT
ATOM      1  O   UNL     1      33.418 -20.518 -20.826  0.00  0.00    -0.274 OA
ATOM      2  N   UNL     1      35.119 -21.432 -19.482  0.00  0.00    -0.269 N 
ATOM      3  N   UNL     1      35.112 -22.744 -17.514  0.00  0.00    -0.229 NA
ATOM      4  C   UNL     1      34.602 -20.705 -20.564  0.00  0.00    +0.232 C 
ATOM      5  C   UNL     1      34.412 -22.097 -18.473  0.00  0.00    +0.134 C 
ATOM      6  C   UNL     1      33.001 -23.384 -16.524  0.00  0.00    +0.038 C 
ATOM      7  C   UNL     1      33.028 -22.049 -18.524  0.00  0.00    +0.035 C 
ATOM      8  C   UNL     1      32.317 -22.707 -17.527  0.00  0.00    +0.006 C 
ATOM      9  C   UNL     1      34.386 -23.372 -16.562  0.00  0.00    +0.102 C 
ATOM     10  H   UNL     1      36.101 -21.481 -19.425  0.00  0.00    +0.156 HD
ENDROOT
BRANCH   6  13
ATOM     11  N   UNL     1      31.028 -24.447 -15.763  0.00  0.00    -0.241 NA
ATOM     12  N   UNL     1      32.203 -24.989 -13.275  0.00  0.00    -0.239 NA
ATOM     13  C   UNL     1      32.291 -24.077 -15.475  0.00  0.00    +0.102 C 
ATOM     14  C   UNL     1      32.868 -24.343 -14.253  0.00  0.00    +0.118 C 
ATOM     15  C   UNL     1      30.362 -25.094 -14.785  0.00  0.00    +0.119 C 
ATOM     16  C   UNL     1      30.939 -25.360 -13.563  0.00  0.00    +0.120 C 
ENDBRANCH   6  13
BRANCH   4  17
ATOM     17  C   UNL     1      35.723 -20.146 -21.427  0.00  0.00    +0.113 C 
BRANCH  17  19
ATOM     18  N   UNL     1      35.001 -16.461 -21.913  0.00  0.00    -0.244 NA
ATOM     19  C   UNL     1      35.370 -18.843 -22.096  0.00  0.00    +0.006 C 
ATOM     20  C   UNL     1      34.769 -17.572 -24.048  0.00  0.00    -0.004 C 
ATOM     21  C   UNL     1      34.738 -16.448 -23.239  0.00  0.00    +0.077 C 
ATOM     22  C   UNL     1      35.093 -18.789 -23.457  0.00  0.00    -0.005 C 
ATOM     23  C   UNL     1      35.312 -17.661 -21.375  0.00  0.00    +0.095 C 
ATOM     24  C   UNL     1      34.471 -17.517 -25.507  0.00  0.00    +0.033 C 
BRANCH  21  26
ATOM     25  N   UNL     1      33.779 -12.611 -24.773  0.00  0.00    -0.248 NA
ATOM     26  C   UNL     1      34.411 -15.140 -23.762  0.00  0.00    +0.020 C 
ATOM     27  C   UNL     1      34.046 -14.993 -25.096  0.00  0.00    +0.016 C 
ATOM     28  C   UNL     1      34.461 -14.025 -22.933  0.00  0.00    +0.022 C 
ATOM     29  C   UNL     1      33.742 -13.718 -25.547  0.00  0.00    +0.059 C 
ATOM     30  C   UNL     1      34.139 -12.794 -23.482  0.00  0.00    +0.098 C 
ATOM     31  C   UNL     1      33.346 -13.522 -26.973  0.00  0.00    +0.052 C 
ENDBRANCH  21  26
ENDBRANCH  17  19
ENDBRANCH   4  17
TORSDOF 4
ENDMDL
MODEL 7
REMARK VINA RESULT:     -13.2      2.628     10.508
REMARK  Name = 46926973
REMARK  4 active torsions:
REMARK  status: ('A' for Active; 'I' for Inactive)
REMARK    1  A    between atoms: C_4  and  C_17
REMARK    2  A    between atoms: C_6  and  C_13
REMARK    3  A    between atoms: C_17  and  C_19
REMARK    4  A    between atoms: C_21  and  C_26
REMARK                            x       y       z     vdW  Elec       q    Type
REMARK                         _______ _______ _______ _____ _____    ______ ____
ROOT
ATOM      1  O   UNL     1      36.307 -19.171 -20.215  0.00  0.00    -0.274 OA
ATOM      2  N   UNL     1      35.336 -19.984 -22.197  0.00  0.00    -0.269 N 
ATOM      3  N   UNL     1      34.440 -18.938 -24.120  0.00  0.00    -0.229 NA
ATOM      4  C   UNL     1      35.938 -20.093 -20.936  0.00  0.00    +0.232 C 
ATOM      5  C   UNL     1      35.025 -18.818 -22.906  0.00  0.00    +0.134 C 
ATOM      6  C   UNL     1      34.435 -16.524 -24.262  0.00  0.00    +0.038 C 
ATOM      7  C   UNL     1      35.340 -17.606 -22.314  0.00  0.00    +0.035 C 
ATOM      8  C   UNL     1      35.036 -16.442 -23.010  0.00  0.00    +0.006 C 
ATOM      9  C   UNL     1      34.159 -17.785 -24.767  0.00  0.00    +0.102 C 
ATOM     10  H   UNL     1      35.104 -20.833 -22.639  0.00  0.00    +0.156 HD
ENDROOT
BRANCH   6  13
ATOM     11  N   UNL     1      33.859 -15.512 -26.323  0.00  0.00    -0.241 NA
ATOM     12  N   UNL     1      33.741 -12.982 -25.121  0.00  0.00    -0.239 NA
ATOM     13  C   UNL     1      34.106 -15.334 -25.010  0.00  0.00    +0.102 C 
ATOM     14  C   UNL     1      34.048 -14.091 -24.419  0.00  0.00    +0.118 C 
ATOM     15  C   UNL     1      33.551 -14.403 -27.024  0.00  0.00    +0.119 C 
ATOM     16  C   UNL     1      33.494 -13.160 -26.434  0.00  0.00    +0.120 C 
ENDBRANCH   6  13
BRANCH   4  17
ATOM     17  C   UNL     1      36.098 -21.552 -20.535  0.00  0.00    +0.113 C 
BRANCH  17  19
ATOM     18  N   UNL     1      32.872 -22.443 -18.765  0.00  0.00    -0.244 NA
ATOM     19  C   UNL     1      35.143 -21.983 -19.452  0.00  0.00    +0.006 C 
ATOM     20  C   UNL     1      34.697 -22.705 -17.201  0.00  0.00    -0.004 C 
ATOM     21  C   UNL     1      33.355 -22.754 -17.541  0.00  0.00    +0.077 C 
ATOM     22  C   UNL     1      35.602 -22.311 -18.182  0.00  0.00    -0.005 C 
ATOM     23  C   UNL     1      33.780 -22.064 -19.691  0.00  0.00    +0.095 C 
ATOM     24  C   UNL     1      35.191 -23.055 -15.840  0.00  0.00    +0.033 C 
BRANCH  21  26
ATOM     25  N   UNL     1      30.380 -23.918 -14.751  0.00  0.00    -0.248 NA
ATOM     26  C   UNL     1      32.341 -23.151 -16.590  0.00  0.00    +0.020 C 
ATOM     27  C   UNL     1      31.010 -22.806 -16.804  0.00  0.00    +0.016 C 
ATOM     28  C   UNL     1      32.692 -23.879 -15.459  0.00  0.00    +0.022 C 
ATOM     29  C   UNL     1      30.077 -23.211 -15.862  0.00  0.00    +0.059 C 
ATOM     30  C   UNL     1      31.683 -24.234 -14.578  0.00  0.00    +0.098 C 
ATOM     31  C   UNL     1      28.640 -22.858 -16.058  0.00  0.00    +0.052 C 
ENDBRANCH  21  26
ENDBRANCH  17  19
ENDBRANCH   4  17
TORSDOF 4
ENDMDL
MODEL 8
REMARK VINA RESULT:     -12.8      2.145     10.802
REMARK  Name = 46926973
REMARK  4 active torsions:
REMARK  status: ('A' for Active; 'I' for Inactive)
REMARK    1  A    between atoms: C_4  and  C_17
REMARK    2  A    between atoms: C_6  and  C_13
REMARK    3  A    between atoms: C_17  and  C_19
REMARK    4  A    between atoms: C_21  and  C_26
REMARK                            x       y       z     vdW  Elec       q    Type
REMARK                         _______ _______ _______ _____ _____    ______ ____
ROOT
ATOM      1  O   UNL     1      36.173 -19.157 -20.201  0.00  0.00    -0.274 OA
ATOM      2  N   UNL     1      35.635 -19.916 -22.361  0.00  0.00    -0.269 N 
ATOM      3  N   UNL     1      34.870 -18.838 -24.323  0.00  0.00    -0.229 NA
ATOM      4  C   UNL     1      36.060 -20.052 -21.032  0.00  0.00    +0.232 C 
ATOM      5  C   UNL     1      35.249 -18.746 -23.028  0.00  0.00    +0.134 C 
ATOM      6  C   UNL     1      34.507 -16.448 -24.297  0.00  0.00    +0.038 C 
ATOM      7  C   UNL     1      35.282 -17.561 -22.311  0.00  0.00    +0.035 C 
ATOM      8  C   UNL     1      34.902 -16.394 -22.964  0.00  0.00    +0.006 C 
ATOM      9  C   UNL     1      34.507 -17.683 -24.925  0.00  0.00    +0.102 C 
ATOM     10  H   UNL     1      35.604 -20.745 -22.891  0.00  0.00    +0.156 HD
ENDROOT
BRANCH   6  13
ATOM     11  N   UNL     1      33.869 -15.400 -26.321  0.00  0.00    -0.241 NA
ATOM     12  N   UNL     1      33.599 -12.925 -25.030  0.00  0.00    -0.239 NA
ATOM     13  C   UNL     1      34.106 -15.254 -25.002  0.00  0.00    +0.102 C 
ATOM     14  C   UNL     1      33.973 -14.038 -24.368  0.00  0.00    +0.118 C 
ATOM     15  C   UNL     1      33.494 -14.287 -26.983  0.00  0.00    +0.119 C 
ATOM     16  C   UNL     1      33.362 -13.072 -26.349  0.00  0.00    +0.120 C 
ENDBRANCH   6  13
BRANCH   4  17
ATOM     17  C   UNL     1      36.387 -21.503 -20.713  0.00  0.00    +0.113 C 
BRANCH  17  19
ATOM     18  N   UNL     1      34.091 -22.875 -18.034  0.00  0.00    -0.244 NA
ATOM     19  C   UNL     1      35.883 -21.948 -19.365  0.00  0.00    +0.006 C 
ATOM     20  C   UNL     1      36.195 -22.276 -17.003  0.00  0.00    -0.004 C 
ATOM     21  C   UNL     1      34.902 -22.772 -16.957  0.00  0.00    +0.077 C 
ATOM     22  C   UNL     1      36.687 -21.858 -18.235  0.00  0.00    -0.005 C 
ATOM     23  C   UNL     1      34.604 -22.459 -19.213  0.00  0.00    +0.095 C 
ATOM     24  C   UNL     1      37.058 -22.178 -15.792  0.00  0.00    +0.033 C 
BRANCH  21  26
ATOM     25  N   UNL     1      33.146 -24.115 -13.336  0.00  0.00    -0.248 NA
ATOM     26  C   UNL     1      34.303 -23.230 -15.723  0.00  0.00    +0.020 C 
ATOM     27  C   UNL     1      32.933 -23.099 -15.520  0.00  0.00    +0.016 C 
ATOM     28  C   UNL     1      35.095 -23.803 -14.733  0.00  0.00    +0.022 C 
ATOM     29  C   UNL     1      32.409 -23.553 -14.320  0.00  0.00    +0.059 C 
ATOM     30  C   UNL     1      34.474 -24.225 -13.569  0.00  0.00    +0.098 C 
ATOM     31  C   UNL     1      30.943 -23.428 -14.068  0.00  0.00    +0.052 C 
ENDBRANCH  21  26
ENDBRANCH  17  19
ENDBRANCH   4  17
TORSDOF 4
ENDMDL
MODEL 9
REMARK VINA RESULT:     -12.7      1.350      2.274
REMARK  Name = 46926973
REMARK  4 active torsions:
REMARK  status: ('A' for Active; 'I' for Inactive)
REMARK    1  A    between atoms: C_4  and  C_17
REMARK    2  A    between atoms: C_6  and  C_13
REMARK    3  A    between atoms: C_17  and  C_19
REMARK    4  A    between atoms: C_21  and  C_26
REMARK                            x       y       z     vdW  Elec       q    Type
REMARK                         _______ _______ _______ _____ _____    ______ ____
ROOT
ATOM      1  O   UNL     1      37.185 -19.405 -21.123  0.00  0.00    -0.274 OA
ATOM      2  N   UNL     1      35.201 -20.652 -20.925  0.00  0.00    -0.269 N 
ATOM      3  N   UNL     1      34.355 -22.115 -19.270  0.00  0.00    -0.229 NA
ATOM      4  C   UNL     1      36.095 -19.773 -21.551  0.00  0.00    +0.232 C 
ATOM      5  C   UNL     1      35.348 -21.300 -19.692  0.00  0.00    +0.134 C 
ATOM      6  C   UNL     1      35.667 -22.542 -17.284  0.00  0.00    +0.038 C 
ATOM      7  C   UNL     1      36.511 -21.059 -18.978  0.00  0.00    +0.035 C 
ATOM      8  C   UNL     1      36.666 -21.697 -17.753  0.00  0.00    +0.006 C 
ATOM      9  C   UNL     1      34.542 -22.717 -18.073  0.00  0.00    +0.102 C 
ATOM     10  H   UNL     1      34.366 -20.838 -21.412  0.00  0.00    +0.156 HD
ENDROOT
BRANCH   6  13
ATOM     11  N   UNL     1      37.052 -23.567 -15.660  0.00  0.00    -0.241 NA
ATOM     12  N   UNL     1      34.838 -24.125 -14.032  0.00  0.00    -0.239 NA
ATOM     13  C   UNL     1      35.799 -23.219 -16.015  0.00  0.00    +0.102 C 
ATOM     14  C   UNL     1      34.711 -23.493 -15.215  0.00  0.00    +0.118 C 
ATOM     15  C   UNL     1      37.178 -24.199 -14.476  0.00  0.00    +0.119 C 
ATOM     16  C   UNL     1      36.091 -24.473 -13.676  0.00  0.00    +0.120 C 
ENDBRANCH   6  13
BRANCH   4  17
ATOM     17  C   UNL     1      35.541 -19.293 -22.884  0.00  0.00    +0.113 C 
BRANCH  17  19
ATOM     18  N   UNL     1      34.248 -15.937 -24.066  0.00  0.00    -0.244 NA
ATOM     19  C   UNL     1      35.070 -17.862 -22.857  0.00  0.00    +0.006 C 
ATOM     20  C   UNL     1      34.579 -15.827 -21.673  0.00  0.00    -0.004 C 
ATOM     21  C   UNL     1      34.209 -15.274 -22.888  0.00  0.00    +0.077 C 
ATOM     22  C   UNL     1      35.016 -17.148 -21.666  0.00  0.00    -0.005 C 
ATOM     23  C   UNL     1      34.679 -17.217 -24.020  0.00  0.00    +0.095 C 
ATOM     24  C   UNL     1      34.523 -15.063 -20.395  0.00  0.00    +0.033 C 
BRANCH  21  26
ATOM     25  N   UNL     1      32.840 -11.272 -23.201  0.00  0.00    -0.248 NA
ATOM     26  C   UNL     1      33.742 -13.910 -22.995  0.00  0.00    +0.020 C 
ATOM     27  C   UNL     1      32.739 -13.446 -22.150  0.00  0.00    +0.016 C 
ATOM     28  C   UNL     1      34.295 -13.055 -23.943  0.00  0.00    +0.022 C 
ATOM     29  C   UNL     1      32.327 -12.131 -22.293  0.00  0.00    +0.059 C 
ATOM     30  C   UNL     1      33.813 -11.757 -24.005  0.00  0.00    +0.098 C 
ATOM     31  C   UNL     1      31.253 -11.600 -21.403  0.00  0.00    +0.052 C 
ENDBRANCH  21  26
ENDBRANCH  17  19
ENDBRANCH   4  17
TORSDOF 4
ENDMDL
