MODEL 1
REMARK VINA RESULT:     -13.2      0.000      0.000
REMARK  Name = 9999276
REMARK  5 active torsions:
REMARK  status: ('A' for Active; 'I' for Inactive)
REMARK    1  A    between atoms: C_3  and  C_11
REMARK    2  A    between atoms: C_6  and  C_20
REMARK    3  A    between atoms: C_14  and  N_19
REMARK    4  A    between atoms: C_25  and  C_27
REMARK    5  A    between atoms: C_27  and  O_28
REMARK                            x       y       z     vdW  Elec       q    Type
REMARK                         _______ _______ _______ _____ _____    ______ ____
ROOT
ATOM      1  N   UNL     1      34.947 -23.197 -16.757  0.00  0.00    -0.400 NA
ATOM      2  N   UNL     1      33.069 -24.955 -14.167  0.00  0.00    -0.242 NA
ATOM      3  C   UNL     1      34.608 -23.922 -15.665  0.00  0.00    +0.149 C 
ATOM      4  C   UNL     1      33.315 -24.224 -15.272  0.00  0.00    +0.107 C 
ATOM      5  C   UNL     1      32.285 -23.726 -16.089  0.00  0.00    +0.005 C 
ATOM      6  C   UNL     1      33.929 -22.740 -17.512  0.00  0.00    +0.131 C 
ATOM      7  C   UNL     1      32.596 -22.972 -17.228  0.00  0.00    +0.030 C 
ATOM      8  C   UNL     1      30.962 -24.010 -15.726  0.00  0.00    +0.056 C 
ATOM      9  C   UNL     1      30.699 -24.763 -14.589  0.00  0.00    -0.001 C 
ATOM     10  C   UNL     1      31.777 -25.207 -13.850  0.00  0.00    +0.095 C 
ENDROOT
BRANCH   3  11
ATOM     11  C   UNL     1      35.754 -24.379 -14.905  0.00  0.00    +0.033 C 
ATOM     12  C   UNL     1      36.245 -23.606 -13.855  0.00  0.00    +0.027 C 
ATOM     13  C   UNL     1      36.364 -25.591 -15.229  0.00  0.00    +0.003 C 
ATOM     14  C   UNL     1      37.349 -24.047 -13.124  0.00  0.00    +0.143 C 
ATOM     15  C   UNL     1      37.467 -26.031 -14.498  0.00  0.00    +0.002 C 
ATOM     16  C   UNL     1      37.961 -25.259 -13.446  0.00  0.00    +0.024 C 
BRANCH  14  19
ATOM     17  O   UNL     1      37.058 -22.515 -11.430  0.00  0.00    -0.126 OA
ATOM     18  O   UNL     1      39.068 -23.340 -11.766  0.00  0.00    -0.126 OA
ATOM     19  N   UNL     1      37.851 -23.261 -12.053  0.00  0.00    +0.058 N 
ENDBRANCH  14  19
ENDBRANCH   3  11
BRANCH   6  20
ATOM     20  C   UNL     1      34.323 -21.970 -18.668  0.00  0.00    +0.030 C 
ATOM     21  C   UNL     1      35.673 -21.835 -18.996  0.00  0.00    +0.003 C 
ATOM     22  C   UNL     1      33.352 -21.355 -19.463  0.00  0.00    +0.003 C 
ATOM     23  C   UNL     1      36.053 -21.091 -20.114  0.00  0.00    +0.007 C 
ATOM     24  C   UNL     1      33.732 -20.611 -20.581  0.00  0.00    +0.007 C 
ATOM     25  C   UNL     1      35.081 -20.479 -20.906  0.00  0.00    +0.075 C 
BRANCH  25  27
ATOM     26  O   UNL     1      34.936 -19.754 -23.181  0.00  0.00    -0.245 OA
ATOM     27  C   UNL     1      35.475 -19.703 -22.071  0.00  0.00    +0.338 C 
BRANCH  27  28
ATOM     28  O   UNL     1      36.531 -18.883 -21.817  0.00  0.00    -0.477 OA
ATOM     29  H   UNL     1      37.086 -19.046 -21.079  0.00  0.00    +0.295 HD
ENDBRANCH  27  28
ENDBRANCH  25  27
ENDBRANCH   6  20
TORSDOF 5
ENDMDL
MODEL 2
REMARK VINA RESULT:     -12.8      1.640      1.935
REMARK  Name = 9999276
REMARK  5 active torsions:
REMARK  status: ('A' for Active; 'I' for Inactive)
REMARK    1  A    between atoms: C_3  and  C_11
REMARK    2  A    between atoms: C_6  and  C_20
REMARK    3  A    between atoms: C_14  and  N_19
REMARK    4  A    between atoms: C_25  and  C_27
REMARK    5  A    between atoms: C_27  and  O_28
REMARK                            x       y       z     vdW  Elec       q    Type
REMARK                         _______ _______ _______ _____ _____    ______ ____
ROOT
ATOM      1  N   UNL     1      34.935 -22.927 -16.884  0.00  0.00    -0.400 NA
ATOM      2  N   UNL     1      33.164 -24.764 -14.274  0.00  0.00    -0.242 NA
ATOM      3  C   UNL     1      34.638 -23.644 -15.774  0.00  0.00    +0.149 C 
ATOM      4  C   UNL     1      33.368 -24.051 -15.398  0.00  0.00    +0.107 C 
ATOM      5  C   UNL     1      32.317 -23.678 -16.254  0.00  0.00    +0.005 C 
ATOM      6  C   UNL     1      33.898 -22.591 -17.676  0.00  0.00    +0.131 C 
ATOM      7  C   UNL     1      32.585 -22.936 -17.412  0.00  0.00    +0.030 C 
ATOM      8  C   UNL     1      31.017 -24.071 -15.909  0.00  0.00    +0.056 C 
ATOM      9  C   UNL     1      30.797 -24.806 -14.752  0.00  0.00    -0.001 C 
ATOM     10  C   UNL     1      31.893 -25.125 -13.976  0.00  0.00    +0.095 C 
ENDROOT
BRANCH   3  11
ATOM     11  C   UNL     1      35.802 -23.967 -14.975  0.00  0.00    +0.033 C 
ATOM     12  C   UNL     1      36.562 -25.095 -15.279  0.00  0.00    +0.027 C 
ATOM     13  C   UNL     1      36.158 -23.149 -13.903  0.00  0.00    +0.003 C 
ATOM     14  C   UNL     1      37.683 -25.406 -14.509  0.00  0.00    +0.143 C 
ATOM     15  C   UNL     1      37.279 -23.460 -13.134  0.00  0.00    +0.002 C 
ATOM     16  C   UNL     1      38.041 -24.589 -13.436  0.00  0.00    +0.024 C 
BRANCH  14  19
ATOM     17  O   UNL     1      37.867 -27.620 -15.111  0.00  0.00    -0.126 OA
ATOM     18  O   UNL     1      39.708 -26.465 -14.784  0.00  0.00    -0.126 OA
ATOM     19  N   UNL     1      38.459 -26.555 -14.817  0.00  0.00    +0.058 N 
ENDBRANCH  14  19
ENDBRANCH   3  11
BRANCH   6  20
ATOM     20  C   UNL     1      34.247 -21.827 -18.850  0.00  0.00    +0.030 C 
ATOM     21  C   UNL     1      35.583 -21.700 -19.234  0.00  0.00    +0.003 C 
ATOM     22  C   UNL     1      33.247 -21.210 -19.607  0.00  0.00    +0.003 C 
ATOM     23  C   UNL     1      35.920 -20.962 -20.369  0.00  0.00    +0.007 C 
ATOM     24  C   UNL     1      33.584 -20.472 -20.742  0.00  0.00    +0.007 C 
ATOM     25  C   UNL     1      34.919 -20.348 -21.122  0.00  0.00    +0.075 C 
BRANCH  25  27
ATOM     26  O   UNL     1      34.633 -19.564 -23.365  0.00  0.00    -0.245 OA
ATOM     27  C   UNL     1      35.269 -19.577 -22.305  0.00  0.00    +0.338 C 
BRANCH  27  28
ATOM     28  O   UNL     1      36.401 -18.842 -22.132  0.00  0.00    -0.477 OA
ATOM     29  H   UNL     1      36.773 -18.747 -21.277  0.00  0.00    +0.295 HD
ENDBRANCH  27  28
ENDBRANCH  25  27
ENDBRANCH   6  20
TORSDOF 5
ENDMDL
MODEL 3
REMARK VINA RESULT:     -12.1      3.256      5.288
REMARK  Name = 9999276
REMARK  5 active torsions:
REMARK  status: ('A' for Active; 'I' for Inactive)
REMARK    1  A    between atoms: C_3  and  C_11
REMARK    2  A    between atoms: C_6  and  C_20
REMARK    3  A    between atoms: C_14  and  N_19
REMARK    4  A    between atoms: C_25  and  C_27
REMARK    5  A    between atoms: C_27  and  O_28
REMARK                            x       y       z     vdW  Elec       q    Type
REMARK                         _______ _______ _______ _____ _____    ______ ____
ROOT
ATOM      1  N   UNL     1      33.578 -22.737 -17.370  0.00  0.00    -0.400 NA
ATOM      2  N   UNL     1      34.458 -24.534 -14.317  0.00  0.00    -0.242 NA
ATOM      3  C   UNL     1      33.520 -23.453 -16.223  0.00  0.00    +0.149 C 
ATOM      4  C   UNL     1      34.609 -23.818 -15.449  0.00  0.00    +0.107 C 
ATOM      5  C   UNL     1      35.868 -23.400 -15.912  0.00  0.00    +0.005 C 
ATOM      6  C   UNL     1      34.805 -22.356 -17.777  0.00  0.00    +0.131 C 
ATOM      7  C   UNL     1      35.970 -22.657 -17.095  0.00  0.00    +0.030 C 
ATOM      8  C   UNL     1      36.996 -23.749 -15.156  0.00  0.00    +0.056 C 
ATOM      9  C   UNL     1      36.850 -24.487 -13.989  0.00  0.00    -0.001 C 
ATOM     10  C   UNL     1      35.571 -24.851 -13.616  0.00  0.00    +0.095 C 
ENDROOT
BRANCH   3  11
ATOM     11  C   UNL     1      32.170 -23.824 -15.850  0.00  0.00    +0.033 C 
ATOM     12  C   UNL     1      31.090 -23.372 -16.606  0.00  0.00    +0.027 C 
ATOM     13  C   UNL     1      31.954 -24.632 -14.733  0.00  0.00    +0.003 C 
ATOM     14  C   UNL     1      29.791 -23.730 -16.246  0.00  0.00    +0.143 C 
ATOM     15  C   UNL     1      30.655 -24.989 -14.374  0.00  0.00    +0.002 C 
ATOM     16  C   UNL     1      29.573 -24.537 -15.130  0.00  0.00    +0.024 C 
BRANCH  14  19
ATOM     17  O   UNL     1      28.547 -22.036 -17.186  0.00  0.00    -0.126 OA
ATOM     18  O   UNL     1      27.898 -24.113 -17.499  0.00  0.00    -0.126 OA
ATOM     19  N   UNL     1      28.689 -23.270 -17.016  0.00  0.00    +0.058 N 
ENDBRANCH  14  19
ENDBRANCH   3  11
BRANCH   6  20
ATOM     20  C   UNL     1      34.834 -21.595 -19.004  0.00  0.00    +0.030 C 
ATOM     21  C   UNL     1      33.641 -21.221 -19.627  0.00  0.00    +0.003 C 
ATOM     22  C   UNL     1      36.057 -21.232 -19.573  0.00  0.00    +0.003 C 
ATOM     23  C   UNL     1      33.670 -20.485 -20.811  0.00  0.00    +0.007 C 
ATOM     24  C   UNL     1      36.085 -20.495 -20.758  0.00  0.00    +0.007 C 
ATOM     25  C   UNL     1      34.893 -20.123 -21.377  0.00  0.00    +0.075 C 
BRANCH  25  27
ATOM     26  O   UNL     1      34.936 -19.834 -23.752  0.00  0.00    -0.245 OA
ATOM     27  C   UNL     1      34.924 -19.356 -22.613  0.00  0.00    +0.338 C 
BRANCH  27  28
ATOM     28  O   UNL     1      34.939 -18.013 -22.392  0.00  0.00    -0.477 OA
ATOM     29  H   UNL     1      35.231 -17.676 -21.567  0.00  0.00    +0.295 HD
ENDBRANCH  27  28
ENDBRANCH  25  27
ENDBRANCH   6  20
TORSDOF 5
ENDMDL
MODEL 4
REMARK VINA RESULT:     -11.5     12.192     16.231
REMARK  Name = 9999276
REMARK  5 active torsions:
REMARK  status: ('A' for Active; 'I' for Inactive)
REMARK    1  A    between atoms: C_3  and  C_11
REMARK    2  A    between atoms: C_6  and  C_20
REMARK    3  A    between atoms: C_14  and  N_19
REMARK    4  A    between atoms: C_25  and  C_27
REMARK    5  A    between atoms: C_27  and  O_28
REMARK                            x       y       z     vdW  Elec       q    Type
REMARK                         _______ _______ _______ _____ _____    ______ ____
ROOT
ATOM      1  N   UNL     1      33.221 -10.210 -23.519  0.00  0.00    -0.400 NA
ATOM      2  N   UNL     1      32.276  -7.760 -20.984  0.00  0.00    -0.242 NA
ATOM      3  C   UNL     1      33.002  -9.055 -22.848  0.00  0.00    +0.149 C 
ATOM      4  C   UNL     1      32.457  -8.956 -21.578  0.00  0.00    +0.107 C 
ATOM      5  C   UNL     1      32.108 -10.166 -20.955  0.00  0.00    +0.005 C 
ATOM      6  C   UNL     1      32.873 -11.347 -22.885  0.00  0.00    +0.131 C 
ATOM      7  C   UNL     1      32.319 -11.382 -21.617  0.00  0.00    +0.030 C 
ATOM      8  C   UNL     1      31.554 -10.108 -19.670  0.00  0.00    +0.056 C 
ATOM      9  C   UNL     1      31.363  -8.881 -19.049  0.00  0.00    -0.001 C 
ATOM     10  C   UNL     1      31.737  -7.747 -19.742  0.00  0.00    +0.095 C 
ENDROOT
BRANCH   3  11
ATOM     11  C   UNL     1      33.402  -7.879 -23.592  0.00  0.00    +0.033 C 
ATOM     12  C   UNL     1      32.446  -6.941 -23.977  0.00  0.00    +0.027 C 
ATOM     13  C   UNL     1      34.744  -7.688 -23.923  0.00  0.00    +0.003 C 
ATOM     14  C   UNL     1      32.832  -5.808 -24.694  0.00  0.00    +0.143 C 
ATOM     15  C   UNL     1      35.129  -6.555 -24.640  0.00  0.00    +0.002 C 
ATOM     16  C   UNL     1      34.173  -5.616 -25.027  0.00  0.00    +0.024 C 
BRANCH  14  19
ATOM     17  O   UNL     1      30.809  -4.746 -24.409  0.00  0.00    -0.126 OA
ATOM     18  O   UNL     1      32.082  -4.143 -26.096  0.00  0.00    -0.126 OA
ATOM     19  N   UNL     1      31.859  -4.851 -25.087  0.00  0.00    +0.058 N 
ENDBRANCH  14  19
ENDBRANCH   3  11
BRANCH   6  20
ATOM     20  C   UNL     1      33.116 -12.561 -23.626  0.00  0.00    +0.030 C 
ATOM     21  C   UNL     1      33.269 -13.776 -22.955  0.00  0.00    +0.003 C 
ATOM     22  C   UNL     1      33.202 -12.525 -25.020  0.00  0.00    +0.003 C 
ATOM     23  C   UNL     1      33.504 -14.949 -23.672  0.00  0.00    +0.007 C 
ATOM     24  C   UNL     1      33.437 -13.699 -25.738  0.00  0.00    +0.007 C 
ATOM     25  C   UNL     1      33.588 -14.909 -25.064  0.00  0.00    +0.075 C 
BRANCH  25  27
ATOM     26  O   UNL     1      34.921 -16.712 -25.900  0.00  0.00    -0.245 OA
ATOM     27  C   UNL     1      33.833 -16.132 -25.813  0.00  0.00    +0.338 C 
BRANCH  27  28
ATOM     28  O   UNL     1      32.714 -16.597 -26.431  0.00  0.00    -0.477 OA
ATOM     29  H   UNL     1      31.932 -16.081 -26.438  0.00  0.00    +0.295 HD
ENDBRANCH  27  28
ENDBRANCH  25  27
ENDBRANCH   6  20
TORSDOF 5
ENDMDL
MODEL 5
REMARK VINA RESULT:     -10.7      2.011      6.999
REMARK  Name = 9999276
REMARK  5 active torsions:
REMARK  status: ('A' for Active; 'I' for Inactive)
REMARK    1  A    between atoms: C_3  and  C_11
REMARK    2  A    between atoms: C_6  and  C_20
REMARK    3  A    between atoms: C_14  and  N_19
REMARK    4  A    between atoms: C_25  and  C_27
REMARK    5  A    between atoms: C_27  and  O_28
REMARK                            x       y       z     vdW  Elec       q    Type
REMARK                         _______ _______ _______ _____ _____    ______ ____
ROOT
ATOM      1  N   UNL     1      34.895 -23.187 -17.101  0.00  0.00    -0.400 NA
ATOM      2  N   UNL     1      31.309 -22.562 -17.370  0.00  0.00    -0.242 NA
ATOM      3  C   UNL     1      33.680 -22.750 -17.509  0.00  0.00    +0.149 C 
ATOM      4  C   UNL     1      32.474 -23.043 -16.895  0.00  0.00    +0.107 C 
ATOM      5  C   UNL     1      32.540 -23.865 -15.757  0.00  0.00    +0.005 C 
ATOM      6  C   UNL     1      34.913 -23.972 -16.006  0.00  0.00    +0.131 C 
ATOM      7  C   UNL     1      33.778 -24.338 -15.304  0.00  0.00    +0.030 C 
ATOM      8  C   UNL     1      31.341 -24.185 -15.106  0.00  0.00    +0.056 C 
ATOM      9  C   UNL     1      30.135 -23.694 -15.588  0.00  0.00    -0.001 C 
ATOM     10  C   UNL     1      30.173 -22.894 -16.713  0.00  0.00    +0.095 C 
ENDROOT
BRANCH   3  11
ATOM     11  C   UNL     1      33.742 -21.912 -18.689  0.00  0.00    +0.033 C 
ATOM     12  C   UNL     1      34.970 -21.424 -19.132  0.00  0.00    +0.027 C 
ATOM     13  C   UNL     1      32.573 -21.595 -19.379  0.00  0.00    +0.003 C 
ATOM     14  C   UNL     1      35.030 -20.618 -20.268  0.00  0.00    +0.143 C 
ATOM     15  C   UNL     1      32.632 -20.789 -20.516  0.00  0.00    +0.002 C 
ATOM     16  C   UNL     1      33.860 -20.299 -20.960  0.00  0.00    +0.024 C 
BRANCH  14  19
ATOM     17  O   UNL     1      36.340 -19.583 -21.853  0.00  0.00    -0.126 OA
ATOM     18  O   UNL     1      37.280 -20.230 -19.974  0.00  0.00    -0.126 OA
ATOM     19  N   UNL     1      36.280 -20.119 -20.721  0.00  0.00    +0.058 N 
ENDBRANCH  14  19
ENDBRANCH   3  11
BRANCH   6  20
ATOM     20  C   UNL     1      36.221 -24.424 -15.597  0.00  0.00    +0.030 C 
ATOM     21  C   UNL     1      37.312 -23.552 -15.646  0.00  0.00    +0.003 C 
ATOM     22  C   UNL     1      36.402 -25.735 -15.152  0.00  0.00    +0.003 C 
ATOM     23  C   UNL     1      38.576 -23.989 -15.251  0.00  0.00    +0.007 C 
ATOM     24  C   UNL     1      37.667 -26.172 -14.757  0.00  0.00    +0.007 C 
ATOM     25  C   UNL     1      38.753 -25.299 -14.806  0.00  0.00    +0.075 C 
BRANCH  25  27
ATOM     26  O   UNL     1      40.531 -26.886 -14.590  0.00  0.00    -0.245 OA
ATOM     27  C   UNL     1      40.071 -25.756 -14.394  0.00  0.00    +0.338 C 
BRANCH  27  28
ATOM     28  O   UNL     1      40.779 -24.789 -13.749  0.00  0.00    -0.477 OA
ATOM     29  H   UNL     1      40.701 -24.690 -12.820  0.00  0.00    +0.295 HD
ENDBRANCH  27  28
ENDBRANCH  25  27
ENDBRANCH   6  20
TORSDOF 5
ENDMDL
MODEL 6
REMARK VINA RESULT:     -10.5      2.343      4.625
REMARK  Name = 9999276
REMARK  5 active torsions:
REMARK  status: ('A' for Active; 'I' for Inactive)
REMARK    1  A    between atoms: C_3  and  C_11
REMARK    2  A    between atoms: C_6  and  C_20
REMARK    3  A    between atoms: C_14  and  N_19
REMARK    4  A    between atoms: C_25  and  C_27
REMARK    5  A    between atoms: C_27  and  O_28
REMARK                            x       y       z     vdW  Elec       q    Type
REMARK                         _______ _______ _______ _____ _____    ______ ____
ROOT
ATOM      1  N   UNL     1      34.426 -22.025 -18.073  0.00  0.00    -0.400 NA
ATOM      2  N   UNL     1      35.494 -23.851 -15.097  0.00  0.00    -0.242 NA
ATOM      3  C   UNL     1      34.439 -22.747 -16.927  0.00  0.00    +0.149 C 
ATOM      4  C   UNL     1      35.575 -23.131 -16.233  0.00  0.00    +0.107 C 
ATOM      5  C   UNL     1      36.804 -22.727 -16.782  0.00  0.00    +0.005 C 
ATOM      6  C   UNL     1      35.627 -21.658 -18.563  0.00  0.00    +0.131 C 
ATOM      7  C   UNL     1      36.832 -21.978 -17.965  0.00  0.00    +0.030 C 
ATOM      8  C   UNL     1      37.977 -23.095 -16.109  0.00  0.00    +0.056 C 
ATOM      9  C   UNL     1      37.903 -23.837 -14.937  0.00  0.00    -0.001 C 
ATOM     10  C   UNL     1      36.649 -24.186 -14.478  0.00  0.00    +0.095 C 
ENDROOT
BRANCH   3  11
ATOM     11  C   UNL     1      33.114 -23.102 -16.463  0.00  0.00    +0.033 C 
ATOM     12  C   UNL     1      32.937 -23.583 -15.167  0.00  0.00    +0.027 C 
ATOM     13  C   UNL     1      32.018 -22.962 -17.314  0.00  0.00    +0.003 C 
ATOM     14  C   UNL     1      31.661 -23.924 -14.719  0.00  0.00    +0.143 C 
ATOM     15  C   UNL     1      30.742 -23.304 -16.867  0.00  0.00    +0.002 C 
ATOM     16  C   UNL     1      30.563 -23.786 -15.570  0.00  0.00    +0.024 C 
BRANCH  14  19
ATOM     17  O   UNL     1      30.853 -23.706 -12.575  0.00  0.00    -0.126 OA
ATOM     18  O   UNL     1      31.947 -25.538 -13.103  0.00  0.00    -0.126 OA
ATOM     19  N   UNL     1      31.478 -24.414 -13.399  0.00  0.00    +0.058 N 
ENDBRANCH  14  19
ENDBRANCH   3  11
BRANCH   6  20
ATOM     20  C   UNL     1      35.580 -20.890 -19.785  0.00  0.00    +0.030 C 
ATOM     21  C   UNL     1      34.366 -20.693 -20.445  0.00  0.00    +0.003 C 
ATOM     22  C   UNL     1      36.753 -20.344 -20.313  0.00  0.00    +0.003 C 
ATOM     23  C   UNL     1      34.321 -19.951 -21.625  0.00  0.00    +0.007 C 
ATOM     24  C   UNL     1      36.708 -19.601 -21.494  0.00  0.00    +0.007 C 
ATOM     25  C   UNL     1      35.494 -19.405 -22.149  0.00  0.00    +0.075 C 
BRANCH  25  27
ATOM     26  O   UNL     1      34.879 -18.975 -24.421  0.00  0.00    -0.245 OA
ATOM     27  C   UNL     1      35.449 -18.632 -23.380  0.00  0.00    +0.338 C 
BRANCH  27  28
ATOM     28  O   UNL     1      36.116 -17.450 -23.277  0.00  0.00    -0.477 OA
ATOM     29  H   UNL     1      35.640 -16.651 -23.156  0.00  0.00    +0.295 HD
ENDBRANCH  27  28
ENDBRANCH  25  27
ENDBRANCH   6  20
TORSDOF 5
ENDMDL
