MODEL 1
REMARK VINA RESULT:     -13.1      0.000      0.000
REMARK  Name = 17758361
REMARK  5 active torsions:
REMARK  status: ('A' for Active; 'I' for Inactive)
REMARK    1  A    between atoms: N_1  and  C_18
REMARK    2  A    between atoms: C_4  and  C_10
REMARK    3  A    between atoms: C_10  and  C_11
REMARK    4  A    between atoms: C_18  and  C_19
REMARK    5  A    between atoms: C_22  and  C_27
REMARK                            x       y       z     vdW  Elec       q    Type
REMARK                         _______ _______ _______ _____ _____    ______ ____
ROOT
ATOM      1  N   UNL     1      35.173 -17.751 -24.039  0.00  0.00    -0.314 N 
ATOM      2  N   UNL     1      33.699 -17.102 -25.755  0.00  0.00    -0.229 NA
ATOM      3  C   UNL     1      34.440 -16.765 -24.676  0.00  0.00    +0.129 C 
ATOM      4  C   UNL     1      33.789 -14.480 -24.790  0.00  0.00    +0.043 C 
ATOM      5  C   UNL     1      34.519 -15.482 -24.159  0.00  0.00    +0.037 C 
ATOM      6  C   UNL     1      33.014 -14.788 -25.903  0.00  0.00    +0.024 C 
ATOM      7  C   UNL     1      33.003 -16.103 -26.342  0.00  0.00    +0.100 C 
ATOM      8  H   UNL     1      35.126 -18.668 -24.395  0.00  0.00    +0.149 HD
ENDROOT
BRANCH   4  10
ATOM      9  O   UNL     1      34.489 -12.251 -24.891  0.00  0.00    -0.287 OA
ATOM     10  C   UNL     1      33.836 -13.115 -24.289  0.00  0.00    +0.196 C 
BRANCH  10  11
ATOM     11  C   UNL     1      33.117 -12.692 -23.050  0.00  0.00    +0.039 C 
ATOM     12  C   UNL     1      32.689 -11.372 -22.908  0.00  0.00    -0.001 C 
ATOM     13  C   UNL     1      32.016 -10.977 -21.752  0.00  0.00    -0.022 C 
ATOM     14  C   UNL     1      32.871 -13.618 -22.037  0.00  0.00    +0.003 C 
ATOM     15  C   UNL     1      31.771 -11.903 -20.737  0.00  0.00    -0.004 C 
ATOM     16  C   UNL     1      32.198 -13.223 -20.880  0.00  0.00    -0.000 C 
ATOM     17  C   UNL     1      31.556  -9.567 -21.600  0.00  0.00    +0.031 C 
ENDBRANCH  10  11
ENDBRANCH   4  10
BRANCH   1  18
ATOM     18  C   UNL     1      36.002 -17.509 -22.879  0.00  0.00    +0.115 C 
BRANCH  18  19
ATOM     19  C   UNL     1      35.915 -18.644 -21.914  0.00  0.00    -0.003 C 
ATOM     20  C   UNL     1      34.699 -19.298 -21.715  0.00  0.00    -0.003 C 
ATOM     21  C   UNL     1      37.049 -19.050 -21.210  0.00  0.00    -0.003 C 
ATOM     22  C   UNL     1      35.751 -20.763 -20.108  0.00  0.00    +0.031 C 
ATOM     23  C   UNL     1      34.617 -20.357 -20.812  0.00  0.00    +0.002 C 
ATOM     24  C   UNL     1      36.967 -20.110 -20.307  0.00  0.00    +0.002 C 
BRANCH  22  27
ATOM     25  N   UNL     1      36.521 -21.958 -18.072  0.00  0.00    -0.343 N 
ATOM     26  N   UNL     1      34.760 -22.815 -19.346  0.00  0.00    -0.285 NA
ATOM     27  C   UNL     1      35.664 -21.869 -19.167  0.00  0.00    +0.117 C 
ATOM     28  H   UNL     1      36.445 -22.715 -17.447  0.00  0.00    +0.144 HD
ATOM     29  H   UNL     1      37.204 -21.264 -17.924  0.00  0.00    +0.144 HD
ATOM     30  H   UNL     1      34.699 -23.564 -18.710  0.00  0.00    +0.188 HD
ENDBRANCH  22  27
ENDBRANCH  18  19
ENDBRANCH   1  18
TORSDOF 5
ENDMDL
MODEL 2
REMARK VINA RESULT:     -12.9      4.728      8.061
REMARK  Name = 17758361
REMARK  5 active torsions:
REMARK  status: ('A' for Active; 'I' for Inactive)
REMARK    1  A    between atoms: N_1  and  C_18
REMARK    2  A    between atoms: C_4  and  C_10
REMARK    3  A    between atoms: C_10  and  C_11
REMARK    4  A    between atoms: C_18  and  C_19
REMARK    5  A    between atoms: C_22  and  C_27
REMARK                            x       y       z     vdW  Elec       q    Type
REMARK                         _______ _______ _______ _____ _____    ______ ____
ROOT
ATOM      1  N   UNL     1      31.668 -10.375 -20.770  0.00  0.00    -0.314 N 
ATOM      2  N   UNL     1      32.092  -8.422 -19.525  0.00  0.00    -0.229 NA
ATOM      3  C   UNL     1      31.836  -9.001 -20.720  0.00  0.00    +0.129 C 
ATOM      4  C   UNL     1      31.893  -6.925 -21.877  0.00  0.00    +0.043 C 
ATOM      5  C   UNL     1      31.728  -8.305 -21.913  0.00  0.00    +0.037 C 
ATOM      6  C   UNL     1      32.157  -6.293 -20.667  0.00  0.00    +0.024 C 
ATOM      7  C   UNL     1      32.246  -7.079 -19.530  0.00  0.00    +0.100 C 
ATOM      8  H   UNL     1      31.743 -10.883 -19.930  0.00  0.00    +0.149 HD
ENDROOT
BRANCH   4  10
ATOM      9  O   UNL     1      30.739  -5.544 -23.372  0.00  0.00    -0.287 OA
ATOM     10  C   UNL     1      31.789  -6.144 -23.100  0.00  0.00    +0.196 C 
BRANCH  10  11
ATOM     11  C   UNL     1      32.917  -6.027 -24.073  0.00  0.00    +0.039 C 
ATOM     12  C   UNL     1      32.758  -5.275 -25.238  0.00  0.00    -0.001 C 
ATOM     13  C   UNL     1      33.811  -5.164 -26.145  0.00  0.00    -0.022 C 
ATOM     14  C   UNL     1      34.129  -6.666 -23.815  0.00  0.00    +0.003 C 
ATOM     15  C   UNL     1      35.024  -5.805 -25.887  0.00  0.00    -0.004 C 
ATOM     16  C   UNL     1      35.183  -6.555 -24.723  0.00  0.00    -0.000 C 
ATOM     17  C   UNL     1      33.644  -4.359 -27.389  0.00  0.00    +0.031 C 
ENDBRANCH  10  11
ENDBRANCH   4  10
BRANCH   1  18
ATOM     18  C   UNL     1      31.390 -11.103 -21.988  0.00  0.00    +0.115 C 
BRANCH  18  19
ATOM     19  C   UNL     1      32.284 -12.291 -22.116  0.00  0.00    -0.003 C 
ATOM     20  C   UNL     1      32.281 -13.275 -21.129  0.00  0.00    -0.003 C 
ATOM     21  C   UNL     1      33.124 -12.415 -23.224  0.00  0.00    -0.003 C 
ATOM     22  C   UNL     1      33.958 -14.509 -22.354  0.00  0.00    +0.031 C 
ATOM     23  C   UNL     1      33.118 -14.384 -21.248  0.00  0.00    +0.002 C 
ATOM     24  C   UNL     1      33.961 -13.524 -23.342  0.00  0.00    +0.002 C 
BRANCH  22  27
ATOM     25  N   UNL     1      34.922 -16.616 -21.462  0.00  0.00    -0.343 N 
ATOM     26  N   UNL     1      35.557 -15.828 -23.568  0.00  0.00    -0.285 NA
ATOM     27  C   UNL     1      34.830 -15.666 -22.477  0.00  0.00    +0.117 C 
ATOM     28  H   UNL     1      35.519 -17.392 -21.566  0.00  0.00    +0.144 HD
ATOM     29  H   UNL     1      34.390 -16.511 -20.640  0.00  0.00    +0.144 HD
ATOM     30  H   UNL     1      36.148 -16.611 -23.654  0.00  0.00    +0.188 HD
ENDBRANCH  22  27
ENDBRANCH  18  19
ENDBRANCH   1  18
TORSDOF 5
ENDMDL
MODEL 3
REMARK VINA RESULT:     -12.8      1.559      2.461
REMARK  Name = 17758361
REMARK  5 active torsions:
REMARK  status: ('A' for Active; 'I' for Inactive)
REMARK    1  A    between atoms: N_1  and  C_18
REMARK    2  A    between atoms: C_4  and  C_10
REMARK    3  A    between atoms: C_10  and  C_11
REMARK    4  A    between atoms: C_18  and  C_19
REMARK    5  A    between atoms: C_22  and  C_27
REMARK                            x       y       z     vdW  Elec       q    Type
REMARK                         _______ _______ _______ _____ _____    ______ ____
ROOT
ATOM      1  N   UNL     1      36.054 -18.762 -23.086  0.00  0.00    -0.314 N 
ATOM      2  N   UNL     1      34.901 -17.583 -24.765  0.00  0.00    -0.229 NA
ATOM      3  C   UNL     1      35.342 -17.645 -23.489  0.00  0.00    +0.129 C 
ATOM      4  C   UNL     1      34.418 -15.525 -22.936  0.00  0.00    +0.043 C 
ATOM      5  C   UNL     1      35.130 -16.653 -22.545  0.00  0.00    +0.037 C 
ATOM      6  C   UNL     1      33.947 -15.424 -24.241  0.00  0.00    +0.024 C 
ATOM      7  C   UNL     1      34.213 -16.471 -25.109  0.00  0.00    +0.100 C 
ATOM      8  H   UNL     1      36.212 -19.476 -23.746  0.00  0.00    +0.149 HD
ENDROOT
BRANCH   4  10
ATOM      9  O   UNL     1      34.487 -14.585 -20.795  0.00  0.00    -0.287 OA
ATOM     10  C   UNL     1      34.167 -14.453 -21.986  0.00  0.00    +0.196 C 
BRANCH  10  11
ATOM     11  C   UNL     1      33.524 -13.164 -22.384  0.00  0.00    +0.039 C 
ATOM     12  C   UNL     1      32.423 -12.685 -21.673  0.00  0.00    -0.001 C 
ATOM     13  C   UNL     1      31.823 -11.482 -22.045  0.00  0.00    -0.022 C 
ATOM     14  C   UNL     1      34.025 -12.441 -23.465  0.00  0.00    +0.003 C 
ATOM     15  C   UNL     1      32.325 -10.757 -23.127  0.00  0.00    -0.004 C 
ATOM     16  C   UNL     1      33.426 -11.237 -23.836  0.00  0.00    -0.000 C 
ATOM     17  C   UNL     1      30.648 -10.967 -21.284  0.00  0.00    +0.031 C 
ENDBRANCH  10  11
ENDBRANCH   4  10
BRANCH   1  18
ATOM     18  C   UNL     1      36.576 -18.939 -21.749  0.00  0.00    +0.115 C 
BRANCH  18  19
ATOM     19  C   UNL     1      35.748 -19.909 -20.975  0.00  0.00    -0.003 C 
ATOM     20  C   UNL     1      36.366 -20.876 -20.183  0.00  0.00    -0.003 C 
ATOM     21  C   UNL     1      34.356 -19.851 -21.047  0.00  0.00    -0.003 C 
ATOM     22  C   UNL     1      34.201 -21.726 -19.531  0.00  0.00    +0.031 C 
ATOM     23  C   UNL     1      35.592 -21.784 -19.461  0.00  0.00    +0.002 C 
ATOM     24  C   UNL     1      33.583 -20.759 -20.324  0.00  0.00    +0.002 C 
BRANCH  22  27
ATOM     25  N   UNL     1      32.192 -22.293 -18.185  0.00  0.00    -0.343 N 
ATOM     26  N   UNL     1      33.803 -23.923 -18.644  0.00  0.00    -0.285 NA
ATOM     27  C   UNL     1      33.395 -22.673 -18.778  0.00  0.00    +0.117 C 
ATOM     28  H   UNL     1      31.662 -22.950 -17.679  0.00  0.00    +0.144 HD
ATOM     29  H   UNL     1      31.873 -21.365 -18.271  0.00  0.00    +0.144 HD
ATOM     30  H   UNL     1      33.258 -24.566 -18.134  0.00  0.00    +0.188 HD
ENDBRANCH  22  27
ENDBRANCH  18  19
ENDBRANCH   1  18
TORSDOF 5
ENDMDL
MODEL 4
REMARK VINA RESULT:     -12.6      5.830     11.075
REMARK  Name = 17758361
REMARK  5 active torsions:
REMARK  status: ('A' for Active; 'I' for Inactive)
REMARK    1  A    between atoms: N_1  and  C_18
REMARK    2  A    between atoms: C_4  and  C_10
REMARK    3  A    between atoms: C_10  and  C_11
REMARK    4  A    between atoms: C_18  and  C_19
REMARK    5  A    between atoms: C_22  and  C_27
REMARK                            x       y       z     vdW  Elec       q    Type
REMARK                         _______ _______ _______ _____ _____    ______ ____
ROOT
ATOM      1  N   UNL     1      34.961 -22.931 -17.782  0.00  0.00    -0.314 N 
ATOM      2  N   UNL     1      35.959 -23.798 -15.835  0.00  0.00    -0.229 NA
ATOM      3  C   UNL     1      34.857 -23.325 -16.459  0.00  0.00    +0.129 C 
ATOM      4  C   UNL     1      33.495 -23.601 -14.529  0.00  0.00    +0.043 C 
ATOM      5  C   UNL     1      33.614 -23.207 -15.858  0.00  0.00    +0.037 C 
ATOM      6  C   UNL     1      34.606 -24.093 -13.853  0.00  0.00    +0.024 C 
ATOM      7  C   UNL     1      35.805 -24.171 -14.544  0.00  0.00    +0.100 C 
ATOM      8  H   UNL     1      35.839 -23.009 -18.222  0.00  0.00    +0.149 HD
ENDROOT
BRANCH   4  10
ATOM      9  O   UNL     1      32.152 -23.056 -12.693  0.00  0.00    -0.287 OA
ATOM     10  C   UNL     1      32.214 -23.499 -13.849  0.00  0.00    +0.196 C 
BRANCH  10  11
ATOM     11  C   UNL     1      30.930 -23.915 -14.493  0.00  0.00    +0.039 C 
ATOM     12  C   UNL     1      30.113 -22.960 -15.099  0.00  0.00    -0.001 C 
ATOM     13  C   UNL     1      28.916 -23.348 -15.701  0.00  0.00    -0.022 C 
ATOM     14  C   UNL     1      30.552 -25.257 -14.489  0.00  0.00    +0.003 C 
ATOM     15  C   UNL     1      28.537 -24.691 -15.697  0.00  0.00    -0.004 C 
ATOM     16  C   UNL     1      29.355 -25.645 -15.092  0.00  0.00    -0.000 C 
ATOM     17  C   UNL     1      28.043 -22.329 -16.351  0.00  0.00    +0.031 C 
ENDBRANCH  10  11
ENDBRANCH   4  10
BRANCH   1  18
ATOM     18  C   UNL     1      33.852 -22.412 -18.552  0.00  0.00    +0.115 C 
BRANCH  18  19
ATOM     19  C   UNL     1      34.328 -21.460 -19.598  0.00  0.00    -0.003 C 
ATOM     20  C   UNL     1      35.694 -21.305 -19.830  0.00  0.00    -0.003 C 
ATOM     21  C   UNL     1      33.406 -20.724 -20.343  0.00  0.00    -0.003 C 
ATOM     22  C   UNL     1      35.218 -19.679 -21.551  0.00  0.00    +0.031 C 
ATOM     23  C   UNL     1      36.139 -20.415 -20.806  0.00  0.00    +0.002 C 
ATOM     24  C   UNL     1      33.851 -19.834 -21.319  0.00  0.00    +0.002 C 
BRANCH  22  27
ATOM     25  N   UNL     1      34.822 -18.253 -23.545  0.00  0.00    -0.343 N 
ATOM     26  N   UNL     1      36.947 -18.366 -22.580  0.00  0.00    -0.285 NA
ATOM     27  C   UNL     1      35.683 -18.751 -22.569  0.00  0.00    +0.117 C 
ATOM     28  H   UNL     1      35.157 -17.625 -24.225  0.00  0.00    +0.144 HD
ATOM     29  H   UNL     1      33.876 -18.530 -23.555  0.00  0.00    +0.144 HD
ATOM     30  H   UNL     1      37.264 -17.737 -23.268  0.00  0.00    +0.188 HD
ENDBRANCH  22  27
ENDBRANCH  18  19
ENDBRANCH   1  18
TORSDOF 5
ENDMDL
MODEL 5
REMARK VINA RESULT:     -12.5      6.210     11.311
REMARK  Name = 17758361
REMARK  5 active torsions:
REMARK  status: ('A' for Active; 'I' for Inactive)
REMARK    1  A    between atoms: N_1  and  C_18
REMARK    2  A    between atoms: C_4  and  C_10
REMARK    3  A    between atoms: C_10  and  C_11
REMARK    4  A    between atoms: C_18  and  C_19
REMARK    5  A    between atoms: C_22  and  C_27
REMARK                            x       y       z     vdW  Elec       q    Type
REMARK                         _______ _______ _______ _____ _____    ______ ____
ROOT
ATOM      1  N   UNL     1      32.519 -22.485 -18.476  0.00  0.00    -0.314 N 
ATOM      2  N   UNL     1      30.621 -22.417 -17.087  0.00  0.00    -0.229 NA
ATOM      3  C   UNL     1      31.910 -22.782 -17.269  0.00  0.00    +0.129 C 
ATOM      4  C   UNL     1      32.073 -23.744 -15.101  0.00  0.00    +0.043 C 
ATOM      5  C   UNL     1      32.672 -23.441 -16.318  0.00  0.00    +0.037 C 
ATOM      6  C   UNL     1      30.749 -23.385 -14.875  0.00  0.00    +0.024 C 
ATOM      7  C   UNL     1      30.072 -22.729 -15.891  0.00  0.00    +0.100 C 
ATOM      8  H   UNL     1      31.989 -22.018 -19.162  0.00  0.00    +0.149 HD
ENDROOT
BRANCH   4  10
ATOM      9  O   UNL     1      32.239 -25.085 -13.191  0.00  0.00    -0.287 OA
ATOM     10  C   UNL     1      32.828 -24.434 -14.067  0.00  0.00    +0.196 C 
BRANCH  10  11
ATOM     11  C   UNL     1      34.321 -24.396 -14.005  0.00  0.00    +0.039 C 
ATOM     12  C   UNL     1      34.959 -23.781 -12.927  0.00  0.00    -0.001 C 
ATOM     13  C   UNL     1      36.352 -23.747 -12.869  0.00  0.00    -0.022 C 
ATOM     14  C   UNL     1      35.075 -24.976 -15.024  0.00  0.00    +0.003 C 
ATOM     15  C   UNL     1      37.107 -24.327 -13.888  0.00  0.00    -0.004 C 
ATOM     16  C   UNL     1      36.469 -24.942 -14.965  0.00  0.00    -0.000 C 
ATOM     17  C   UNL     1      37.035 -23.092 -11.716  0.00  0.00    +0.031 C 
ENDBRANCH  10  11
ENDBRANCH   4  10
BRANCH   1  18
ATOM     18  C   UNL     1      33.891 -22.824 -18.785  0.00  0.00    +0.115 C 
BRANCH  18  19
ATOM     19  C   UNL     1      34.548 -21.735 -19.566  0.00  0.00    -0.003 C 
ATOM     20  C   UNL     1      35.938 -21.620 -19.568  0.00  0.00    -0.003 C 
ATOM     21  C   UNL     1      33.771 -20.832 -20.293  0.00  0.00    -0.003 C 
ATOM     22  C   UNL     1      35.776 -19.699 -21.024  0.00  0.00    +0.031 C 
ATOM     23  C   UNL     1      36.551 -20.601 -20.297  0.00  0.00    +0.002 C 
ATOM     24  C   UNL     1      34.386 -19.814 -21.022  0.00  0.00    +0.002 C 
BRANCH  22  27
ATOM     25  N   UNL     1      37.792 -18.636 -22.010  0.00  0.00    -0.343 N 
ATOM     26  N   UNL     1      35.691 -17.647 -22.271  0.00  0.00    -0.285 NA
ATOM     27  C   UNL     1      36.417 -18.638 -21.784  0.00  0.00    +0.117 C 
ATOM     28  H   UNL     1      38.206 -17.908 -22.527  0.00  0.00    +0.144 HD
ATOM     29  H   UNL     1      38.351 -19.365 -21.652  0.00  0.00    +0.144 HD
ATOM     30  H   UNL     1      36.123 -16.928 -22.786  0.00  0.00    +0.188 HD
ENDBRANCH  22  27
ENDBRANCH  18  19
ENDBRANCH   1  18
TORSDOF 5
ENDMDL
MODEL 6
REMARK VINA RESULT:     -12.3      4.264      7.193
REMARK  Name = 17758361
REMARK  5 active torsions:
REMARK  status: ('A' for Active; 'I' for Inactive)
REMARK    1  A    between atoms: N_1  and  C_18
REMARK    2  A    between atoms: C_4  and  C_10
REMARK    3  A    between atoms: C_10  and  C_11
REMARK    4  A    between atoms: C_18  and  C_19
REMARK    5  A    between atoms: C_22  and  C_27
REMARK                            x       y       z     vdW  Elec       q    Type
REMARK                         _______ _______ _______ _____ _____    ______ ____
ROOT
ATOM      1  N   UNL     1      31.961 -11.474 -20.557  0.00  0.00    -0.314 N 
ATOM      2  N   UNL     1      32.228  -9.509 -19.289  0.00  0.00    -0.229 NA
ATOM      3  C   UNL     1      32.032 -10.093 -20.493  0.00  0.00    +0.129 C 
ATOM      4  C   UNL     1      31.959  -8.006 -21.630  0.00  0.00    +0.043 C 
ATOM      5  C   UNL     1      31.892  -9.394 -21.681  0.00  0.00    +0.037 C 
ATOM      6  C   UNL     1      32.160  -7.369 -20.411  0.00  0.00    +0.024 C 
ATOM      7  C   UNL     1      32.287  -8.159 -19.279  0.00  0.00    +0.100 C 
ATOM      8  H   UNL     1      32.060 -11.984 -19.721  0.00  0.00    +0.149 HD
ENDROOT
BRANCH   4  10
ATOM      9  O   UNL     1      30.699  -6.847 -23.224  0.00  0.00    -0.287 OA
ATOM     10  C   UNL     1      31.819  -7.223 -22.848  0.00  0.00    +0.196 C 
BRANCH  10  11
ATOM     11  C   UNL     1      32.991  -6.838 -23.692  0.00  0.00    +0.039 C 
ATOM     12  C   UNL     1      32.830  -5.926 -24.735  0.00  0.00    -0.001 C 
ATOM     13  C   UNL     1      33.923  -5.566 -25.522  0.00  0.00    -0.022 C 
ATOM     14  C   UNL     1      34.245  -7.388 -23.434  0.00  0.00    +0.003 C 
ATOM     15  C   UNL     1      35.179  -6.117 -25.264  0.00  0.00    -0.004 C 
ATOM     16  C   UNL     1      35.340  -7.027 -24.220  0.00  0.00    -0.000 C 
ATOM     17  C   UNL     1      33.752  -4.589 -26.636  0.00  0.00    +0.031 C 
ENDBRANCH  10  11
ENDBRANCH   4  10
BRANCH   1  18
ATOM     18  C   UNL     1      31.753 -12.208 -21.786  0.00  0.00    +0.115 C 
BRANCH  18  19
ATOM     19  C   UNL     1      32.669 -13.383 -21.868  0.00  0.00    -0.003 C 
ATOM     20  C   UNL     1      33.333 -13.667 -23.061  0.00  0.00    -0.003 C 
ATOM     21  C   UNL     1      32.860 -14.199 -20.752  0.00  0.00    -0.003 C 
ATOM     22  C   UNL     1      34.379 -15.581 -22.024  0.00  0.00    +0.031 C 
ATOM     23  C   UNL     1      34.188 -14.766 -23.139  0.00  0.00    +0.002 C 
ATOM     24  C   UNL     1      33.715 -15.298 -20.830  0.00  0.00    +0.002 C 
BRANCH  22  27
ATOM     25  N   UNL     1      35.900 -17.073 -23.300  0.00  0.00    -0.343 N 
ATOM     26  N   UNL     1      35.494 -17.465 -21.032  0.00  0.00    -0.285 NA
ATOM     27  C   UNL     1      35.271 -16.727 -22.106  0.00  0.00    +0.117 C 
ATOM     28  H   UNL     1      36.500 -17.853 -23.333  0.00  0.00    +0.144 HD
ATOM     29  H   UNL     1      35.744 -16.537 -24.112  0.00  0.00    +0.144 HD
ATOM     30  H   UNL     1      36.098 -18.241 -21.085  0.00  0.00    +0.188 HD
ENDBRANCH  22  27
ENDBRANCH  18  19
ENDBRANCH   1  18
TORSDOF 5
ENDMDL
MODEL 7
REMARK VINA RESULT:     -12.1      3.941      7.305
REMARK  Name = 17758361
REMARK  5 active torsions:
REMARK  status: ('A' for Active; 'I' for Inactive)
REMARK    1  A    between atoms: N_1  and  C_18
REMARK    2  A    between atoms: C_4  and  C_10
REMARK    3  A    between atoms: C_10  and  C_11
REMARK    4  A    between atoms: C_18  and  C_19
REMARK    5  A    between atoms: C_22  and  C_27
REMARK                            x       y       z     vdW  Elec       q    Type
REMARK                         _______ _______ _______ _____ _____    ______ ____
ROOT
ATOM      1  N   UNL     1      35.117 -22.412 -17.919  0.00  0.00    -0.314 N 
ATOM      2  N   UNL     1      33.314 -21.811 -19.307  0.00  0.00    -0.229 NA
ATOM      3  C   UNL     1      34.622 -21.687 -18.990  0.00  0.00    +0.129 C 
ATOM      4  C   UNL     1      35.031 -20.145 -20.753  0.00  0.00    +0.043 C 
ATOM      5  C   UNL     1      35.514 -20.877 -19.674  0.00  0.00    +0.037 C 
ATOM      6  C   UNL     1      33.691 -20.245 -21.110  0.00  0.00    +0.024 C 
ATOM      7  C   UNL     1      32.881 -21.084 -20.362  0.00  0.00    +0.100 C 
ATOM      8  H   UNL     1      34.494 -22.992 -17.423  0.00  0.00    +0.149 HD
ENDROOT
BRANCH   4  10
ATOM      9  O   UNL     1      37.115 -19.173 -21.182  0.00  0.00    -0.287 OA
ATOM     10  C   UNL     1      35.924 -19.279 -21.507  0.00  0.00    +0.196 C 
BRANCH  10  11
ATOM     11  C   UNL     1      35.463 -18.486 -22.687  0.00  0.00    +0.039 C 
ATOM     12  C   UNL     1      35.332 -17.100 -22.589  0.00  0.00    -0.001 C 
ATOM     13  C   UNL     1      34.902 -16.361 -23.690  0.00  0.00    -0.022 C 
ATOM     14  C   UNL     1      35.165 -19.132 -23.886  0.00  0.00    +0.003 C 
ATOM     15  C   UNL     1      34.604 -17.007 -24.891  0.00  0.00    -0.004 C 
ATOM     16  C   UNL     1      34.736 -18.392 -24.988  0.00  0.00    -0.000 C 
ATOM     17  C   UNL     1      34.765 -14.879 -23.587  0.00  0.00    +0.031 C 
ENDBRANCH  10  11
ENDBRANCH   4  10
BRANCH   1  18
ATOM     18  C   UNL     1      36.497 -22.362 -17.488  0.00  0.00    +0.115 C 
BRANCH  18  19
ATOM     19  C   UNL     1      36.656 -22.974 -16.136  0.00  0.00    -0.003 C 
ATOM     20  C   UNL     1      37.880 -23.531 -15.764  0.00  0.00    -0.003 C 
ATOM     21  C   UNL     1      35.583 -22.989 -15.246  0.00  0.00    -0.003 C 
ATOM     22  C   UNL     1      36.956 -24.119 -13.611  0.00  0.00    +0.031 C 
ATOM     23  C   UNL     1      38.029 -24.104 -14.502  0.00  0.00    +0.002 C 
ATOM     24  C   UNL     1      35.733 -23.562 -13.983  0.00  0.00    +0.002 C 
BRANCH  22  27
ATOM     25  N   UNL     1      37.767 -24.043 -11.265  0.00  0.00    -0.343 N 
ATOM     26  N   UNL     1      36.633 -25.925 -12.060  0.00  0.00    -0.285 NA
ATOM     27  C   UNL     1      37.113 -24.717 -12.295  0.00  0.00    +0.117 C 
ATOM     28  H   UNL     1      37.862 -24.466 -10.381  0.00  0.00    +0.144 HD
ATOM     29  H   UNL     1      38.134 -23.142 -11.422  0.00  0.00    +0.144 HD
ATOM     30  H   UNL     1      36.738 -26.332 -11.169  0.00  0.00    +0.188 HD
ENDBRANCH  22  27
ENDBRANCH  18  19
ENDBRANCH   1  18
TORSDOF 5
ENDMDL
MODEL 8
REMARK VINA RESULT:     -12.0      4.469     11.004
REMARK  Name = 17758361
REMARK  5 active torsions:
REMARK  status: ('A' for Active; 'I' for Inactive)
REMARK    1  A    between atoms: N_1  and  C_18
REMARK    2  A    between atoms: C_4  and  C_10
REMARK    3  A    between atoms: C_10  and  C_11
REMARK    4  A    between atoms: C_18  and  C_19
REMARK    5  A    between atoms: C_22  and  C_27
REMARK                            x       y       z     vdW  Elec       q    Type
REMARK                         _______ _______ _______ _____ _____    ______ ____
ROOT
ATOM      1  N   UNL     1      34.988 -21.126 -20.215  0.00  0.00    -0.314 N 
ATOM      2  N   UNL     1      33.860 -22.531 -18.699  0.00  0.00    -0.229 NA
ATOM      3  C   UNL     1      34.971 -21.831 -19.023  0.00  0.00    +0.129 C 
ATOM      4  C   UNL     1      36.103 -22.471 -17.032  0.00  0.00    +0.043 C 
ATOM      5  C   UNL     1      36.107 -21.769 -18.232  0.00  0.00    +0.037 C 
ATOM      6  C   UNL     1      34.978 -23.202 -16.664  0.00  0.00    +0.024 C 
ATOM      7  C   UNL     1      33.893 -23.200 -17.525  0.00  0.00    +0.100 C 
ATOM      8  H   UNL     1      34.188 -21.162 -20.787  0.00  0.00    +0.149 HD
ENDROOT
BRANCH   4  10
ATOM      9  O   UNL     1      38.061 -21.488 -16.212  0.00  0.00    -0.287 OA
ATOM     10  C   UNL     1      37.269 -22.440 -16.163  0.00  0.00    +0.196 C 
BRANCH  10  11
ATOM     11  C   UNL     1      37.568 -23.531 -15.186  0.00  0.00    +0.039 C 
ATOM     12  C   UNL     1      38.765 -24.243 -15.280  0.00  0.00    -0.001 C 
ATOM     13  C   UNL     1      39.044 -25.260 -14.368  0.00  0.00    -0.022 C 
ATOM     14  C   UNL     1      36.652 -23.836 -14.180  0.00  0.00    +0.003 C 
ATOM     15  C   UNL     1      38.128 -25.565 -13.361  0.00  0.00    -0.004 C 
ATOM     16  C   UNL     1      36.932 -24.853 -13.267  0.00  0.00    -0.000 C 
ATOM     17  C   UNL     1      40.324 -26.019 -14.466  0.00  0.00    +0.031 C 
ENDBRANCH  10  11
ENDBRANCH   4  10
BRANCH   1  18
ATOM     18  C   UNL     1      36.118 -20.343 -20.664  0.00  0.00    +0.115 C 
BRANCH  18  19
ATOM     19  C   UNL     1      35.697 -19.333 -21.679  0.00  0.00    -0.003 C 
ATOM     20  C   UNL     1      35.659 -17.980 -21.341  0.00  0.00    -0.003 C 
ATOM     21  C   UNL     1      35.340 -19.741 -22.964  0.00  0.00    -0.003 C 
ATOM     22  C   UNL     1      34.907 -17.443 -23.573  0.00  0.00    +0.031 C 
ATOM     23  C   UNL     1      35.264 -17.036 -22.288  0.00  0.00    +0.002 C 
ATOM     24  C   UNL     1      34.945 -18.796 -23.911  0.00  0.00    +0.002 C 
BRANCH  22  27
ATOM     25  N   UNL     1      33.914 -15.250 -24.180  0.00  0.00    -0.343 N 
ATOM     26  N   UNL     1      34.670 -16.703 -25.846  0.00  0.00    -0.285 NA
ATOM     27  C   UNL     1      34.496 -16.458 -24.559  0.00  0.00    +0.117 C 
ATOM     28  H   UNL     1      33.643 -14.597 -24.864  0.00  0.00    +0.144 HD
ATOM     29  H   UNL     1      33.773 -15.050 -23.226  0.00  0.00    +0.144 HD
ATOM     30  H   UNL     1      34.393 -16.037 -26.516  0.00  0.00    +0.188 HD
ENDBRANCH  22  27
ENDBRANCH  18  19
ENDBRANCH   1  18
TORSDOF 5
ENDMDL
MODEL 9
REMARK VINA RESULT:     -12.0      5.767     11.880
REMARK  Name = 17758361
REMARK  5 active torsions:
REMARK  status: ('A' for Active; 'I' for Inactive)
REMARK    1  A    between atoms: N_1  and  C_18
REMARK    2  A    between atoms: C_4  and  C_10
REMARK    3  A    between atoms: C_10  and  C_11
REMARK    4  A    between atoms: C_18  and  C_19
REMARK    5  A    between atoms: C_22  and  C_27
REMARK                            x       y       z     vdW  Elec       q    Type
REMARK                         _______ _______ _______ _____ _____    ______ ____
ROOT
ATOM      1  N   UNL     1      32.889 -22.672 -18.151  0.00  0.00    -0.314 N 
ATOM      2  N   UNL     1      32.226 -22.831 -15.899  0.00  0.00    -0.229 NA
ATOM      3  C   UNL     1      33.092 -23.175 -16.878  0.00  0.00    +0.129 C 
ATOM      4  C   UNL     1      34.402 -24.517 -15.416  0.00  0.00    +0.043 C 
ATOM      5  C   UNL     1      34.186 -24.006 -16.690  0.00  0.00    +0.037 C 
ATOM      6  C   UNL     1      33.532 -24.186 -14.382  0.00  0.00    +0.024 C 
ATOM      7  C   UNL     1      32.469 -23.347 -14.673  0.00  0.00    +0.100 C 
ATOM      8  H   UNL     1      32.116 -22.081 -18.300  0.00  0.00    +0.149 HD
ENDROOT
BRANCH   4  10
ATOM      9  O   UNL     1      35.629 -26.480 -15.751  0.00  0.00    -0.287 OA
ATOM     10  C   UNL     1      35.535 -25.394 -15.163  0.00  0.00    +0.196 C 
BRANCH  10  11
ATOM     11  C   UNL     1      36.623 -25.039 -14.201  0.00  0.00    +0.039 C 
ATOM     12  C   UNL     1      37.946 -25.374 -14.489  0.00  0.00    -0.001 C 
ATOM     13  C   UNL     1      38.961 -25.043 -13.592  0.00  0.00    -0.022 C 
ATOM     14  C   UNL     1      36.315 -24.371 -13.016  0.00  0.00    +0.003 C 
ATOM     15  C   UNL     1      38.653 -24.374 -12.406  0.00  0.00    -0.004 C 
ATOM     16  C   UNL     1      37.330 -24.039 -12.119  0.00  0.00    -0.000 C 
ATOM     17  C   UNL     1      40.376 -25.398 -13.901  0.00  0.00    +0.031 C 
ENDBRANCH  10  11
ENDBRANCH   4  10
BRANCH   1  18
ATOM     18  C   UNL     1      33.750 -22.968 -19.276  0.00  0.00    +0.115 C 
BRANCH  18  19
ATOM     19  C   UNL     1      34.251 -21.714 -19.910  0.00  0.00    -0.003 C 
ATOM     20  C   UNL     1      33.348 -20.793 -20.441  0.00  0.00    -0.003 C 
ATOM     21  C   UNL     1      35.622 -21.463 -19.972  0.00  0.00    -0.003 C 
ATOM     22  C   UNL     1      35.186 -19.370 -21.098  0.00  0.00    +0.031 C 
ATOM     23  C   UNL     1      33.816 -19.622 -21.035  0.00  0.00    +0.002 C 
ATOM     24  C   UNL     1      36.089 -20.291 -20.566  0.00  0.00    +0.002 C 
BRANCH  22  27
ATOM     25  N   UNL     1      35.248 -16.894 -21.282  0.00  0.00    -0.343 N 
ATOM     26  N   UNL     1      36.535 -18.216 -22.717  0.00  0.00    -0.285 NA
ATOM     27  C   UNL     1      35.673 -18.148 -21.717  0.00  0.00    +0.117 C 
ATOM     28  H   UNL     1      35.590 -16.080 -21.716  0.00  0.00    +0.144 HD
ATOM     29  H   UNL     1      34.603 -16.824 -20.541  0.00  0.00    +0.144 HD
ATOM     30  H   UNL     1      36.866 -17.390 -23.138  0.00  0.00    +0.188 HD
ENDBRANCH  22  27
ENDBRANCH  18  19
ENDBRANCH   1  18
TORSDOF 5
ENDMDL
