MODEL 1
REMARK VINA RESULT:     -13.5      0.000      0.000
REMARK  Name = 24978486
REMARK  5 active torsions:
REMARK  status: ('A' for Active; 'I' for Inactive)
REMARK    1  A    between atoms: O_1  and  C_6
REMARK    2  A    between atoms: O_1  and  C_18
REMARK    3  A    between atoms: C_18  and  C_20
REMARK    4  A    between atoms: N_19  and  C_26
REMARK    5  A    between atoms: C_26  and  C_29
REMARK                            x       y       z     vdW  Elec       q    Type
REMARK                         _______ _______ _______ _____ _____    ______ ____
ROOT
ATOM      1  O   UNL     1      34.995 -22.776 -17.448  0.00  0.00    -0.479 OA
ENDROOT
BRANCH   1   6
ATOM      2  N   UNL     1      36.164 -24.236 -12.978  0.00  0.00    -0.332 NA
ATOM      3  N   UNL     1      37.934 -23.512 -14.445  0.00  0.00    -0.317 NA
ATOM      4  N   UNL     1      37.492 -22.787 -16.617  0.00  0.00    -0.335 N 
ATOM      5  N   UNL     1      38.399 -24.236 -12.266  0.00  0.00    -0.283 N 
ATOM      6  C   UNL     1      34.682 -23.255 -16.200  0.00  0.00    +0.130 C 
ATOM      7  C   UNL     1      35.638 -23.503 -15.201  0.00  0.00    +0.177 C 
ATOM      8  C   UNL     1      33.335 -23.497 -15.950  0.00  0.00    +0.033 C 
ATOM      9  C   UNL     1      35.257 -23.996 -13.942  0.00  0.00    +0.137 C 
ATOM     10  C   UNL     1      37.000 -23.282 -15.387  0.00  0.00    +0.181 C 
ATOM     11  C   UNL     1      32.945 -23.985 -14.708  0.00  0.00    +0.005 C 
ATOM     12  C   UNL     1      33.903 -24.229 -13.718  0.00  0.00    +0.030 C 
ATOM     13  C   UNL     1      37.453 -23.982 -13.282  0.00  0.00    +0.197 C 
ATOM     14  H   UNL     1      38.457 -22.635 -16.735  0.00  0.00    +0.144 HD
ATOM     15  H   UNL     1      36.869 -22.595 -17.354  0.00  0.00    +0.144 HD
ATOM     16  H   UNL     1      38.103 -24.581 -11.393  0.00  0.00    +0.156 HD
ATOM     17  H   UNL     1      39.356 -24.067 -12.429  0.00  0.00    +0.156 HD
ENDBRANCH   1   6
BRANCH   1  18
ATOM     18  C   UNL     1      33.930 -22.642 -18.371  0.00  0.00    +0.205 C 
BRANCH  18  20
ATOM     19  N   UNL     1      35.307 -19.479 -20.970  0.00  0.00    +0.390 N 
ATOM     20  C   UNL     1      34.454 -21.937 -19.619  0.00  0.00    +0.040 C 
ATOM     21  C   UNL     1      35.813 -21.282 -19.352  0.00  0.00    -0.019 C 
ATOM     22  C   UNL     1      33.459 -20.882 -20.114  0.00  0.00    -0.019 C 
ATOM     23  C   UNL     1      36.296 -20.488 -20.568  0.00  0.00    -0.077 C 
ATOM     24  C   UNL     1      34.020 -20.102 -21.304  0.00  0.00    -0.077 C 
ATOM     25  H   UNL     1      35.158 -18.852 -20.178  0.00  0.00    -0.079 HD
BRANCH  19  26
ATOM     26  C   UNL     1      35.806 -18.695 -22.099  0.00  0.00    -0.049 C 
BRANCH  26  29
ATOM     27 CL   UNL     1      35.003 -17.627 -24.837  0.00  0.00    -0.082 Cl
ATOM     28 CL   UNL     1      33.673 -14.702 -24.816  0.00  0.00    -0.081 Cl
ATOM     29  C   UNL     1      35.178 -17.328 -22.156  0.00  0.00    -0.032 C 
ATOM     30  C   UNL     1      34.775 -16.749 -23.359  0.00  0.00    +0.062 C 
ATOM     31  C   UNL     1      35.002 -16.638 -20.956  0.00  0.00    -0.005 C 
ATOM     32  C   UNL     1      34.196 -15.479 -23.362  0.00  0.00    +0.068 C 
ATOM     33  C   UNL     1      34.423 -15.369 -20.960  0.00  0.00    +0.001 C 
ATOM     34  C   UNL     1      34.021 -14.790 -22.163  0.00  0.00    +0.012 C 
ENDBRANCH  26  29
ENDBRANCH  19  26
ENDBRANCH  18  20
ENDBRANCH   1  18
TORSDOF 5
ENDMDL
MODEL 2
REMARK VINA RESULT:     -13.3      4.315     10.437
REMARK  Name = 24978486
REMARK  5 active torsions:
REMARK  status: ('A' for Active; 'I' for Inactive)
REMARK    1  A    between atoms: O_1  and  C_6
REMARK    2  A    between atoms: O_1  and  C_18
REMARK    3  A    between atoms: C_18  and  C_20
REMARK    4  A    between atoms: N_19  and  C_26
REMARK    5  A    between atoms: C_26  and  C_29
REMARK                            x       y       z     vdW  Elec       q    Type
REMARK                         _______ _______ _______ _____ _____    ______ ____
ROOT
ATOM      1  O   UNL     1      35.326 -18.172 -22.796  0.00  0.00    -0.479 OA
ENDROOT
BRANCH   1   6
ATOM      2  N   UNL     1      33.736 -13.990 -24.657  0.00  0.00    -0.332 NA
ATOM      3  N   UNL     1      34.072 -15.852 -26.149  0.00  0.00    -0.317 NA
ATOM      4  N   UNL     1      34.834 -17.913 -25.369  0.00  0.00    -0.335 N 
ATOM      5  N   UNL     1      33.306 -13.790 -26.954  0.00  0.00    -0.283 N 
ATOM      6  C   UNL     1      34.936 -16.860 -22.690  0.00  0.00    +0.130 C 
ATOM      7  C   UNL     1      34.522 -16.082 -23.785  0.00  0.00    +0.177 C 
ATOM      8  C   UNL     1      34.968 -16.305 -21.416  0.00  0.00    +0.033 C 
ATOM      9  C   UNL     1      34.135 -14.743 -23.616  0.00  0.00    +0.137 C 
ATOM     10  C   UNL     1      34.466 -16.577 -25.085  0.00  0.00    +0.181 C 
ATOM     11  C   UNL     1      34.589 -14.979 -21.235  0.00  0.00    +0.005 C 
ATOM     12  C   UNL     1      34.177 -14.212 -22.329  0.00  0.00    +0.030 C 
ATOM     13  C   UNL     1      33.727 -14.586 -25.866  0.00  0.00    +0.197 C 
ATOM     14  H   UNL     1      34.790 -18.251 -26.292  0.00  0.00    +0.144 HD
ATOM     15  H   UNL     1      35.132 -18.506 -24.641  0.00  0.00    +0.144 HD
ATOM     16  H   UNL     1      33.041 -12.853 -26.805  0.00  0.00    +0.156 HD
ATOM     17  H   UNL     1      33.277 -14.171 -27.862  0.00  0.00    +0.156 HD
ENDBRANCH   1   6
BRANCH   1  18
ATOM     18  C   UNL     1      36.034 -18.722 -21.700  0.00  0.00    +0.205 C 
BRANCH  18  20
ATOM     19  N   UNL     1      34.150 -21.706 -19.209  0.00  0.00    +0.390 N 
ATOM     20  C   UNL     1      35.354 -20.025 -21.287  0.00  0.00    +0.040 C 
ATOM     21  C   UNL     1      33.953 -19.762 -20.727  0.00  0.00    -0.019 C 
ATOM     22  C   UNL     1      36.194 -20.779 -20.250  0.00  0.00    -0.019 C 
ATOM     23  C   UNL     1      33.306 -21.052 -20.218  0.00  0.00    -0.077 C 
ATOM     24  C   UNL     1      35.473 -22.035 -19.757  0.00  0.00    -0.077 C 
ATOM     25  H   UNL     1      34.283 -21.052 -18.437  0.00  0.00    -0.079 HD
BRANCH  19  26
ATOM     26  C   UNL     1      33.495 -22.908 -18.695  0.00  0.00    -0.049 C 
BRANCH  26  29
ATOM     27 CL   UNL     1      31.089 -23.077 -16.835  0.00  0.00    -0.082 Cl
ATOM     28 CL   UNL     1      31.799 -23.511 -13.732  0.00  0.00    -0.081 Cl
ATOM     29  C   UNL     1      33.763 -23.110 -17.228  0.00  0.00    -0.032 C 
ATOM     30  C   UNL     1      32.731 -23.201 -16.293  0.00  0.00    +0.062 C 
ATOM     31  C   UNL     1      35.091 -23.208 -16.811  0.00  0.00    -0.005 C 
ATOM     32  C   UNL     1      33.028 -23.389 -14.943  0.00  0.00    +0.068 C 
ATOM     33  C   UNL     1      35.387 -23.396 -15.462  0.00  0.00    +0.001 C 
ATOM     34  C   UNL     1      34.356 -23.486 -14.528  0.00  0.00    +0.012 C 
ENDBRANCH  26  29
ENDBRANCH  19  26
ENDBRANCH  18  20
ENDBRANCH   1  18
TORSDOF 5
ENDMDL
MODEL 3
REMARK VINA RESULT:     -13.0      1.435      2.257
REMARK  Name = 24978486
REMARK  5 active torsions:
REMARK  status: ('A' for Active; 'I' for Inactive)
REMARK    1  A    between atoms: O_1  and  C_6
REMARK    2  A    between atoms: O_1  and  C_18
REMARK    3  A    between atoms: C_18  and  C_20
REMARK    4  A    between atoms: N_19  and  C_26
REMARK    5  A    between atoms: C_26  and  C_29
REMARK                            x       y       z     vdW  Elec       q    Type
REMARK                         _______ _______ _______ _____ _____    ______ ____
ROOT
ATOM      1  O   UNL     1      34.518 -23.424 -17.565  0.00  0.00    -0.479 OA
ENDROOT
BRANCH   1   6
ATOM      2  N   UNL     1      33.859 -24.201 -12.828  0.00  0.00    -0.332 NA
ATOM      3  N   UNL     1      36.105 -24.276 -13.698  0.00  0.00    -0.317 NA
ATOM      4  N   UNL     1      36.545 -23.918 -15.959  0.00  0.00    -0.335 N 
ATOM      5  N   UNL     1      35.685 -24.639 -11.421  0.00  0.00    -0.283 N 
ATOM      6  C   UNL     1      33.732 -23.541 -16.446  0.00  0.00    +0.130 C 
ATOM      7  C   UNL     1      34.239 -23.823 -15.165  0.00  0.00    +0.177 C 
ATOM      8  C   UNL     1      32.364 -23.368 -16.629  0.00  0.00    +0.033 C 
ATOM      9  C   UNL     1      33.384 -23.932 -14.057  0.00  0.00    +0.137 C 
ATOM     10  C   UNL     1      35.596 -24.007 -14.914  0.00  0.00    +0.181 C 
ATOM     11  C   UNL     1      31.507 -23.475 -15.540  0.00  0.00    +0.005 C 
ATOM     12  C   UNL     1      32.020 -23.754 -14.269  0.00  0.00    +0.030 C 
ATOM     13  C   UNL     1      35.194 -24.358 -12.715  0.00  0.00    +0.197 C 
ATOM     14  H   UNL     1      37.502 -24.050 -15.769  0.00  0.00    +0.144 HD
ATOM     15  H   UNL     1      36.248 -23.723 -16.878  0.00  0.00    +0.144 HD
ATOM     16  H   UNL     1      35.062 -24.710 -10.663  0.00  0.00    +0.156 HD
ATOM     17  H   UNL     1      36.652 -24.762 -11.277  0.00  0.00    +0.156 HD
ENDBRANCH   1   6
BRANCH   1  18
ATOM     18  C   UNL     1      33.882 -23.004 -18.757  0.00  0.00    +0.205 C 
BRANCH  18  20
ATOM     19  N   UNL     1      35.606 -19.874 -21.184  0.00  0.00    +0.390 N 
ATOM     20  C   UNL     1      34.444 -21.641 -19.154  0.00  0.00    +0.040 C 
ATOM     21  C   UNL     1      33.604 -21.001 -20.264  0.00  0.00    -0.019 C 
ATOM     22  C   UNL     1      35.902 -21.759 -19.610  0.00  0.00    -0.019 C 
ATOM     23  C   UNL     1      34.220 -19.682 -20.736  0.00  0.00    -0.077 C 
ATOM     24  C   UNL     1      36.441 -20.415 -20.103  0.00  0.00    -0.077 C 
ATOM     25  H   UNL     1      35.600 -20.552 -21.947  0.00  0.00    -0.079 HD
BRANCH  19  26
ATOM     26  C   UNL     1      36.163 -18.616 -21.680  0.00  0.00    -0.049 C 
BRANCH  26  29
ATOM     27 CL   UNL     1      35.077 -15.769 -21.689  0.00  0.00    -0.082 Cl
ATOM     28 CL   UNL     1      33.603 -14.887 -24.404  0.00  0.00    -0.081 Cl
ATOM     29  C   UNL     1      35.460 -18.143 -22.924  0.00  0.00    -0.032 C 
ATOM     30  C   UNL     1      34.927 -16.858 -23.030  0.00  0.00    +0.062 C 
ATOM     31  C   UNL     1      35.349 -19.034 -23.992  0.00  0.00    -0.005 C 
ATOM     32  C   UNL     1      34.285 -16.464 -24.204  0.00  0.00    +0.068 C 
ATOM     33  C   UNL     1      34.707 -18.639 -25.166  0.00  0.00    +0.001 C 
ATOM     34  C   UNL     1      34.175 -17.354 -25.272  0.00  0.00    +0.012 C 
ENDBRANCH  26  29
ENDBRANCH  19  26
ENDBRANCH  18  20
ENDBRANCH   1  18
TORSDOF 5
ENDMDL
MODEL 4
REMARK VINA RESULT:     -13.0      2.164      3.125
REMARK  Name = 24978486
REMARK  5 active torsions:
REMARK  status: ('A' for Active; 'I' for Inactive)
REMARK    1  A    between atoms: O_1  and  C_6
REMARK    2  A    between atoms: O_1  and  C_18
REMARK    3  A    between atoms: C_18  and  C_20
REMARK    4  A    between atoms: N_19  and  C_26
REMARK    5  A    between atoms: C_26  and  C_29
REMARK                            x       y       z     vdW  Elec       q    Type
REMARK                         _______ _______ _______ _____ _____    ______ ____
ROOT
ATOM      1  O   UNL     1      35.314 -22.259 -18.420  0.00  0.00    -0.479 OA
ENDROOT
BRANCH   1   6
ATOM      2  N   UNL     1      32.892 -23.966 -14.586  0.00  0.00    -0.332 NA
ATOM      3  N   UNL     1      31.651 -23.446 -16.585  0.00  0.00    -0.317 NA
ATOM      4  N   UNL     1      32.708 -22.619 -18.492  0.00  0.00    -0.335 N 
ATOM      5  N   UNL     1      30.569 -24.276 -14.679  0.00  0.00    -0.283 N 
ATOM      6  C   UNL     1      35.243 -22.725 -17.131  0.00  0.00    +0.130 C 
ATOM      7  C   UNL     1      34.044 -23.119 -16.511  0.00  0.00    +0.177 C 
ATOM      8  C   UNL     1      36.443 -22.795 -16.430  0.00  0.00    +0.033 C 
ATOM      9  C   UNL     1      34.034 -23.586 -15.187  0.00  0.00    +0.137 C 
ATOM     10  C   UNL     1      32.811 -23.074 -17.156  0.00  0.00    +0.181 C 
ATOM     11  C   UNL     1      36.446 -23.255 -15.118  0.00  0.00    +0.005 C 
ATOM     12  C   UNL     1      35.248 -23.646 -14.510  0.00  0.00    +0.030 C 
ATOM     13  C   UNL     1      31.763 -23.875 -15.317  0.00  0.00    +0.197 C 
ATOM     14  H   UNL     1      31.830 -22.593 -18.936  0.00  0.00    +0.144 HD
ATOM     15  H   UNL     1      33.515 -22.331 -18.976  0.00  0.00    +0.144 HD
ATOM     16  H   UNL     1      30.592 -24.600 -13.750  0.00  0.00    +0.156 HD
ATOM     17  H   UNL     1      29.713 -24.233 -15.164  0.00  0.00    +0.156 HD
ENDBRANCH   1   6
BRANCH   1  18
ATOM     18  C   UNL     1      36.517 -21.621 -18.807  0.00  0.00    +0.205 C 
BRANCH  18  20
ATOM     19  N   UNL     1      35.505 -18.657 -21.782  0.00  0.00    +0.390 N 
ATOM     20  C   UNL     1      36.306 -20.973 -20.173  0.00  0.00    +0.040 C 
ATOM     21  C   UNL     1      37.201 -19.742 -20.344  0.00  0.00    -0.019 C 
ATOM     22  C   UNL     1      34.839 -20.578 -20.374  0.00  0.00    -0.019 C 
ATOM     23  C   UNL     1      36.921 -19.031 -21.670  0.00  0.00    -0.077 C 
ATOM     24  C   UNL     1      34.638 -19.839 -21.698  0.00  0.00    -0.077 C 
ATOM     25  H   UNL     1      35.278 -18.043 -20.999  0.00  0.00    -0.079 HD
BRANCH  19  26
ATOM     26  C   UNL     1      35.265 -17.933 -23.030  0.00  0.00    -0.049 C 
BRANCH  26  29
ATOM     27 CL   UNL     1      34.681 -16.191 -25.460  0.00  0.00    -0.082 Cl
ATOM     28 CL   UNL     1      33.874 -13.154 -24.791  0.00  0.00    -0.081 Cl
ATOM     29  C   UNL     1      34.881 -16.498 -22.781  0.00  0.00    -0.032 C 
ATOM     30  C   UNL     1      34.594 -15.619 -23.825  0.00  0.00    +0.062 C 
ATOM     31  C   UNL     1      34.817 -16.057 -21.460  0.00  0.00    -0.005 C 
ATOM     32  C   UNL     1      34.243 -14.297 -23.546  0.00  0.00    +0.068 C 
ATOM     33  C   UNL     1      34.466 -14.737 -21.181  0.00  0.00    +0.001 C 
ATOM     34  C   UNL     1      34.179 -13.857 -22.225  0.00  0.00    +0.012 C 
ENDBRANCH  26  29
ENDBRANCH  19  26
ENDBRANCH  18  20
ENDBRANCH   1  18
TORSDOF 5
ENDMDL
MODEL 5
REMARK VINA RESULT:     -12.8      2.488      3.641
REMARK  Name = 24978486
REMARK  5 active torsions:
REMARK  status: ('A' for Active; 'I' for Inactive)
REMARK    1  A    between atoms: O_1  and  C_6
REMARK    2  A    between atoms: O_1  and  C_18
REMARK    3  A    between atoms: C_18  and  C_20
REMARK    4  A    between atoms: N_19  and  C_26
REMARK    5  A    between atoms: C_26  and  C_29
REMARK                            x       y       z     vdW  Elec       q    Type
REMARK                         _______ _______ _______ _____ _____    ______ ____
ROOT
ATOM      1  O   UNL     1      33.003 -22.559 -18.128  0.00  0.00    -0.479 OA
ENDROOT
BRANCH   1   6
ATOM      2  N   UNL     1      32.529 -24.526 -13.725  0.00  0.00    -0.332 NA
ATOM      3  N   UNL     1      30.530 -23.971 -14.952  0.00  0.00    -0.317 NA
ATOM      4  N   UNL     1      30.633 -23.022 -17.079  0.00  0.00    -0.335 N 
ATOM      5  N   UNL     1      30.404 -24.926 -12.816  0.00  0.00    -0.283 N 
ATOM      6  C   UNL     1      33.510 -23.083 -16.965  0.00  0.00    +0.130 C 
ATOM      7  C   UNL     1      32.709 -23.551 -15.909  0.00  0.00    +0.177 C 
ATOM      8  C   UNL     1      34.896 -23.134 -16.862  0.00  0.00    +0.033 C 
ATOM      9  C   UNL     1      33.286 -24.075 -14.741  0.00  0.00    +0.137 C 
ATOM     10  C   UNL     1      31.318 -23.529 -15.950  0.00  0.00    +0.181 C 
ATOM     11  C   UNL     1      35.480 -23.650 -15.710  0.00  0.00    +0.005 C 
ATOM     12  C   UNL     1      34.676 -24.114 -14.664  0.00  0.00    +0.030 C 
ATOM     13  C   UNL     1      31.192 -24.450 -13.886  0.00  0.00    +0.197 C 
ATOM     14  H   UNL     1      29.650 -23.011 -17.095  0.00  0.00    +0.144 HD
ATOM     15  H   UNL     1      31.142 -22.680 -17.849  0.00  0.00    +0.144 HD
ATOM     16  H   UNL     1      30.837 -25.288 -12.009  0.00  0.00    +0.156 HD
ATOM     17  H   UNL     1      29.421 -24.897 -12.876  0.00  0.00    +0.156 HD
ENDBRANCH   1   6
BRANCH   1  18
ATOM     18  C   UNL     1      33.805 -22.675 -19.289  0.00  0.00    +0.205 C 
BRANCH  18  20
ATOM     19  N   UNL     1      35.577 -19.434 -21.528  0.00  0.00    +0.390 N 
ATOM     20  C   UNL     1      34.411 -21.309 -19.600  0.00  0.00    +0.040 C 
ATOM     21  C   UNL     1      33.562 -20.550 -20.624  0.00  0.00    -0.019 C 
ATOM     22  C   UNL     1      35.846 -21.449 -20.118  0.00  0.00    -0.019 C 
ATOM     23  C   UNL     1      34.217 -19.223 -21.015  0.00  0.00    -0.077 C 
ATOM     24  C   UNL     1      36.425 -20.092 -20.525  0.00  0.00    -0.077 C 
ATOM     25  H   UNL     1      35.516 -20.048 -22.340  0.00  0.00    -0.079 HD
BRANCH  19  26
ATOM     26  C   UNL     1      36.170 -18.164 -21.944  0.00  0.00    -0.049 C 
BRANCH  26  29
ATOM     27 CL   UNL     1      34.900 -15.433 -21.481  0.00  0.00    -0.082 Cl
ATOM     28 CL   UNL     1      33.326 -14.221 -24.006  0.00  0.00    -0.081 Cl
ATOM     29  C   UNL     1      35.417 -17.543 -23.091  0.00  0.00    -0.032 C 
ATOM     30  C   UNL     1      34.800 -16.296 -22.982  0.00  0.00    +0.062 C 
ATOM     31  C   UNL     1      35.348 -18.252 -24.290  0.00  0.00    -0.005 C 
ATOM     32  C   UNL     1      34.113 -15.760 -24.072  0.00  0.00    +0.068 C 
ATOM     33  C   UNL     1      34.662 -17.716 -25.379  0.00  0.00    +0.001 C 
ATOM     34  C   UNL     1      34.045 -16.470 -25.270  0.00  0.00    +0.012 C 
ENDBRANCH  26  29
ENDBRANCH  19  26
ENDBRANCH  18  20
ENDBRANCH   1  18
TORSDOF 5
ENDMDL
MODEL 6
REMARK VINA RESULT:     -12.8      7.062     10.886
REMARK  Name = 24978486
REMARK  5 active torsions:
REMARK  status: ('A' for Active; 'I' for Inactive)
REMARK    1  A    between atoms: O_1  and  C_6
REMARK    2  A    between atoms: O_1  and  C_18
REMARK    3  A    between atoms: C_18  and  C_20
REMARK    4  A    between atoms: N_19  and  C_26
REMARK    5  A    between atoms: C_26  and  C_29
REMARK                            x       y       z     vdW  Elec       q    Type
REMARK                         _______ _______ _______ _____ _____    ______ ____
ROOT
ATOM      1  O   UNL     1      33.685 -13.640 -22.640  0.00  0.00    -0.479 OA
ENDROOT
BRANCH   1   6
ATOM      2  N   UNL     1      35.308 -18.170 -23.202  0.00  0.00    -0.332 NA
ATOM      3  N   UNL     1      35.338 -17.210 -20.992  0.00  0.00    -0.317 NA
ATOM      4  N   UNL     1      34.582 -15.040 -20.599  0.00  0.00    -0.335 N 
ATOM      5  N   UNL     1      36.102 -19.394 -21.365  0.00  0.00    -0.283 N 
ATOM      6  C   UNL     1      33.969 -14.748 -23.398  0.00  0.00    +0.130 C 
ATOM      7  C   UNL     1      34.515 -15.931 -22.870  0.00  0.00    +0.177 C 
ATOM      8  C   UNL     1      33.691 -14.657 -24.757  0.00  0.00    +0.033 C 
ATOM      9  C   UNL     1      34.787 -17.033 -23.697  0.00  0.00    +0.137 C 
ATOM     10  C   UNL     1      34.816 -16.088 -21.520  0.00  0.00    +0.181 C 
ATOM     11  C   UNL     1      33.956 -15.741 -25.587  0.00  0.00    +0.005 C 
ATOM     12  C   UNL     1      34.499 -16.915 -25.054  0.00  0.00    +0.030 C 
ATOM     13  C   UNL     1      35.556 -18.197 -21.877  0.00  0.00    +0.197 C 
ATOM     14  H   UNL     1      34.799 -15.163 -19.647  0.00  0.00    +0.144 HD
ATOM     15  H   UNL     1      34.201 -14.187 -20.911  0.00  0.00    +0.144 HD
ATOM     16  H   UNL     1      36.282 -20.150 -21.968  0.00  0.00    +0.156 HD
ATOM     17  H   UNL     1      36.303 -19.473 -20.404  0.00  0.00    +0.156 HD
ENDBRANCH   1   6
BRANCH   1  18
ATOM     18  C   UNL     1      32.336 -13.454 -22.253  0.00  0.00    +0.205 C 
BRANCH  18  20
ATOM     19  N   UNL     1      32.728  -9.162 -21.979  0.00  0.00    +0.390 N 
ATOM     20  C   UNL     1      31.994 -11.971 -22.376  0.00  0.00    +0.040 C 
ATOM     21  C   UNL     1      32.997 -11.249 -23.281  0.00  0.00    -0.019 C 
ATOM     22  C   UNL     1      31.959 -11.299 -21.000  0.00  0.00    -0.019 C 
ATOM     23  C   UNL     1      32.719  -9.744 -23.328  0.00  0.00    -0.077 C 
ATOM     24  C   UNL     1      31.716  -9.793 -21.123  0.00  0.00    -0.077 C 
ATOM     25  H   UNL     1      33.645  -9.337 -21.566  0.00  0.00    -0.079 HD
BRANCH  19  26
ATOM     26  C   UNL     1      32.513  -7.716 -22.045  0.00  0.00    -0.049 C 
BRANCH  26  29
ATOM     27 CL   UNL     1      31.024  -5.783 -23.868  0.00  0.00    -0.082 Cl
ATOM     28 CL   UNL     1      32.792  -4.504 -26.227  0.00  0.00    -0.081 Cl
ATOM     29  C   UNL     1      33.288  -7.084 -23.171  0.00  0.00    -0.032 C 
ATOM     30  C   UNL     1      32.699  -6.186 -24.061  0.00  0.00    +0.062 C 
ATOM     31  C   UNL     1      34.634  -7.421 -23.309  0.00  0.00    -0.005 C 
ATOM     32  C   UNL     1      33.458  -5.625 -25.089  0.00  0.00    +0.068 C 
ATOM     33  C   UNL     1      35.393  -6.860 -24.336  0.00  0.00    +0.001 C 
ATOM     34  C   UNL     1      34.804  -5.962 -25.226  0.00  0.00    +0.012 C 
ENDBRANCH  26  29
ENDBRANCH  19  26
ENDBRANCH  18  20
ENDBRANCH   1  18
TORSDOF 5
ENDMDL
MODEL 7
REMARK VINA RESULT:     -12.2      8.124     11.634
REMARK  Name = 24978486
REMARK  5 active torsions:
REMARK  status: ('A' for Active; 'I' for Inactive)
REMARK    1  A    between atoms: O_1  and  C_6
REMARK    2  A    between atoms: O_1  and  C_18
REMARK    3  A    between atoms: C_18  and  C_20
REMARK    4  A    between atoms: N_19  and  C_26
REMARK    5  A    between atoms: C_26  and  C_29
REMARK                            x       y       z     vdW  Elec       q    Type
REMARK                         _______ _______ _______ _____ _____    ______ ____
ROOT
ATOM      1  O   UNL     1      32.878 -13.055 -22.316  0.00  0.00    -0.479 OA
ENDROOT
BRANCH   1   6
ATOM      2  N   UNL     1      34.991 -17.253 -23.496  0.00  0.00    -0.332 NA
ATOM      3  N   UNL     1      33.988 -15.943 -25.252  0.00  0.00    -0.317 NA
ATOM      4  N   UNL     1      32.944 -13.907 -24.806  0.00  0.00    -0.335 N 
ATOM      5  N   UNL     1      35.033 -17.987 -25.724  0.00  0.00    -0.283 N 
ATOM      6  C   UNL     1      33.561 -14.206 -22.009  0.00  0.00    +0.130 C 
ATOM      7  C   UNL     1      33.933 -15.167 -22.964  0.00  0.00    +0.177 C 
ATOM      8  C   UNL     1      33.883 -14.396 -20.669  0.00  0.00    +0.033 C 
ATOM      9  C   UNL     1      34.630 -16.327 -22.589  0.00  0.00    +0.137 C 
ATOM     10  C   UNL     1      33.642 -15.037 -24.320  0.00  0.00    +0.181 C 
ATOM     11  C   UNL     1      34.572 -15.541 -20.285  0.00  0.00    +0.005 C 
ATOM     12  C   UNL     1      34.939 -16.493 -21.242  0.00  0.00    +0.030 C 
ATOM     13  C   UNL     1      34.651 -17.011 -24.778  0.00  0.00    +0.197 C 
ATOM     14  H   UNL     1      32.745 -13.827 -25.766  0.00  0.00    +0.144 HD
ATOM     15  H   UNL     1      32.658 -13.201 -24.182  0.00  0.00    +0.144 HD
ATOM     16  H   UNL     1      35.521 -18.790 -25.431  0.00  0.00    +0.156 HD
ATOM     17  H   UNL     1      34.813 -17.864 -26.676  0.00  0.00    +0.156 HD
ENDBRANCH   1   6
BRANCH   1  18
ATOM     18  C   UNL     1      31.943 -12.588 -21.361  0.00  0.00    +0.205 C 
BRANCH  18  20
ATOM     19  N   UNL     1      32.625  -8.375 -22.025  0.00  0.00    +0.390 N 
ATOM     20  C   UNL     1      31.657 -11.115 -21.640  0.00  0.00    +0.040 C 
ATOM     21  C   UNL     1      32.336 -10.658 -22.935  0.00  0.00    -0.019 C 
ATOM     22  C   UNL     1      32.117 -10.234 -20.474  0.00  0.00    -0.019 C 
ATOM     23  C   UNL     1      32.137  -9.158 -23.168  0.00  0.00    -0.077 C 
ATOM     24  C   UNL     1      31.925  -8.750 -20.789  0.00  0.00    -0.077 C 
ATOM     25  H   UNL     1      33.616  -8.582 -21.901  0.00  0.00    -0.079 HD
BRANCH  19  26
ATOM     26  C   UNL     1      32.475  -6.944 -22.284  0.00  0.00    -0.049 C 
BRANCH  26  29
ATOM     27 CL   UNL     1      31.061  -5.163 -24.312  0.00  0.00    -0.082 Cl
ATOM     28 CL   UNL     1      32.846  -4.303 -26.841  0.00  0.00    -0.081 Cl
ATOM     29  C   UNL     1      33.259  -6.508 -23.493  0.00  0.00    -0.032 C 
ATOM     30  C   UNL     1      32.704  -5.692 -24.480  0.00  0.00    +0.062 C 
ATOM     31  C   UNL     1      34.579  -6.944 -23.610  0.00  0.00    -0.005 C 
ATOM     32  C   UNL     1      33.470  -5.312 -25.583  0.00  0.00    +0.068 C 
ATOM     33  C   UNL     1      35.344  -6.564 -24.712  0.00  0.00    +0.001 C 
ATOM     34  C   UNL     1      34.789  -5.748 -25.699  0.00  0.00    +0.012 C 
ENDBRANCH  26  29
ENDBRANCH  19  26
ENDBRANCH  18  20
ENDBRANCH   1  18
TORSDOF 5
ENDMDL
MODEL 8
REMARK VINA RESULT:     -12.1      7.582     11.355
REMARK  Name = 24978486
REMARK  5 active torsions:
REMARK  status: ('A' for Active; 'I' for Inactive)
REMARK    1  A    between atoms: O_1  and  C_6
REMARK    2  A    between atoms: O_1  and  C_18
REMARK    3  A    between atoms: C_18  and  C_20
REMARK    4  A    between atoms: N_19  and  C_26
REMARK    5  A    between atoms: C_26  and  C_29
REMARK                            x       y       z     vdW  Elec       q    Type
REMARK                         _______ _______ _______ _____ _____    ______ ____
ROOT
ATOM      1  O   UNL     1      33.397 -13.135 -22.426  0.00  0.00    -0.479 OA
ENDROOT
BRANCH   1   6
ATOM      2  N   UNL     1      35.001 -17.431 -23.992  0.00  0.00    -0.332 NA
ATOM      3  N   UNL     1      35.339 -16.859 -21.676  0.00  0.00    -0.317 NA
ATOM      4  N   UNL     1      34.610 -14.821 -20.808  0.00  0.00    -0.335 N 
ATOM      5  N   UNL     1      36.079 -18.913 -22.527  0.00  0.00    -0.283 N 
ATOM      6  C   UNL     1      33.587 -14.086 -23.397  0.00  0.00    +0.130 C 
ATOM      7  C   UNL     1      34.226 -15.317 -23.167  0.00  0.00    +0.177 C 
ATOM      8  C   UNL     1      33.110 -13.778 -24.667  0.00  0.00    +0.033 C 
ATOM      9  C   UNL     1      34.393 -16.250 -24.202  0.00  0.00    +0.137 C 
ATOM     10  C   UNL     1      34.724 -15.687 -21.921  0.00  0.00    +0.181 C 
ATOM     11  C   UNL     1      33.270 -14.693 -25.701  0.00  0.00    +0.005 C 
ATOM     12  C   UNL     1      33.906 -15.916 -25.463  0.00  0.00    +0.030 C 
ATOM     13  C   UNL     1      35.442 -17.671 -22.740  0.00  0.00    +0.197 C 
ATOM     14  H   UNL     1      34.967 -15.095 -19.933  0.00  0.00    +0.144 HD
ATOM     15  H   UNL     1      34.172 -13.945 -20.910  0.00  0.00    +0.144 HD
ATOM     16  H   UNL     1      36.182 -19.547 -23.272  0.00  0.00    +0.156 HD
ATOM     17  H   UNL     1      36.420 -19.145 -21.633  0.00  0.00    +0.156 HD
ENDBRANCH   1   6
BRANCH   1  18
ATOM     18  C   UNL     1      32.091 -13.012 -21.893  0.00  0.00    +0.205 C 
BRANCH  18  20
ATOM     19  N   UNL     1      32.659  -8.752 -21.460  0.00  0.00    +0.390 N 
ATOM     20  C   UNL     1      31.763 -11.528 -21.750  0.00  0.00    +0.040 C 
ATOM     21  C   UNL     1      32.333 -10.722 -22.921  0.00  0.00    -0.019 C 
ATOM     22  C   UNL     1      32.300 -10.971 -20.428  0.00  0.00    -0.019 C 
ATOM     23  C   UNL     1      32.095  -9.222 -22.733  0.00  0.00    -0.077 C 
ATOM     24  C   UNL     1      32.063  -9.463 -20.322  0.00  0.00    -0.077 C 
ATOM     25  H   UNL     1      33.660  -8.950 -21.467  0.00  0.00    -0.079 HD
BRANCH  19  26
ATOM     26  C   UNL     1      32.469  -7.309 -21.319  0.00  0.00    -0.049 C 
BRANCH  26  29
ATOM     27 CL   UNL     1      35.043  -7.450 -22.942  0.00  0.00    -0.082 Cl
ATOM     28 CL   UNL     1      34.957  -5.912 -25.761  0.00  0.00    -0.081 Cl
ATOM     29  C   UNL     1      32.491  -6.606 -22.650  0.00  0.00    -0.032 C 
ATOM     30  C   UNL     1      33.620  -6.611 -23.470  0.00  0.00    +0.062 C 
ATOM     31  C   UNL     1      31.337  -5.937 -23.057  0.00  0.00    -0.005 C 
ATOM     32  C   UNL     1      33.594  -5.946 -24.696  0.00  0.00    +0.068 C 
ATOM     33  C   UNL     1      31.311  -5.274 -24.283  0.00  0.00    +0.001 C 
ATOM     34  C   UNL     1      32.440  -5.278 -25.103  0.00  0.00    +0.012 C 
ENDBRANCH  26  29
ENDBRANCH  19  26
ENDBRANCH  18  20
ENDBRANCH   1  18
TORSDOF 5
ENDMDL
MODEL 9
REMARK VINA RESULT:     -12.1      1.255      1.833
REMARK  Name = 24978486
REMARK  5 active torsions:
REMARK  status: ('A' for Active; 'I' for Inactive)
REMARK    1  A    between atoms: O_1  and  C_6
REMARK    2  A    between atoms: O_1  and  C_18
REMARK    3  A    between atoms: C_18  and  C_20
REMARK    4  A    between atoms: N_19  and  C_26
REMARK    5  A    between atoms: C_26  and  C_29
REMARK                            x       y       z     vdW  Elec       q    Type
REMARK                         _______ _______ _______ _____ _____    ______ ____
ROOT
ATOM      1  O   UNL     1      35.398 -22.435 -18.281  0.00  0.00    -0.479 OA
ENDROOT
BRANCH   1   6
ATOM      2  N   UNL     1      35.346 -23.651 -13.591  0.00  0.00    -0.332 NA
ATOM      3  N   UNL     1      37.452 -23.042 -14.591  0.00  0.00    -0.317 NA
ATOM      4  N   UNL     1      37.600 -22.438 -16.838  0.00  0.00    -0.335 N 
ATOM      5  N   UNL     1      37.324 -23.645 -12.331  0.00  0.00    -0.283 N 
ATOM      6  C   UNL     1      34.763 -22.835 -17.132  0.00  0.00    +0.130 C 
ATOM      7  C   UNL     1      35.426 -23.040 -15.909  0.00  0.00    +0.177 C 
ATOM      8  C   UNL     1      33.391 -23.040 -17.221  0.00  0.00    +0.033 C 
ATOM      9  C   UNL     1      34.722 -23.452 -14.765  0.00  0.00    +0.137 C 
ATOM     10  C   UNL     1      36.796 -22.852 -15.751  0.00  0.00    +0.181 C 
ATOM     11  C   UNL     1      32.682 -23.448 -16.097  0.00  0.00    +0.005 C 
ATOM     12  C   UNL     1      33.349 -23.650 -14.884  0.00  0.00    +0.030 C 
ATOM     13  C   UNL     1      36.676 -23.435 -13.567  0.00  0.00    +0.197 C 
ATOM     14  H   UNL     1      38.568 -22.309 -16.714  0.00  0.00    +0.144 HD
ATOM     15  H   UNL     1      37.191 -22.279 -17.720  0.00  0.00    +0.144 HD
ATOM     16  H   UNL     1      36.805 -23.934 -11.546  0.00  0.00    +0.156 HD
ATOM     17  H   UNL     1      38.296 -23.502 -12.252  0.00  0.00    +0.156 HD
ENDBRANCH   1   6
BRANCH   1  18
ATOM     18  C   UNL     1      34.667 -22.538 -19.489  0.00  0.00    +0.205 C 
BRANCH  18  20
ATOM     19  N   UNL     1      35.732 -18.576 -20.840  0.00  0.00    +0.390 N 
ATOM     20  C   UNL     1      35.102 -21.407 -20.418  0.00  0.00    +0.040 C 
ATOM     21  C   UNL     1      36.415 -20.779 -19.944  0.00  0.00    -0.019 C 
ATOM     22  C   UNL     1      34.017 -20.329 -20.517  0.00  0.00    -0.019 C 
ATOM     23  C   UNL     1      36.804 -19.580 -20.813  0.00  0.00    -0.077 C 
ATOM     24  C   UNL     1      34.485 -19.147 -21.367  0.00  0.00    -0.077 C 
ATOM     25  H   UNL     1      35.559 -18.273 -19.881  0.00  0.00    -0.079 HD
BRANCH  19  26
ATOM     26  C   UNL     1      36.139 -17.415 -21.632  0.00  0.00    -0.049 C 
BRANCH  26  29
ATOM     27 CL   UNL     1      34.647 -14.841 -22.288  0.00  0.00    -0.082 Cl
ATOM     28 CL   UNL     1      33.135 -14.832 -25.123  0.00  0.00    -0.081 Cl
ATOM     29  C   UNL     1      35.409 -17.350 -22.947  0.00  0.00    -0.032 C 
ATOM     30  C   UNL     1      34.696 -16.217 -23.342  0.00  0.00    +0.062 C 
ATOM     31  C   UNL     1      35.461 -18.466 -23.781  0.00  0.00    -0.005 C 
ATOM     32  C   UNL     1      34.036 -16.202 -24.571  0.00  0.00    +0.068 C 
ATOM     33  C   UNL     1      34.801 -18.451 -25.010  0.00  0.00    +0.001 C 
ATOM     34  C   UNL     1      34.089 -17.319 -25.404  0.00  0.00    +0.012 C 
ENDBRANCH  26  29
ENDBRANCH  19  26
ENDBRANCH  18  20
ENDBRANCH   1  18
TORSDOF 5
ENDMDL
