MODEL 1
REMARK VINA RESULT:     -13.2      0.000      0.000
REMARK  Name = 446805
REMARK  6 active torsions:
REMARK  status: ('A' for Active; 'I' for Inactive)
REMARK    1  A    between atoms: C_4  and  C_22
REMARK    2  A    between atoms: C_7  and  N_11
REMARK    3  A    between atoms: N_11  and  S_13
REMARK    4  A    between atoms: S_13  and  C_16
REMARK    5  A    between atoms: C_22  and  C_23
REMARK    6  A    between atoms: C_28  and  C_31
REMARK                            x       y       z     vdW  Elec       q    Type
REMARK                         _______ _______ _______ _____ _____    ______ ____
ROOT
ATOM      1  N   UNL     1      34.078 -22.976 -17.203  0.00  0.00    -0.262 N 
ATOM      2  N   UNL     1      32.282 -22.348 -18.352  0.00  0.00    -0.394 NA
ATOM      3  C   UNL     1      34.559 -22.279 -18.281  0.00  0.00    +0.079 C 
ATOM      4  C   UNL     1      32.714 -22.989 -17.290  0.00  0.00    +0.168 C 
ATOM      5  C   UNL     1      33.419 -21.897 -18.982  0.00  0.00    +0.129 C 
ATOM      6  C   UNL     1      33.560 -21.151 -20.165  0.00  0.00    +0.103 C 
ATOM      7  C   UNL     1      34.851 -20.818 -20.595  0.00  0.00    +0.050 C 
ATOM      8  C   UNL     1      35.854 -21.958 -18.689  0.00  0.00    +0.018 C 
ATOM      9  C   UNL     1      34.874 -23.587 -16.163  0.00  0.00    +0.119 C 
ATOM     10  C   UNL     1      35.976 -21.215 -19.868  0.00  0.00    +0.013 C 
ENDROOT
BRANCH   7  11
ATOM     11  N   UNL     1      35.018 -20.061 -21.795  0.00  0.00    -0.219 N 
ATOM     12  H   UNL     1      34.654 -20.371 -22.656  0.00  0.00    +0.173 HD
BRANCH  11  13
ATOM     13  S   UNL     1      35.893 -18.567 -21.660  0.00  0.00    +0.073 S 
ATOM     14  O   UNL     1      37.311 -18.825 -21.824  0.00  0.00    -0.150 OA
ATOM     15  O   UNL     1      35.408 -17.832 -20.507  0.00  0.00    -0.150 OA
BRANCH  13  16
ATOM     16  C   UNL     1      35.338 -17.694 -23.095  0.00  0.00    +0.125 C 
ATOM     17  C   UNL     1      35.254 -16.313 -23.053  0.00  0.00    +0.020 C 
ATOM     18  C   UNL     1      34.999 -18.409 -24.230  0.00  0.00    +0.020 C 
ATOM     19  C   UNL     1      34.816 -15.625 -24.185  0.00  0.00    +0.001 C 
ATOM     20  C   UNL     1      34.561 -17.721 -25.362  0.00  0.00    +0.001 C 
ATOM     21  C   UNL     1      34.470 -16.329 -25.340  0.00  0.00    +0.000 C 
ENDBRANCH  13  16
ENDBRANCH  11  13
ENDBRANCH   7  11
BRANCH   4  22
ATOM     22  C   UNL     1      31.868 -23.662 -16.281  0.00  0.00    +0.101 C 
BRANCH  22  23
ATOM     23  C   UNL     1      30.412 -23.217 -16.302  0.00  0.00    -0.014 C 
ATOM     24  C   UNL     1      29.577 -23.711 -17.283  0.00  0.00    -0.004 C 
ATOM     25  C   UNL     1      29.972 -22.333 -15.338  0.00  0.00    -0.004 C 
ATOM     26  C   UNL     1      28.243 -23.303 -17.301  0.00  0.00    +0.002 C 
ATOM     27  C   UNL     1      28.639 -21.924 -15.356  0.00  0.00    +0.002 C 
ATOM     28  C   UNL     1      27.775 -22.410 -16.338  0.00  0.00    +0.031 C 
BRANCH  28  31
ATOM     29  N   UNL     1      25.852 -21.297 -17.447  0.00  0.00    -0.343 N 
ATOM     30  N   UNL     1      25.601 -22.244 -15.325  0.00  0.00    -0.285 NA
ATOM     31  C   UNL     1      26.384 -21.983 -16.358  0.00  0.00    +0.117 C 
ATOM     32  H   UNL     1      24.907 -21.018 -17.439  0.00  0.00    +0.144 HD
ATOM     33  H   UNL     1      26.419 -21.091 -18.225  0.00  0.00    +0.144 HD
ATOM     34  H   UNL     1      24.660 -21.956 -15.336  0.00  0.00    +0.188 HD
ENDBRANCH  28  31
ENDBRANCH  22  23
ENDBRANCH   4  22
TORSDOF 6
ENDMDL
MODEL 2
REMARK VINA RESULT:     -13.0      4.974     10.223
REMARK  Name = 446805
REMARK  6 active torsions:
REMARK  status: ('A' for Active; 'I' for Inactive)
REMARK    1  A    between atoms: C_4  and  C_22
REMARK    2  A    between atoms: C_7  and  N_11
REMARK    3  A    between atoms: N_11  and  S_13
REMARK    4  A    between atoms: S_13  and  C_16
REMARK    5  A    between atoms: C_22  and  C_23
REMARK    6  A    between atoms: C_28  and  C_31
REMARK                            x       y       z     vdW  Elec       q    Type
REMARK                         _______ _______ _______ _____ _____    ______ ____
ROOT
ATOM      1  N   UNL     1      33.580 -14.446 -25.463  0.00  0.00    -0.262 N 
ATOM      2  N   UNL     1      34.814 -14.061 -23.655  0.00  0.00    -0.394 NA
ATOM      3  C   UNL     1      34.023 -15.677 -25.054  0.00  0.00    +0.079 C 
ATOM      4  C   UNL     1      34.078 -13.514 -24.597  0.00  0.00    +0.168 C 
ATOM      5  C   UNL     1      34.790 -15.411 -23.923  0.00  0.00    +0.129 C 
ATOM      6  C   UNL     1      35.403 -16.477 -23.244  0.00  0.00    +0.103 C 
ATOM      7  C   UNL     1      35.217 -17.776 -23.734  0.00  0.00    +0.050 C 
ATOM      8  C   UNL     1      33.823 -16.963 -25.559  0.00  0.00    +0.018 C 
ATOM      9  C   UNL     1      32.738 -14.185 -26.609  0.00  0.00    +0.119 C 
ATOM     10  C   UNL     1      34.440 -18.013 -24.871  0.00  0.00    +0.013 C 
ENDROOT
BRANCH   7  11
ATOM     11  N   UNL     1      35.832 -18.875 -23.059  0.00  0.00    -0.219 N 
ATOM     12  H   UNL     1      36.037 -19.718 -23.526  0.00  0.00    +0.173 HD
BRANCH  11  13
ATOM     13  S   UNL     1      36.200 -18.652 -21.377  0.00  0.00    +0.073 S 
ATOM     14  O   UNL     1      35.559 -17.441 -20.902  0.00  0.00    -0.150 OA
ATOM     15  O   UNL     1      37.621 -18.863 -21.168  0.00  0.00    -0.150 OA
BRANCH  13  16
ATOM     16  C   UNL     1      35.364 -20.026 -20.640  0.00  0.00    +0.125 C 
ATOM     17  C   UNL     1      36.107 -20.997 -19.992  0.00  0.00    +0.020 C 
ATOM     18  C   UNL     1      33.986 -20.101 -20.725  0.00  0.00    +0.020 C 
ATOM     19  C   UNL     1      35.447 -22.080 -19.410  0.00  0.00    +0.001 C 
ATOM     20  C   UNL     1      33.326 -21.183 -20.143  0.00  0.00    +0.001 C 
ATOM     21  C   UNL     1      34.057 -22.173 -19.485  0.00  0.00    +0.000 C 
ENDBRANCH  13  16
ENDBRANCH  11  13
ENDBRANCH   7  11
BRANCH   4  22
ATOM     22  C   UNL     1      33.795 -12.072 -24.746  0.00  0.00    +0.101 C 
BRANCH  22  23
ATOM     23  C   UNL     1      33.210 -11.426 -23.496  0.00  0.00    -0.014 C 
ATOM     24  C   UNL     1      32.550 -12.221 -22.582  0.00  0.00    -0.004 C 
ATOM     25  C   UNL     1      33.358 -10.066 -23.318  0.00  0.00    -0.004 C 
ATOM     26  C   UNL     1      32.015 -11.629 -21.437  0.00  0.00    +0.002 C 
ATOM     27  C   UNL     1      32.822  -9.474 -22.175  0.00  0.00    +0.002 C 
ATOM     28  C   UNL     1      32.150 -10.256 -21.234  0.00  0.00    +0.031 C 
BRANCH  28  31
ATOM     29  N   UNL     1      32.006  -8.378 -19.615  0.00  0.00    -0.343 N 
ATOM     30  N   UNL     1      30.674 -10.278 -19.338  0.00  0.00    -0.285 NA
ATOM     31  C   UNL     1      31.591  -9.639 -20.042  0.00  0.00    +0.117 C 
ATOM     32  H   UNL     1      31.613  -7.980 -18.805  0.00  0.00    +0.144 HD
ATOM     33  H   UNL     1      32.690  -7.886 -20.124  0.00  0.00    +0.144 HD
ATOM     34  H   UNL     1      30.294  -9.863 -18.531  0.00  0.00    +0.188 HD
ENDBRANCH  28  31
ENDBRANCH  22  23
ENDBRANCH   4  22
TORSDOF 6
ENDMDL
MODEL 3
REMARK VINA RESULT:     -12.8      3.463      9.413
REMARK  Name = 446805
REMARK  6 active torsions:
REMARK  status: ('A' for Active; 'I' for Inactive)
REMARK    1  A    between atoms: C_4  and  C_22
REMARK    2  A    between atoms: C_7  and  N_11
REMARK    3  A    between atoms: N_11  and  S_13
REMARK    4  A    between atoms: S_13  and  C_16
REMARK    5  A    between atoms: C_22  and  C_23
REMARK    6  A    between atoms: C_28  and  C_31
REMARK                            x       y       z     vdW  Elec       q    Type
REMARK                         _______ _______ _______ _____ _____    ______ ____
ROOT
ATOM      1  N   UNL     1      36.234 -18.963 -21.955  0.00  0.00    -0.262 N 
ATOM      2  N   UNL     1      34.046 -18.718 -22.264  0.00  0.00    -0.394 NA
ATOM      3  C   UNL     1      35.641 -19.858 -21.102  0.00  0.00    +0.079 C 
ATOM      4  C   UNL     1      35.241 -18.307 -22.627  0.00  0.00    +0.168 C 
ATOM      5  C   UNL     1      34.276 -19.687 -21.314  0.00  0.00    +0.129 C 
ATOM      6  C   UNL     1      33.365 -20.468 -20.583  0.00  0.00    +0.103 C 
ATOM      7  C   UNL     1      33.869 -21.396 -19.663  0.00  0.00    +0.050 C 
ATOM      8  C   UNL     1      36.165 -20.777 -20.192  0.00  0.00    +0.018 C 
ATOM      9  C   UNL     1      37.655 -18.754 -22.112  0.00  0.00    +0.119 C 
ATOM     10  C   UNL     1      35.245 -21.546 -19.473  0.00  0.00    +0.013 C 
ENDROOT
BRANCH   7  11
ATOM     11  N   UNL     1      32.962 -22.200 -18.908  0.00  0.00    -0.219 N 
ATOM     12  H   UNL     1      31.986 -22.112 -19.009  0.00  0.00    +0.173 HD
BRANCH  11  13
ATOM     13  S   UNL     1      33.663 -23.344 -17.805  0.00  0.00    +0.073 S 
ATOM     14  O   UNL     1      34.921 -22.822 -17.309  0.00  0.00    -0.150 OA
ATOM     15  O   UNL     1      33.595 -24.671 -18.387  0.00  0.00    -0.150 OA
BRANCH  13  16
ATOM     16  C   UNL     1      32.505 -23.311 -16.468  0.00  0.00    +0.125 C 
ATOM     17  C   UNL     1      32.960 -23.515 -15.177  0.00  0.00    +0.020 C 
ATOM     18  C   UNL     1      31.168 -23.081 -16.740  0.00  0.00    +0.020 C 
ATOM     19  C   UNL     1      32.046 -23.488 -14.123  0.00  0.00    +0.001 C 
ATOM     20  C   UNL     1      30.255 -23.054 -15.686  0.00  0.00    +0.001 C 
ATOM     21  C   UNL     1      30.693 -23.258 -14.377  0.00  0.00    +0.000 C 
ENDBRANCH  13  16
ENDBRANCH  11  13
ENDBRANCH   7  11
BRANCH   4  22
ATOM     22  C   UNL     1      35.529 -17.264 -23.633  0.00  0.00    +0.101 C 
BRANCH  22  23
ATOM     23  C   UNL     1      34.767 -15.963 -23.409  0.00  0.00    -0.014 C 
ATOM     24  C   UNL     1      34.089 -15.397 -24.468  0.00  0.00    -0.004 C 
ATOM     25  C   UNL     1      34.780 -15.393 -22.153  0.00  0.00    -0.004 C 
ATOM     26  C   UNL     1      33.392 -14.206 -24.263  0.00  0.00    +0.002 C 
ATOM     27  C   UNL     1      34.083 -14.202 -21.947  0.00  0.00    +0.002 C 
ATOM     28  C   UNL     1      33.389 -13.609 -23.003  0.00  0.00    +0.031 C 
BRANCH  28  31
ATOM     29  N   UNL     1      31.520 -12.324 -21.991  0.00  0.00    -0.343 N 
ATOM     30  N   UNL     1      33.083 -11.252 -23.359  0.00  0.00    -0.285 NA
ATOM     31  C   UNL     1      32.663 -12.367 -22.788  0.00  0.00    +0.117 C 
ATOM     32  H   UNL     1      31.044 -11.472 -21.860  0.00  0.00    +0.144 HD
ATOM     33  H   UNL     1      31.189 -13.144 -21.560  0.00  0.00    +0.144 HD
ATOM     34  H   UNL     1      32.593 -10.410 -23.216  0.00  0.00    +0.188 HD
ENDBRANCH  28  31
ENDBRANCH  22  23
ENDBRANCH   4  22
TORSDOF 6
ENDMDL
MODEL 4
REMARK VINA RESULT:     -12.7      4.439      9.380
REMARK  Name = 446805
REMARK  6 active torsions:
REMARK  status: ('A' for Active; 'I' for Inactive)
REMARK    1  A    between atoms: C_4  and  C_22
REMARK    2  A    between atoms: C_7  and  N_11
REMARK    3  A    between atoms: N_11  and  S_13
REMARK    4  A    between atoms: S_13  and  C_16
REMARK    5  A    between atoms: C_22  and  C_23
REMARK    6  A    between atoms: C_28  and  C_31
REMARK                            x       y       z     vdW  Elec       q    Type
REMARK                         _______ _______ _______ _____ _____    ______ ____
ROOT
ATOM      1  N   UNL     1      32.428 -23.114 -16.732  0.00  0.00    -0.262 N 
ATOM      2  N   UNL     1      34.510 -23.567 -17.363  0.00  0.00    -0.394 NA
ATOM      3  C   UNL     1      33.052 -23.603 -15.613  0.00  0.00    +0.079 C 
ATOM      4  C   UNL     1      33.340 -23.112 -17.750  0.00  0.00    +0.168 C 
ATOM      5  C   UNL     1      34.350 -23.877 -16.032  0.00  0.00    +0.129 C 
ATOM      6  C   UNL     1      35.272 -24.402 -15.110  0.00  0.00    +0.103 C 
ATOM      7  C   UNL     1      34.846 -24.629 -13.796  0.00  0.00    +0.050 C 
ATOM      8  C   UNL     1      32.606 -23.819 -14.308  0.00  0.00    +0.018 C 
ATOM      9  C   UNL     1      31.052 -22.680 -16.815  0.00  0.00    +0.119 C 
ATOM     10  C   UNL     1      33.536 -24.342 -13.403  0.00  0.00    +0.013 C 
ENDROOT
BRANCH   7  11
ATOM     11  N   UNL     1      35.766 -25.162 -12.842  0.00  0.00    -0.219 N 
ATOM     12  H   UNL     1      35.652 -26.063 -12.461  0.00  0.00    +0.173 HD
BRANCH  11  13
ATOM     13  S   UNL     1      37.099 -24.144 -12.388  0.00  0.00    +0.073 S 
ATOM     14  O   UNL     1      37.562 -24.521 -11.067  0.00  0.00    -0.150 OA
ATOM     15  O   UNL     1      36.767 -22.764 -12.686  0.00  0.00    -0.150 OA
BRANCH  13  16
ATOM     16  C   UNL     1      38.338 -24.635 -13.551  0.00  0.00    +0.125 C 
ATOM     17  C   UNL     1      39.207 -25.660 -13.217  0.00  0.00    +0.020 C 
ATOM     18  C   UNL     1      38.414 -23.987 -14.770  0.00  0.00    +0.020 C 
ATOM     19  C   UNL     1      40.184 -26.047 -14.134  0.00  0.00    +0.001 C 
ATOM     20  C   UNL     1      39.391 -24.375 -15.687  0.00  0.00    +0.001 C 
ATOM     21  C   UNL     1      40.276 -25.405 -15.370  0.00  0.00    +0.000 C 
ENDBRANCH  13  16
ENDBRANCH  11  13
ENDBRANCH   7  11
BRANCH   4  22
ATOM     22  C   UNL     1      32.998 -22.644 -19.109  0.00  0.00    +0.101 C 
BRANCH  22  23
ATOM     23  C   UNL     1      34.009 -21.667 -19.697  0.00  0.00    -0.014 C 
ATOM     24  C   UNL     1      33.548 -20.590 -20.425  0.00  0.00    -0.004 C 
ATOM     25  C   UNL     1      35.353 -21.891 -19.483  0.00  0.00    -0.004 C 
ATOM     26  C   UNL     1      34.474 -19.695 -20.963  0.00  0.00    +0.002 C 
ATOM     27  C   UNL     1      36.279 -20.997 -20.021  0.00  0.00    +0.002 C 
ATOM     28  C   UNL     1      35.839 -19.899 -20.761  0.00  0.00    +0.031 C 
BRANCH  28  31
ATOM     29  N   UNL     1      36.656 -18.459 -22.612  0.00  0.00    -0.343 N 
ATOM     30  N   UNL     1      37.848 -18.590 -20.606  0.00  0.00    -0.285 NA
ATOM     31  C   UNL     1      36.804 -18.967 -21.322  0.00  0.00    +0.117 C 
ATOM     32  H   UNL     1      37.322 -17.829 -22.972  0.00  0.00    +0.144 HD
ATOM     33  H   UNL     1      35.886 -18.729 -23.162  0.00  0.00    +0.144 HD
ATOM     34  H   UNL     1      38.503 -17.959 -20.984  0.00  0.00    +0.188 HD
ENDBRANCH  28  31
ENDBRANCH  22  23
ENDBRANCH   4  22
TORSDOF 6
ENDMDL
MODEL 5
REMARK VINA RESULT:     -12.7      5.691     10.624
REMARK  Name = 446805
REMARK  6 active torsions:
REMARK  status: ('A' for Active; 'I' for Inactive)
REMARK    1  A    between atoms: C_4  and  C_22
REMARK    2  A    between atoms: C_7  and  N_11
REMARK    3  A    between atoms: N_11  and  S_13
REMARK    4  A    between atoms: S_13  and  C_16
REMARK    5  A    between atoms: C_22  and  C_23
REMARK    6  A    between atoms: C_28  and  C_31
REMARK                            x       y       z     vdW  Elec       q    Type
REMARK                         _______ _______ _______ _____ _____    ______ ____
ROOT
ATOM      1  N   UNL     1      33.247 -13.537 -23.729  0.00  0.00    -0.262 N 
ATOM      2  N   UNL     1      32.559 -13.757 -21.627  0.00  0.00    -0.394 NA
ATOM      3  C   UNL     1      33.982 -14.571 -23.210  0.00  0.00    +0.079 C 
ATOM      4  C   UNL     1      32.412 -13.084 -22.746  0.00  0.00    +0.168 C 
ATOM      5  C   UNL     1      33.534 -14.690 -21.898  0.00  0.00    +0.129 C 
ATOM      6  C   UNL     1      34.094 -15.678 -21.069  0.00  0.00    +0.103 C 
ATOM      7  C   UNL     1      35.087 -16.510 -21.600  0.00  0.00    +0.050 C 
ATOM      8  C   UNL     1      34.969 -15.390 -23.760  0.00  0.00    +0.018 C 
ATOM      9  C   UNL     1      33.342 -13.019 -25.075  0.00  0.00    +0.119 C 
ATOM     10  C   UNL     1      35.515 -16.368 -22.922  0.00  0.00    +0.013 C 
ENDROOT
BRANCH   7  11
ATOM     11  N   UNL     1      35.670 -17.521 -20.775  0.00  0.00    -0.219 N 
ATOM     12  H   UNL     1      35.755 -17.407 -19.801  0.00  0.00    +0.173 HD
BRANCH  11  13
ATOM     13  S   UNL     1      36.221 -18.961 -21.576  0.00  0.00    +0.073 S 
ATOM     14  O   UNL     1      37.649 -19.104 -21.375  0.00  0.00    -0.150 OA
ATOM     15  O   UNL     1      35.656 -19.009 -22.912  0.00  0.00    -0.150 OA
BRANCH  13  16
ATOM     16  C   UNL     1      35.417 -20.225 -20.634  0.00  0.00    +0.125 C 
ATOM     17  C   UNL     1      34.036 -20.308 -20.659  0.00  0.00    +0.020 C 
ATOM     18  C   UNL     1      36.185 -21.104 -19.893  0.00  0.00    +0.020 C 
ATOM     19  C   UNL     1      33.403 -21.305 -19.917  0.00  0.00    +0.001 C 
ATOM     20  C   UNL     1      35.552 -22.102 -19.151  0.00  0.00    +0.001 C 
ATOM     21  C   UNL     1      34.161 -22.202 -19.163  0.00  0.00    +0.000 C 
ENDBRANCH  13  16
ENDBRANCH  11  13
ENDBRANCH   7  11
BRANCH   4  22
ATOM     22  C   UNL     1      31.473 -11.964 -22.966  0.00  0.00    +0.101 C 
BRANCH  22  23
ATOM     23  C   UNL     1      31.773 -10.733 -22.120  0.00  0.00    -0.014 C 
ATOM     24  C   UNL     1      32.462  -9.684 -22.692  0.00  0.00    -0.004 C 
ATOM     25  C   UNL     1      31.345 -10.706 -20.809  0.00  0.00    -0.004 C 
ATOM     26  C   UNL     1      32.736  -8.556 -21.917  0.00  0.00    +0.002 C 
ATOM     27  C   UNL     1      31.619  -9.579 -20.034  0.00  0.00    +0.002 C 
ATOM     28  C   UNL     1      32.315  -8.504 -20.589  0.00  0.00    +0.031 C 
BRANCH  28  31
ATOM     29  N   UNL     1      31.600  -6.688 -19.053  0.00  0.00    -0.343 N 
ATOM     30  N   UNL     1      33.831  -6.849 -19.730  0.00  0.00    -0.285 NA
ATOM     31  C   UNL     1      32.601  -7.329 -19.780  0.00  0.00    +0.117 C 
ATOM     32  H   UNL     1      31.817  -5.894 -18.513  0.00  0.00    +0.144 HD
ATOM     33  H   UNL     1      30.677  -7.029 -19.079  0.00  0.00    +0.144 HD
ATOM     34  H   UNL     1      34.027  -6.054 -19.184  0.00  0.00    +0.188 HD
ENDBRANCH  28  31
ENDBRANCH  22  23
ENDBRANCH   4  22
TORSDOF 6
ENDMDL
MODEL 6
REMARK VINA RESULT:     -12.6      5.064      8.427
REMARK  Name = 446805
REMARK  6 active torsions:
REMARK  status: ('A' for Active; 'I' for Inactive)
REMARK    1  A    between atoms: C_4  and  C_22
REMARK    2  A    between atoms: C_7  and  N_11
REMARK    3  A    between atoms: N_11  and  S_13
REMARK    4  A    between atoms: S_13  and  C_16
REMARK    5  A    between atoms: C_22  and  C_23
REMARK    6  A    between atoms: C_28  and  C_31
REMARK                            x       y       z     vdW  Elec       q    Type
REMARK                         _______ _______ _______ _____ _____    ______ ____
ROOT
ATOM      1  N   UNL     1      34.957 -16.932 -23.161  0.00  0.00    -0.262 N 
ATOM      2  N   UNL     1      35.133 -16.523 -20.983  0.00  0.00    -0.394 NA
ATOM      3  C   UNL     1      34.308 -15.741 -22.959  0.00  0.00    +0.079 C 
ATOM      4  C   UNL     1      35.432 -17.359 -21.953  0.00  0.00    +0.168 C 
ATOM      5  C   UNL     1      34.432 -15.507 -21.592  0.00  0.00    +0.129 C 
ATOM      6  C   UNL     1      33.866 -14.345 -21.041  0.00  0.00    +0.103 C 
ATOM      7  C   UNL     1      33.194 -13.461 -21.895  0.00  0.00    +0.050 C 
ATOM      8  C   UNL     1      33.644 -14.874 -23.827  0.00  0.00    +0.018 C 
ATOM      9  C   UNL     1      35.108 -17.611 -24.428  0.00  0.00    +0.119 C 
ATOM     10  C   UNL     1      33.086 -13.722 -23.263  0.00  0.00    +0.013 C 
ENDROOT
BRANCH   7  11
ATOM     11  N   UNL     1      32.610 -12.273 -21.356  0.00  0.00    -0.219 N 
ATOM     12  H   UNL     1      32.495 -12.148 -20.386  0.00  0.00    +0.173 HD
BRANCH  11  13
ATOM     13  S   UNL     1      32.113 -11.060 -22.496  0.00  0.00    +0.073 S 
ATOM     14  O   UNL     1      30.692 -11.195 -22.751  0.00  0.00    -0.150 OA
ATOM     15  O   UNL     1      33.058 -11.025 -23.597  0.00  0.00    -0.150 OA
BRANCH  13  16
ATOM     16  C   UNL     1      32.354  -9.574 -21.568  0.00  0.00    +0.125 C 
ATOM     17  C   UNL     1      31.893  -9.512 -20.264  0.00  0.00    +0.020 C 
ATOM     18  C   UNL     1      32.998  -8.505 -22.162  0.00  0.00    +0.020 C 
ATOM     19  C   UNL     1      32.083  -8.340 -19.532  0.00  0.00    +0.001 C 
ATOM     20  C   UNL     1      33.189  -7.332 -21.430  0.00  0.00    +0.001 C 
ATOM     21  C   UNL     1      32.731  -7.250 -20.115  0.00  0.00    +0.000 C 
ENDBRANCH  13  16
ENDBRANCH  11  13
ENDBRANCH   7  11
BRANCH   4  22
ATOM     22  C   UNL     1      36.187 -18.620 -21.806  0.00  0.00    +0.101 C 
BRANCH  22  23
ATOM     23  C   UNL     1      35.443 -19.698 -21.027  0.00  0.00    -0.014 C 
ATOM     24  C   UNL     1      36.169 -20.597 -20.274  0.00  0.00    -0.004 C 
ATOM     25  C   UNL     1      34.066 -19.740 -21.099  0.00  0.00    -0.004 C 
ATOM     26  C   UNL     1      35.487 -21.583 -19.561  0.00  0.00    +0.002 C 
ATOM     27  C   UNL     1      33.384 -20.727 -20.387  0.00  0.00    +0.002 C 
ATOM     28  C   UNL     1      34.096 -21.648 -19.617  0.00  0.00    +0.031 C 
BRANCH  28  31
ATOM     29  N   UNL     1      32.255 -22.374 -18.117  0.00  0.00    -0.343 N 
ATOM     30  N   UNL     1      33.812 -23.927 -18.908  0.00  0.00    -0.285 NA
ATOM     31  C   UNL     1      33.385 -22.677 -18.875  0.00  0.00    +0.117 C 
ATOM     32  H   UNL     1      31.789 -23.087 -17.622  0.00  0.00    +0.144 HD
ATOM     33  H   UNL     1      31.922 -21.449 -18.077  0.00  0.00    +0.144 HD
ATOM     34  H   UNL     1      33.333 -24.625 -18.406  0.00  0.00    +0.188 HD
ENDBRANCH  28  31
ENDBRANCH  22  23
ENDBRANCH   4  22
TORSDOF 6
ENDMDL
MODEL 7
REMARK VINA RESULT:     -12.3      8.010     13.632
REMARK  Name = 446805
REMARK  6 active torsions:
REMARK  status: ('A' for Active; 'I' for Inactive)
REMARK    1  A    between atoms: C_4  and  C_22
REMARK    2  A    between atoms: C_7  and  N_11
REMARK    3  A    between atoms: N_11  and  S_13
REMARK    4  A    between atoms: S_13  and  C_16
REMARK    5  A    between atoms: C_22  and  C_23
REMARK    6  A    between atoms: C_28  and  C_31
REMARK                            x       y       z     vdW  Elec       q    Type
REMARK                         _______ _______ _______ _____ _____    ______ ____
ROOT
ATOM      1  N   UNL     1      32.157  -9.650 -20.981  0.00  0.00    -0.262 N 
ATOM      2  N   UNL     1      32.654  -9.641 -23.147  0.00  0.00    -0.394 NA
ATOM      3  C   UNL     1      32.239 -10.970 -21.343  0.00  0.00    +0.079 C 
ATOM      4  C   UNL     1      32.412  -8.896 -22.092  0.00  0.00    +0.168 C 
ATOM      5  C   UNL     1      32.551 -10.938 -22.699  0.00  0.00    +0.129 C 
ATOM      6  C   UNL     1      32.711 -12.149 -23.394  0.00  0.00    +0.103 C 
ATOM      7  C   UNL     1      32.548 -13.349 -22.690  0.00  0.00    +0.050 C 
ATOM      8  C   UNL     1      32.073 -12.153 -20.622  0.00  0.00    +0.018 C 
ATOM      9  C   UNL     1      31.852  -9.149 -19.659  0.00  0.00    +0.119 C 
ATOM     10  C   UNL     1      32.236 -13.349 -21.329  0.00  0.00    +0.013 C 
ENDROOT
BRANCH   7  11
ATOM     11  N   UNL     1      32.705 -14.592 -23.377  0.00  0.00    -0.219 N 
ATOM     12  H   UNL     1      32.005 -15.286 -23.357  0.00  0.00    +0.173 HD
BRANCH  11  13
ATOM     13  S   UNL     1      34.187 -14.819 -24.253  0.00  0.00    +0.073 S 
ATOM     14  O   UNL     1      35.243 -14.058 -23.614  0.00  0.00    -0.150 OA
ATOM     15  O   UNL     1      33.930 -14.671 -25.673  0.00  0.00    -0.150 OA
BRANCH  13  16
ATOM     16  C   UNL     1      34.514 -16.534 -23.968  0.00  0.00    +0.125 C 
ATOM     17  C   UNL     1      35.005 -16.930 -22.736  0.00  0.00    +0.020 C 
ATOM     18  C   UNL     1      34.272 -17.444 -24.981  0.00  0.00    +0.020 C 
ATOM     19  C   UNL     1      35.262 -18.283 -22.511  0.00  0.00    +0.001 C 
ATOM     20  C   UNL     1      34.529 -18.797 -24.756  0.00  0.00    +0.001 C 
ATOM     21  C   UNL     1      35.024 -19.216 -23.521  0.00  0.00    +0.000 C 
ENDBRANCH  13  16
ENDBRANCH  11  13
ENDBRANCH   7  11
BRANCH   4  22
ATOM     22  C   UNL     1      32.405  -7.419 -22.058  0.00  0.00    +0.101 C 
BRANCH  22  23
ATOM     23  C   UNL     1      33.008  -6.771 -23.298  0.00  0.00    -0.014 C 
ATOM     24  C   UNL     1      32.198  -6.003 -24.109  0.00  0.00    -0.004 C 
ATOM     25  C   UNL     1      34.345  -6.972 -23.571  0.00  0.00    -0.004 C 
ATOM     26  C   UNL     1      32.751  -5.409 -25.245  0.00  0.00    +0.002 C 
ATOM     27  C   UNL     1      34.897  -6.380 -24.707  0.00  0.00    +0.002 C 
ATOM     28  C   UNL     1      34.100  -5.598 -25.543  0.00  0.00    +0.031 C 
BRANCH  28  31
ATOM     29  N   UNL     1      36.054  -4.949 -26.931  0.00  0.00    -0.343 N 
ATOM     30  N   UNL     1      33.886  -4.431 -27.634  0.00  0.00    -0.285 NA
ATOM     31  C   UNL     1      34.676  -4.980 -26.727  0.00  0.00    +0.117 C 
ATOM     32  H   UNL     1      36.422  -4.525 -27.740  0.00  0.00    +0.144 HD
ATOM     33  H   UNL     1      36.660  -5.350 -26.267  0.00  0.00    +0.144 HD
ATOM     34  H   UNL     1      34.273  -4.012 -28.436  0.00  0.00    +0.188 HD
ENDBRANCH  28  31
ENDBRANCH  22  23
ENDBRANCH   4  22
TORSDOF 6
ENDMDL
MODEL 8
REMARK VINA RESULT:     -12.1      5.099      8.784
REMARK  Name = 446805
REMARK  6 active torsions:
REMARK  status: ('A' for Active; 'I' for Inactive)
REMARK    1  A    between atoms: C_4  and  C_22
REMARK    2  A    between atoms: C_7  and  N_11
REMARK    3  A    between atoms: N_11  and  S_13
REMARK    4  A    between atoms: S_13  and  C_16
REMARK    5  A    between atoms: C_22  and  C_23
REMARK    6  A    between atoms: C_28  and  C_31
REMARK                            x       y       z     vdW  Elec       q    Type
REMARK                         _______ _______ _______ _____ _____    ______ ____
ROOT
ATOM      1  N   UNL     1      34.708 -15.817 -23.428  0.00  0.00    -0.262 N 
ATOM      2  N   UNL     1      34.407 -15.828 -21.226  0.00  0.00    -0.394 NA
ATOM      3  C   UNL     1      33.810 -14.812 -23.176  0.00  0.00    +0.079 C 
ATOM      4  C   UNL     1      35.034 -16.393 -22.233  0.00  0.00    +0.168 C 
ATOM      5  C   UNL     1      33.639 -14.838 -21.795  0.00  0.00    +0.129 C 
ATOM      6  C   UNL     1      32.765 -13.916 -21.194  0.00  0.00    +0.103 C 
ATOM      7  C   UNL     1      32.094 -13.000 -22.014  0.00  0.00    +0.050 C 
ATOM      8  C   UNL     1      33.153 -13.907 -24.012  0.00  0.00    +0.018 C 
ATOM      9  C   UNL     1      35.214 -16.196 -24.728  0.00  0.00    +0.119 C 
ATOM     10  C   UNL     1      32.286 -12.997 -23.398  0.00  0.00    +0.013 C 
ENDROOT
BRANCH   7  11
ATOM     11  N   UNL     1      31.200 -12.055 -21.425  0.00  0.00    -0.219 N 
ATOM     12  H   UNL     1      30.226 -12.105 -21.569  0.00  0.00    +0.173 HD
BRANCH  11  13
ATOM     13  S   UNL     1      31.912 -10.815 -20.439  0.00  0.00    +0.073 S 
ATOM     14  O   UNL     1      33.228 -11.243 -20.007  0.00  0.00    -0.150 OA
ATOM     15  O   UNL     1      30.933 -10.353 -19.472  0.00  0.00    -0.150 OA
BRANCH  13  16
ATOM     16  C   UNL     1      32.131  -9.507 -21.610  0.00  0.00    +0.125 C 
ATOM     17  C   UNL     1      32.912  -8.418 -21.265  0.00  0.00    +0.020 C 
ATOM     18  C   UNL     1      31.518  -9.599 -22.846  0.00  0.00    +0.020 C 
ATOM     19  C   UNL     1      33.085  -7.387 -22.189  0.00  0.00    +0.001 C 
ATOM     20  C   UNL     1      31.691  -8.568 -23.770  0.00  0.00    +0.001 C 
ATOM     21  C   UNL     1      32.475  -7.462 -23.442  0.00  0.00    +0.000 C 
ENDBRANCH  13  16
ENDBRANCH  11  13
ENDBRANCH   7  11
BRANCH   4  22
ATOM     22  C   UNL     1      35.986 -17.520 -22.138  0.00  0.00    +0.101 C 
BRANCH  22  23
ATOM     23  C   UNL     1      35.418 -18.751 -21.444  0.00  0.00    -0.014 C 
ATOM     24  C   UNL     1      36.282 -19.609 -20.796  0.00  0.00    -0.004 C 
ATOM     25  C   UNL     1      34.056 -18.970 -21.487  0.00  0.00    -0.004 C 
ATOM     26  C   UNL     1      35.761 -20.736 -20.160  0.00  0.00    +0.002 C 
ATOM     27  C   UNL     1      33.536 -20.097 -20.852  0.00  0.00    +0.002 C 
ATOM     28  C   UNL     1      34.388 -20.980 -20.189  0.00  0.00    +0.031 C 
BRANCH  28  31
ATOM     29  N   UNL     1      32.626 -22.110 -18.853  0.00  0.00    -0.343 N 
ATOM     30  N   UNL     1      34.514 -23.296 -19.556  0.00  0.00    -0.285 NA
ATOM     31  C   UNL     1      33.845 -22.156 -19.527  0.00  0.00    +0.117 C 
ATOM     32  H   UNL     1      32.278 -22.919 -18.411  0.00  0.00    +0.144 HD
ATOM     33  H   UNL     1      32.114 -21.271 -18.817  0.00  0.00    +0.144 HD
ATOM     34  H   UNL     1      34.149 -24.093 -19.109  0.00  0.00    +0.188 HD
ENDBRANCH  28  31
ENDBRANCH  22  23
ENDBRANCH   4  22
TORSDOF 6
ENDMDL
MODEL 9
REMARK VINA RESULT:     -11.8      6.099     11.283
REMARK  Name = 446805
REMARK  6 active torsions:
REMARK  status: ('A' for Active; 'I' for Inactive)
REMARK    1  A    between atoms: C_4  and  C_22
REMARK    2  A    between atoms: C_7  and  N_11
REMARK    3  A    between atoms: N_11  and  S_13
REMARK    4  A    between atoms: S_13  and  C_16
REMARK    5  A    between atoms: C_22  and  C_23
REMARK    6  A    between atoms: C_28  and  C_31
REMARK                            x       y       z     vdW  Elec       q    Type
REMARK                         _______ _______ _______ _____ _____    ______ ____
ROOT
ATOM      1  N   UNL     1      32.756 -12.731 -22.634  0.00  0.00    -0.262 N 
ATOM      2  N   UNL     1      32.261 -13.453 -20.591  0.00  0.00    -0.394 NA
ATOM      3  C   UNL     1      33.544 -13.835 -22.435  0.00  0.00    +0.079 C 
ATOM      4  C   UNL     1      32.008 -12.544 -21.505  0.00  0.00    +0.168 C 
ATOM      5  C   UNL     1      33.216 -14.268 -21.154  0.00  0.00    +0.129 C 
ATOM      6  C   UNL     1      33.856 -15.404 -20.629  0.00  0.00    +0.103 C 
ATOM      7  C   UNL     1      34.807 -16.060 -21.421  0.00  0.00    +0.050 C 
ATOM      8  C   UNL     1      34.486 -14.474 -23.242  0.00  0.00    +0.018 C 
ATOM      9  C   UNL     1      32.726 -11.913 -23.825  0.00  0.00    +0.119 C 
ATOM     10  C   UNL     1      35.114 -15.603 -22.705  0.00  0.00    +0.013 C 
ENDROOT
BRANCH   7  11
ATOM     11  N   UNL     1      35.471 -17.216 -20.907  0.00  0.00    -0.219 N 
ATOM     12  H   UNL     1      35.813 -17.248 -19.984  0.00  0.00    +0.173 HD
BRANCH  11  13
ATOM     13  S   UNL     1      35.643 -18.564 -21.990  0.00  0.00    +0.073 S 
ATOM     14  O   UNL     1      37.043 -18.730 -22.329  0.00  0.00    -0.150 OA
ATOM     15  O   UNL     1      34.639 -18.469 -23.033  0.00  0.00    -0.150 OA
BRANCH  13  16
ATOM     16  C   UNL     1      35.177 -19.920 -20.953  0.00  0.00    +0.125 C 
ATOM     17  C   UNL     1      36.166 -20.700 -20.381  0.00  0.00    +0.020 C 
ATOM     18  C   UNL     1      33.835 -20.172 -20.735  0.00  0.00    +0.020 C 
ATOM     19  C   UNL     1      35.799 -21.769 -19.563  0.00  0.00    +0.001 C 
ATOM     20  C   UNL     1      33.468 -21.241 -19.917  0.00  0.00    +0.001 C 
ATOM     21  C   UNL     1      34.450 -22.039 -19.331  0.00  0.00    +0.000 C 
ENDBRANCH  13  16
ENDBRANCH  11  13
ENDBRANCH   7  11
BRANCH   4  22
ATOM     22  C   UNL     1      31.042 -11.432 -21.378  0.00  0.00    +0.101 C 
BRANCH  22  23
ATOM     23  C   UNL     1      31.591 -10.084 -21.827  0.00  0.00    -0.014 C 
ATOM     24  C   UNL     1      32.558  -9.469 -21.059  0.00  0.00    -0.004 C 
ATOM     25  C   UNL     1      31.103  -9.520 -22.988  0.00  0.00    -0.004 C 
ATOM     26  C   UNL     1      33.060  -8.234 -21.470  0.00  0.00    +0.002 C 
ATOM     27  C   UNL     1      31.605  -8.285 -23.399  0.00  0.00    +0.002 C 
ATOM     28  C   UNL     1      32.584  -7.643 -22.640  0.00  0.00    +0.031 C 
BRANCH  28  31
ATOM     29  N   UNL     1      34.127  -6.265 -24.013  0.00  0.00    -0.343 N 
ATOM     30  N   UNL     1      32.614  -5.241 -22.557  0.00  0.00    -0.285 NA
ATOM     31  C   UNL     1      33.107  -6.355 -23.069  0.00  0.00    +0.117 C 
ATOM     32  H   UNL     1      34.466  -5.382 -24.289  0.00  0.00    +0.144 HD
ATOM     33  H   UNL     1      34.510  -7.083 -24.405  0.00  0.00    +0.144 HD
ATOM     34  H   UNL     1      32.966  -4.368 -22.845  0.00  0.00    +0.188 HD
ENDBRANCH  28  31
ENDBRANCH  22  23
ENDBRANCH   4  22
TORSDOF 6
ENDMDL
