MODEL 1
REMARK VINA RESULT:     -12.6      0.000      0.000
REMARK  Name = 10267580
REMARK  2 active torsions:
REMARK  status: ('A' for Active; 'I' for Inactive)
REMARK    1  A    between atoms: N_1  and  C_21
REMARK    2  A    between atoms: C_7  and  C_14
REMARK                            x       y       z     vdW  Elec       q    Type
REMARK                         _______ _______ _______ _____ _____    ______ ____
ROOT
ATOM      1  N   UNL     1      32.725 -22.290 -18.752  0.00  0.00    -0.290 N 
ATOM      2  N   UNL     1      34.267 -23.180 -17.215  0.00  0.00    -0.327 NA
ATOM      3  N   UNL     1      33.525 -24.056 -15.097  0.00  0.00    -0.342 NA
ATOM      4  C   UNL     1      31.921 -23.158 -16.636  0.00  0.00    +0.143 C 
ATOM      5  C   UNL     1      32.982 -22.894 -17.497  0.00  0.00    +0.184 C 
ATOM      6  C   UNL     1      32.252 -23.759 -15.410  0.00  0.00    +0.133 C 
ATOM      7  C   UNL     1      34.463 -23.751 -16.015  0.00  0.00    +0.165 C 
ATOM      8  C   UNL     1      30.586 -22.850 -16.953  0.00  0.00    -0.011 C 
ATOM      9  C   UNL     1      31.216 -24.037 -14.523  0.00  0.00    +0.029 C 
ATOM     10  C   UNL     1      29.571 -23.140 -16.046  0.00  0.00    -0.004 C 
ATOM     11  C   UNL     1      29.887 -23.734 -14.830  0.00  0.00    +0.002 C 
ATOM     12  H   UNL     1      31.812 -22.400 -19.105  0.00  0.00    +0.154 HD
ENDROOT
BRANCH   7  14
ATOM     13  N   UNL     1      36.034 -25.359 -15.304  0.00  0.00    -0.398 NA
ATOM     14  C   UNL     1      35.824 -24.073 -15.673  0.00  0.00    +0.197 C 
ATOM     15  C   UNL     1      36.825 -23.113 -15.727  0.00  0.00    +0.098 C 
ATOM     16  C   UNL     1      37.303 -25.692 -14.974  0.00  0.00    +0.110 C 
ATOM     17  C   UNL     1      38.116 -23.494 -15.381  0.00  0.00    -0.016 C 
ATOM     18  C   UNL     1      38.368 -24.806 -14.997  0.00  0.00    +0.023 C 
ATOM     19  C   UNL     1      37.536 -27.109 -14.568  0.00  0.00    +0.066 C 
ENDBRANCH   7  14
BRANCH   1  21
ATOM     20  N   UNL     1      35.365 -20.077 -21.163  0.00  0.00    -0.242 NA
ATOM     21  C   UNL     1      33.593 -21.562 -19.545  0.00  0.00    +0.053 C 
ATOM     22  C   UNL     1      33.120 -20.559 -20.407  0.00  0.00    +0.035 C 
ATOM     23  C   UNL     1      34.976 -21.801 -19.515  0.00  0.00    +0.035 C 
ATOM     24  C   UNL     1      34.030 -19.859 -21.181  0.00  0.00    +0.100 C 
ATOM     25  C   UNL     1      35.804 -21.045 -20.329  0.00  0.00    +0.100 C 
ENDBRANCH   1  21
TORSDOF 2
ENDMDL
MODEL 2
REMARK VINA RESULT:     -12.2      1.500      5.765
REMARK  Name = 10267580
REMARK  2 active torsions:
REMARK  status: ('A' for Active; 'I' for Inactive)
REMARK    1  A    between atoms: N_1  and  C_21
REMARK    2  A    between atoms: C_7  and  C_14
REMARK                            x       y       z     vdW  Elec       q    Type
REMARK                         _______ _______ _______ _____ _____    ______ ____
ROOT
ATOM      1  N   UNL     1      34.771 -24.808 -14.005  0.00  0.00    -0.290 N 
ATOM      2  N   UNL     1      34.639 -23.585 -16.011  0.00  0.00    -0.327 NA
ATOM      3  N   UNL     1      32.505 -23.096 -17.015  0.00  0.00    -0.342 NA
ATOM      4  C   UNL     1      32.595 -24.345 -14.969  0.00  0.00    +0.143 C 
ATOM      5  C   UNL     1      33.980 -24.227 -15.028  0.00  0.00    +0.184 C 
ATOM      6  C   UNL     1      31.877 -23.744 -16.017  0.00  0.00    +0.133 C 
ATOM      7  C   UNL     1      33.850 -23.052 -16.958  0.00  0.00    +0.165 C 
ATOM      8  C   UNL     1      31.929 -25.021 -13.931  0.00  0.00    -0.011 C 
ATOM      9  C   UNL     1      30.489 -23.842 -15.993  0.00  0.00    +0.029 C 
ATOM     10  C   UNL     1      30.540 -25.103 -13.934  0.00  0.00    -0.004 C 
ATOM     11  C   UNL     1      29.820 -24.512 -14.965  0.00  0.00    +0.002 C 
ATOM     12  H   UNL     1      34.318 -24.957 -13.143  0.00  0.00    +0.154 HD
ENDROOT
BRANCH   7  14
ATOM     13  N   UNL     1      33.691 -21.768 -18.929  0.00  0.00    -0.398 NA
ATOM     14  C   UNL     1      34.514 -22.356 -18.029  0.00  0.00    +0.197 C 
ATOM     15  C   UNL     1      35.900 -22.310 -18.105  0.00  0.00    +0.098 C 
ATOM     16  C   UNL     1      34.285 -21.107 -19.948  0.00  0.00    +0.110 C 
ATOM     17  C   UNL     1      36.473 -21.621 -19.168  0.00  0.00    -0.016 C 
ATOM     18  C   UNL     1      35.658 -21.005 -20.111  0.00  0.00    +0.023 C 
ATOM     19  C   UNL     1      33.380 -20.458 -20.941  0.00  0.00    +0.066 C 
ENDBRANCH   7  14
BRANCH   1  21
ATOM     20  N   UNL     1      38.804 -25.982 -14.187  0.00  0.00    -0.242 NA
ATOM     21  C   UNL     1      36.097 -25.193 -14.064  0.00  0.00    +0.053 C 
ATOM     22  C   UNL     1      36.519 -26.200 -14.948  0.00  0.00    +0.035 C 
ATOM     23  C   UNL     1      37.065 -24.592 -13.245  0.00  0.00    +0.035 C 
ATOM     24  C   UNL     1      37.859 -26.552 -14.970  0.00  0.00    +0.100 C 
ATOM     25  C   UNL     1      38.381 -25.015 -13.343  0.00  0.00    +0.100 C 
ENDBRANCH   1  21
TORSDOF 2
ENDMDL
MODEL 3
REMARK VINA RESULT:     -12.0      1.329      1.737
REMARK  Name = 10267580
REMARK  2 active torsions:
REMARK  status: ('A' for Active; 'I' for Inactive)
REMARK    1  A    between atoms: N_1  and  C_21
REMARK    2  A    between atoms: C_7  and  C_14
REMARK                            x       y       z     vdW  Elec       q    Type
REMARK                         _______ _______ _______ _____ _____    ______ ____
ROOT
ATOM      1  N   UNL     1      33.465 -22.759 -18.007  0.00  0.00    -0.290 N 
ATOM      2  N   UNL     1      34.746 -23.846 -16.360  0.00  0.00    -0.327 NA
ATOM      3  N   UNL     1      33.706 -24.718 -14.370  0.00  0.00    -0.342 NA
ATOM      4  C   UNL     1      32.364 -23.617 -16.024  0.00  0.00    +0.143 C 
ATOM      5  C   UNL     1      33.531 -23.427 -16.760  0.00  0.00    +0.184 C 
ATOM      6  C   UNL     1      32.506 -24.288 -14.798  0.00  0.00    +0.133 C 
ATOM      7  C   UNL     1      34.760 -24.474 -15.173  0.00  0.00    +0.165 C 
ATOM      8  C   UNL     1      31.105 -23.170 -16.463  0.00  0.00    -0.011 C 
ATOM      9  C   UNL     1      31.360 -24.495 -14.035  0.00  0.00    +0.029 C 
ATOM     10  C   UNL     1      29.977 -23.390 -15.678  0.00  0.00    -0.004 C 
ATOM     11  C   UNL     1      30.105 -24.053 -14.463  0.00  0.00    +0.002 C 
ATOM     12  H   UNL     1      32.588 -22.768 -18.455  0.00  0.00    +0.154 HD
ENDROOT
BRANCH   7  14
ATOM     13  N   UNL     1      36.559 -24.245 -13.667  0.00  0.00    -0.398 NA
ATOM     14  C   UNL     1      36.041 -24.939 -14.708  0.00  0.00    +0.197 C 
ATOM     15  C   UNL     1      36.672 -26.021 -15.304  0.00  0.00    +0.098 C 
ATOM     16  C   UNL     1      37.763 -24.656 -13.208  0.00  0.00    +0.110 C 
ATOM     17  C   UNL     1      37.909 -26.414 -14.803  0.00  0.00    -0.016 C 
ATOM     18  C   UNL     1      38.471 -25.724 -13.736  0.00  0.00    +0.023 C 
ATOM     19  C   UNL     1      38.336 -23.893 -12.060  0.00  0.00    +0.066 C 
ENDBRANCH   7  14
BRANCH   1  21
ATOM     20  N   UNL     1      36.540 -20.732 -20.036  0.00  0.00    -0.242 NA
ATOM     21  C   UNL     1      34.477 -22.092 -18.673  0.00  0.00    +0.053 C 
ATOM     22  C   UNL     1      34.212 -21.351 -19.837  0.00  0.00    +0.035 C 
ATOM     23  C   UNL     1      35.801 -22.135 -18.211  0.00  0.00    +0.035 C 
ATOM     24  C   UNL     1      35.260 -20.702 -20.469  0.00  0.00    +0.100 C 
ATOM     25  C   UNL     1      36.779 -21.450 -18.916  0.00  0.00    +0.100 C 
ENDBRANCH   1  21
TORSDOF 2
ENDMDL
MODEL 4
REMARK VINA RESULT:     -11.7      2.161      6.091
REMARK  Name = 10267580
REMARK  2 active torsions:
REMARK  status: ('A' for Active; 'I' for Inactive)
REMARK    1  A    between atoms: N_1  and  C_21
REMARK    2  A    between atoms: C_7  and  C_14
REMARK                            x       y       z     vdW  Elec       q    Type
REMARK                         _______ _______ _______ _____ _____    ______ ____
ROOT
ATOM      1  N   UNL     1      33.004 -24.659 -13.848  0.00  0.00    -0.290 N 
ATOM      2  N   UNL     1      34.326 -23.596 -15.478  0.00  0.00    -0.327 NA
ATOM      3  N   UNL     1      36.625 -23.038 -15.023  0.00  0.00    -0.342 NA
ATOM      4  C   UNL     1      35.312 -24.121 -13.334  0.00  0.00    +0.143 C 
ATOM      5  C   UNL     1      34.251 -24.108 -14.235  0.00  0.00    +0.184 C 
ATOM      6  C   UNL     1      36.516 -23.557 -13.788  0.00  0.00    +0.133 C 
ATOM      7  C   UNL     1      35.526 -23.085 -15.801  0.00  0.00    +0.165 C 
ATOM      8  C   UNL     1      35.208 -24.661 -12.040  0.00  0.00    -0.011 C 
ATOM      9  C   UNL     1      37.600 -23.552 -12.914  0.00  0.00    +0.029 C 
ATOM     10  C   UNL     1      36.308 -24.642 -11.188  0.00  0.00    -0.004 C 
ATOM     11  C   UNL     1      37.505 -24.087 -11.626  0.00  0.00    +0.002 C 
ATOM     12  H   UNL     1      33.033 -25.323 -13.120  0.00  0.00    +0.154 HD
ENDROOT
BRANCH   7  14
ATOM     13  N   UNL     1      34.519 -22.548 -17.864  0.00  0.00    -0.398 NA
ATOM     14  C   UNL     1      35.651 -22.527 -17.122  0.00  0.00    +0.197 C 
ATOM     15  C   UNL     1      36.859 -22.013 -17.572  0.00  0.00    +0.098 C 
ATOM     16  C   UNL     1      34.605 -22.032 -19.111  0.00  0.00    +0.110 C 
ATOM     17  C   UNL     1      36.908 -21.491 -18.860  0.00  0.00    -0.016 C 
ATOM     18  C   UNL     1      35.763 -21.496 -19.650  0.00  0.00    +0.023 C 
ATOM     19  C   UNL     1      33.358 -22.054 -19.930  0.00  0.00    +0.066 C 
ENDBRANCH   7  14
BRANCH   1  21
ATOM     20  N   UNL     1      29.192 -23.813 -15.408  0.00  0.00    -0.242 NA
ATOM     21  C   UNL     1      31.751 -24.382 -14.361  0.00  0.00    +0.053 C 
ATOM     22  C   UNL     1      31.350 -23.060 -14.619  0.00  0.00    +0.035 C 
ATOM     23  C   UNL     1      30.837 -25.410 -14.641  0.00  0.00    +0.035 C 
ATOM     24  C   UNL     1      30.084 -22.834 -15.133  0.00  0.00    +0.100 C 
ATOM     25  C   UNL     1      29.593 -25.079 -15.154  0.00  0.00    +0.100 C 
ENDBRANCH   1  21
TORSDOF 2
ENDMDL
MODEL 5
REMARK VINA RESULT:     -11.5      1.859      5.254
REMARK  Name = 10267580
REMARK  2 active torsions:
REMARK  status: ('A' for Active; 'I' for Inactive)
REMARK    1  A    between atoms: N_1  and  C_21
REMARK    2  A    between atoms: C_7  and  C_14
REMARK                            x       y       z     vdW  Elec       q    Type
REMARK                         _______ _______ _______ _____ _____    ______ ____
ROOT
ATOM      1  N   UNL     1      32.612 -23.015 -16.567  0.00  0.00    -0.290 N 
ATOM      2  N   UNL     1      34.702 -23.350 -15.539  0.00  0.00    -0.327 NA
ATOM      3  N   UNL     1      36.741 -22.768 -16.682  0.00  0.00    -0.342 NA
ATOM      4  C   UNL     1      34.631 -22.410 -17.764  0.00  0.00    +0.143 C 
ATOM      5  C   UNL     1      34.025 -22.924 -16.622  0.00  0.00    +0.184 C 
ATOM      6  C   UNL     1      36.035 -22.350 -17.747  0.00  0.00    +0.133 C 
ATOM      7  C   UNL     1      36.037 -23.245 -15.637  0.00  0.00    +0.165 C 
ATOM      8  C   UNL     1      33.902 -21.971 -18.884  0.00  0.00    -0.011 C 
ATOM      9  C   UNL     1      36.677 -21.842 -18.873  0.00  0.00    +0.029 C 
ATOM     10  C   UNL     1      34.572 -21.468 -19.996  0.00  0.00    -0.004 C 
ATOM     11  C   UNL     1      35.960 -21.403 -19.990  0.00  0.00    +0.002 C 
ATOM     12  H   UNL     1      32.117 -22.409 -17.165  0.00  0.00    +0.154 HD
ENDROOT
BRANCH   7  14
ATOM     13  N   UNL     1      37.908 -24.409 -14.798  0.00  0.00    -0.398 NA
ATOM     14  C   UNL     1      36.800 -23.690 -14.500  0.00  0.00    +0.197 C 
ATOM     15  C   UNL     1      36.402 -23.388 -13.205  0.00  0.00    +0.098 C 
ATOM     16  C   UNL     1      38.646 -24.843 -13.751  0.00  0.00    +0.110 C 
ATOM     17  C   UNL     1      37.187 -23.852 -12.155  0.00  0.00    -0.016 C 
ATOM     18  C   UNL     1      38.332 -24.593 -12.425  0.00  0.00    +0.023 C 
ATOM     19  C   UNL     1      39.868 -25.634 -14.078  0.00  0.00    +0.066 C 
ENDBRANCH   7  14
BRANCH   1  21
ATOM     20  N   UNL     1      30.265 -25.553 -14.173  0.00  0.00    -0.242 NA
ATOM     21  C   UNL     1      31.840 -23.849 -15.780  0.00  0.00    +0.053 C 
ATOM     22  C   UNL     1      32.318 -24.334 -14.551  0.00  0.00    +0.035 C 
ATOM     23  C   UNL     1      30.553 -24.241 -16.182  0.00  0.00    +0.035 C 
ATOM     24  C   UNL     1      31.506 -25.167 -13.800  0.00  0.00    +0.100 C 
ATOM     25  C   UNL     1      29.820 -25.079 -15.358  0.00  0.00    +0.100 C 
ENDBRANCH   1  21
TORSDOF 2
ENDMDL
MODEL 6
REMARK VINA RESULT:     -11.5      1.587      6.288
REMARK  Name = 10267580
REMARK  2 active torsions:
REMARK  status: ('A' for Active; 'I' for Inactive)
REMARK    1  A    between atoms: N_1  and  C_21
REMARK    2  A    between atoms: C_7  and  C_14
REMARK                            x       y       z     vdW  Elec       q    Type
REMARK                         _______ _______ _______ _____ _____    ______ ____
ROOT
ATOM      1  N   UNL     1      32.783 -24.472 -15.205  0.00  0.00    -0.290 N 
ATOM      2  N   UNL     1      33.704 -23.171 -16.935  0.00  0.00    -0.327 NA
ATOM      3  N   UNL     1      36.068 -22.712 -17.003  0.00  0.00    -0.342 NA
ATOM      4  C   UNL     1      35.169 -24.043 -15.222  0.00  0.00    +0.143 C 
ATOM      5  C   UNL     1      33.918 -23.876 -15.808  0.00  0.00    +0.184 C 
ATOM      6  C   UNL     1      36.247 -23.423 -15.876  0.00  0.00    +0.133 C 
ATOM      7  C   UNL     1      34.808 -22.625 -17.472  0.00  0.00    +0.165 C 
ATOM      8  C   UNL     1      35.367 -24.783 -14.043  0.00  0.00    -0.011 C 
ATOM      9  C   UNL     1      37.515 -23.568 -15.318  0.00  0.00    +0.029 C 
ATOM     10  C   UNL     1      36.646 -24.910 -13.508  0.00  0.00    -0.004 C 
ATOM     11  C   UNL     1      37.720 -24.302 -14.147  0.00  0.00    +0.002 C 
ATOM     12  H   UNL     1      32.961 -25.244 -14.620  0.00  0.00    +0.154 HD
ENDROOT
BRANCH   7  14
ATOM     13  N   UNL     1      35.747 -21.288 -19.171  0.00  0.00    -0.398 NA
ATOM     14  C   UNL     1      34.625 -21.862 -18.679  0.00  0.00    +0.197 C 
ATOM     15  C   UNL     1      33.374 -21.744 -19.270  0.00  0.00    +0.098 C 
ATOM     16  C   UNL     1      35.607 -20.563 -20.304  0.00  0.00    +0.110 C 
ATOM     17  C   UNL     1      33.271 -20.991 -20.435  0.00  0.00    -0.016 C 
ATOM     18  C   UNL     1      34.404 -20.386 -20.968  0.00  0.00    +0.023 C 
ATOM     19  C   UNL     1      36.844 -19.929 -20.848  0.00  0.00    +0.066 C 
ENDBRANCH   7  14
BRANCH   1  21
ATOM     20  N   UNL     1      28.748 -23.354 -15.589  0.00  0.00    -0.242 NA
ATOM     21  C   UNL     1      31.456 -24.105 -15.332  0.00  0.00    +0.053 C 
ATOM     22  C   UNL     1      31.032 -22.802 -15.024  0.00  0.00    +0.035 C 
ATOM     23  C   UNL     1      30.488 -25.021 -15.772  0.00  0.00    +0.035 C 
ATOM     24  C   UNL     1      29.692 -22.483 -15.166  0.00  0.00    +0.100 C 
ATOM     25  C   UNL     1      29.172 -24.604 -15.881  0.00  0.00    +0.100 C 
ENDBRANCH   1  21
TORSDOF 2
ENDMDL
MODEL 7
REMARK VINA RESULT:     -11.1      1.441      5.467
REMARK  Name = 10267580
REMARK  2 active torsions:
REMARK  status: ('A' for Active; 'I' for Inactive)
REMARK    1  A    between atoms: N_1  and  C_21
REMARK    2  A    between atoms: C_7  and  C_14
REMARK                            x       y       z     vdW  Elec       q    Type
REMARK                         _______ _______ _______ _____ _____    ______ ____
ROOT
ATOM      1  N   UNL     1      36.660 -22.550 -16.890  0.00  0.00    -0.290 N 
ATOM      2  N   UNL     1      34.745 -23.406 -15.823  0.00  0.00    -0.327 NA
ATOM      3  N   UNL     1      34.947 -25.001 -14.029  0.00  0.00    -0.342 NA
ATOM      4  C   UNL     1      36.924 -24.154 -15.091  0.00  0.00    +0.143 C 
ATOM      5  C   UNL     1      36.089 -23.395 -15.906  0.00  0.00    +0.184 C 
ATOM      6  C   UNL     1      36.287 -24.967 -14.138  0.00  0.00    +0.133 C 
ATOM      7  C   UNL     1      34.250 -24.220 -14.877  0.00  0.00    +0.165 C 
ATOM      8  C   UNL     1      38.326 -24.126 -15.197  0.00  0.00    -0.011 C 
ATOM      9  C   UNL     1      37.090 -25.741 -13.305  0.00  0.00    +0.029 C 
ATOM     10  C   UNL     1      39.103 -24.912 -14.351  0.00  0.00    -0.004 C 
ATOM     11  C   UNL     1      38.484 -25.720 -13.405  0.00  0.00    +0.002 C 
ATOM     12  H   UNL     1      37.591 -22.272 -16.732  0.00  0.00    +0.154 HD
ENDROOT
BRANCH   7  14
ATOM     13  N   UNL     1      32.138 -23.565 -15.696  0.00  0.00    -0.398 NA
ATOM     14  C   UNL     1      32.815 -24.262 -14.753  0.00  0.00    +0.197 C 
ATOM     15  C   UNL     1      32.204 -24.974 -13.731  0.00  0.00    +0.098 C 
ATOM     16  C   UNL     1      30.788 -23.585 -15.606  0.00  0.00    +0.110 C 
ATOM     17  C   UNL     1      30.814 -24.970 -13.672  0.00  0.00    -0.016 C 
ATOM     18  C   UNL     1      30.086 -24.265 -14.624  0.00  0.00    +0.023 C 
ATOM     19  C   UNL     1      30.039 -22.818 -16.644  0.00  0.00    +0.066 C 
ENDBRANCH   7  14
BRANCH   1  21
ATOM     20  N   UNL     1      34.882 -21.086 -20.408  0.00  0.00    -0.242 NA
ATOM     21  C   UNL     1      36.075 -22.070 -18.047  0.00  0.00    +0.053 C 
ATOM     22  C   UNL     1      36.811 -21.305 -18.967  0.00  0.00    +0.035 C 
ATOM     23  C   UNL     1      34.727 -22.328 -18.341  0.00  0.00    +0.035 C 
ATOM     24  C   UNL     1      36.179 -20.845 -20.111  0.00  0.00    +0.100 C 
ATOM     25  C   UNL     1      34.188 -21.823 -19.513  0.00  0.00    +0.100 C 
ENDBRANCH   1  21
TORSDOF 2
ENDMDL
MODEL 8
REMARK VINA RESULT:     -11.0      2.017      5.537
REMARK  Name = 10267580
REMARK  2 active torsions:
REMARK  status: ('A' for Active; 'I' for Inactive)
REMARK    1  A    between atoms: N_1  and  C_21
REMARK    2  A    between atoms: C_7  and  C_14
REMARK                            x       y       z     vdW  Elec       q    Type
REMARK                         _______ _______ _______ _____ _____    ______ ____
ROOT
ATOM      1  N   UNL     1      36.057 -22.371 -16.007  0.00  0.00    -0.290 N 
ATOM      2  N   UNL     1      33.994 -23.294 -15.354  0.00  0.00    -0.327 NA
ATOM      3  N   UNL     1      33.776 -24.457 -13.256  0.00  0.00    -0.342 NA
ATOM      4  C   UNL     1      35.897 -23.530 -13.884  0.00  0.00    +0.143 C 
ATOM      5  C   UNL     1      35.290 -23.087 -15.055  0.00  0.00    +0.184 C 
ATOM      6  C   UNL     1      35.075 -24.233 -12.987  0.00  0.00    +0.133 C 
ATOM      7  C   UNL     1      33.307 -23.976 -14.424  0.00  0.00    +0.165 C 
ATOM      8  C   UNL     1      37.254 -23.302 -13.594  0.00  0.00    -0.011 C 
ATOM      9  C   UNL     1      35.648 -24.693 -11.805  0.00  0.00    +0.029 C 
ATOM     10  C   UNL     1      37.800 -23.774 -12.404  0.00  0.00    -0.004 C 
ATOM     11  C   UNL     1      36.995 -24.470 -11.509  0.00  0.00    +0.002 C 
ATOM     12  H   UNL     1      36.863 -21.922 -15.662  0.00  0.00    +0.154 HD
ENDROOT
BRANCH   7  14
ATOM     13  N   UNL     1      31.336 -23.337 -15.550  0.00  0.00    -0.398 NA
ATOM     14  C   UNL     1      31.915 -24.221 -14.704  0.00  0.00    +0.197 C 
ATOM     15  C   UNL     1      31.246 -25.293 -14.131  0.00  0.00    +0.098 C 
ATOM     16  C   UNL     1      30.029 -23.539 -15.832  0.00  0.00    +0.110 C 
ATOM     17  C   UNL     1      29.902 -25.468 -14.445  0.00  0.00    -0.016 C 
ATOM     18  C   UNL     1      29.276 -24.579 -15.311  0.00  0.00    +0.023 C 
ATOM     19  C   UNL     1      29.389 -22.567 -16.765  0.00  0.00    +0.066 C 
ENDBRANCH   7  14
BRANCH   1  21
ATOM     20  N   UNL     1      35.327 -21.924 -20.124  0.00  0.00    -0.242 NA
ATOM     21  C   UNL     1      35.817 -22.223 -17.361  0.00  0.00    +0.053 C 
ATOM     22  C   UNL     1      34.602 -22.638 -17.931  0.00  0.00    +0.035 C 
ATOM     23  C   UNL     1      36.779 -21.655 -18.211  0.00  0.00    +0.035 C 
ATOM     24  C   UNL     1      34.411 -22.470 -19.292  0.00  0.00    +0.100 C 
ATOM     25  C   UNL     1      36.491 -21.530 -19.560  0.00  0.00    +0.100 C 
ENDBRANCH   1  21
TORSDOF 2
ENDMDL
MODEL 9
REMARK VINA RESULT:     -10.3      1.327      6.636
REMARK  Name = 10267580
REMARK  2 active torsions:
REMARK  status: ('A' for Active; 'I' for Inactive)
REMARK    1  A    between atoms: N_1  and  C_21
REMARK    2  A    between atoms: C_7  and  C_14
REMARK                            x       y       z     vdW  Elec       q    Type
REMARK                         _______ _______ _______ _____ _____    ______ ____
ROOT
ATOM      1  N   UNL     1      33.832 -24.300 -15.509  0.00  0.00    -0.290 N 
ATOM      2  N   UNL     1      34.395 -22.886 -17.303  0.00  0.00    -0.327 NA
ATOM      3  N   UNL     1      36.683 -22.235 -17.684  0.00  0.00    -0.342 NA
ATOM      4  C   UNL     1      36.152 -23.678 -15.844  0.00  0.00    +0.143 C 
ATOM      5  C   UNL     1      34.821 -23.599 -16.243  0.00  0.00    +0.184 C 
ATOM      6  C   UNL     1      37.075 -22.958 -16.620  0.00  0.00    +0.133 C 
ATOM      7  C   UNL     1      35.366 -22.239 -17.968  0.00  0.00    +0.165 C 
ATOM      8  C   UNL     1      36.572 -24.430 -14.732  0.00  0.00    -0.011 C 
ATOM      9  C   UNL     1      38.416 -23.013 -16.251  0.00  0.00    +0.029 C 
ATOM     10  C   UNL     1      37.919 -24.466 -14.387  0.00  0.00    -0.004 C 
ATOM     11  C   UNL     1      38.842 -23.757 -15.147  0.00  0.00    +0.002 C 
ATOM     12  H   UNL     1      34.151 -25.070 -14.983  0.00  0.00    +0.154 HD
ENDROOT
BRANCH   7  14
ATOM     13  N   UNL     1      35.948 -20.785 -19.731  0.00  0.00    -0.398 NA
ATOM     14  C   UNL     1      34.955 -21.464 -19.110  0.00  0.00    +0.197 C 
ATOM     15  C   UNL     1      33.628 -21.435 -19.518  0.00  0.00    +0.098 C 
ATOM     16  C   UNL     1      35.593 -20.046 -20.807  0.00  0.00    +0.110 C 
ATOM     17  C   UNL     1      33.303 -20.663 -20.628  0.00  0.00    -0.016 C 
ATOM     18  C   UNL     1      34.298 -19.954 -21.290  0.00  0.00    +0.023 C 
ATOM     19  C   UNL     1      36.687 -19.298 -21.493  0.00  0.00    +0.066 C 
ENDBRANCH   7  14
BRANCH   1  21
ATOM     20  N   UNL     1      29.709 -23.508 -15.285  0.00  0.00    -0.242 NA
ATOM     21  C   UNL     1      32.477 -24.039 -15.436  0.00  0.00    +0.053 C 
ATOM     22  C   UNL     1      31.678 -24.628 -14.441  0.00  0.00    +0.035 C 
ATOM     23  C   UNL     1      31.853 -23.178 -16.352  0.00  0.00    +0.035 C 
ATOM     24  C   UNL     1      30.325 -24.335 -14.410  0.00  0.00    +0.100 C 
ATOM     25  C   UNL     1      30.491 -22.949 -16.235  0.00  0.00    +0.100 C 
ENDBRANCH   1  21
TORSDOF 2
ENDMDL
