MODEL 1
REMARK VINA RESULT:     -14.8      0.000      0.000
REMARK  Name = 25171648
REMARK  8 active torsions:
REMARK  status: ('A' for Active; 'I' for Inactive)
REMARK    1  A    between atoms: C_1  and  C_12
REMARK    2  A    between atoms: C_2  and  C_23
REMARK    3  A    between atoms: C_9  and  O_13
REMARK    4  A    between atoms: O_13  and  C_14
REMARK    5  A    between atoms: C_14  and  C_16
REMARK    6  A    between atoms: C_23  and  N_25
REMARK    7  A    between atoms: C_27  and  C_31
REMARK    8  A    between atoms: C_34  and  C_38
REMARK                            x       y       z     vdW  Elec       q    Type
REMARK                         _______ _______ _______ _____ _____    ______ ____
ROOT
ATOM      1  C   UNL     1      32.808 -12.796 -22.138  0.00  0.00    +0.062 C 
ATOM      2  C   UNL     1      34.245 -14.674 -22.634  0.00  0.00    +0.000 C 
ATOM      3  C   UNL     1      33.782 -13.393 -22.938  0.00  0.00    +0.007 C 
ATOM      4  C   UNL     1      32.298 -13.480 -21.034  0.00  0.00    +0.010 C 
ATOM      5  C   UNL     1      33.735 -15.356 -21.530  0.00  0.00    -0.003 C 
ATOM      6  C   UNL     1      32.762 -14.759 -20.730  0.00  0.00    +0.000 C 
ENDROOT
BRANCH   1  12
ATOM      7  N   UNL     1      31.190 -11.089 -21.848  0.00  0.00    -0.212 NA
ATOM      8  N   UNL     1      33.070 -10.757 -23.317  0.00  0.00    -0.190 NA
ATOM      9  C   UNL     1      31.438  -9.011 -23.037  0.00  0.00    +0.161 C 
ATOM     10  C   UNL     1      30.771  -9.846 -22.165  0.00  0.00    +0.201 C 
ATOM     11  C   UNL     1      32.594  -9.524 -23.588  0.00  0.00    +0.144 C 
ATOM     12  C   UNL     1      32.329 -11.475 -22.452  0.00  0.00    +0.031 C 
BRANCH   9  13
ATOM     13  O   UNL     1      30.982  -7.750 -23.335  0.00  0.00    -0.476 OA
BRANCH  13  14
ATOM     14  C   UNL     1      31.876  -6.675 -23.121  0.00  0.00    +0.205 C 
BRANCH  14  16
ATOM     15  N   UNL     1      33.355  -3.796 -25.981  0.00  0.00    +0.386 N 
ATOM     16  C   UNL     1      32.129  -5.979 -24.454  0.00  0.00    +0.040 C 
ATOM     17  C   UNL     1      33.626  -5.943 -24.781  0.00  0.00    -0.019 C 
ATOM     18  C   UNL     1      31.566  -4.553 -24.448  0.00  0.00    -0.019 C 
ATOM     19  C   UNL     1      33.897  -5.159 -26.067  0.00  0.00    -0.077 C 
ATOM     20  C   UNL     1      31.905  -3.816 -25.745  0.00  0.00    -0.077 C 
ATOM     21  C   UNL     1      33.666  -3.044 -27.196  0.00  0.00    -0.101 C 
ATOM     22  H   UNL     1      33.796  -3.332 -25.187  0.00  0.00    -0.080 HD
ENDBRANCH  14  16
ENDBRANCH  13  14
ENDBRANCH   9  13
ENDBRANCH   1  12
BRANCH   2  23
ATOM     23  C   UNL     1      35.287 -15.313 -23.490  0.00  0.00    +0.146 C 
BRANCH  23  25
ATOM     24  O   UNL     1      34.325 -16.502 -25.914  0.00  0.00    -0.268 OA
ATOM     25  N   UNL     1      35.029 -16.726 -23.710  0.00  0.00    -0.173 N 
ATOM     26  N   UNL     1      35.272 -17.527 -22.631  0.00  0.00    -0.175 NA
ATOM     27  C   UNL     1      35.058 -18.797 -22.750  0.00  0.00    +0.099 C 
ATOM     28  C   UNL     1      34.565 -17.200 -24.928  0.00  0.00    +0.268 C 
ATOM     29  C   UNL     1      34.590 -19.453 -23.986  0.00  0.00    +0.025 C 
ATOM     30  C   UNL     1      34.355 -18.659 -25.029  0.00  0.00    +0.061 C 
BRANCH  27  31
ATOM     31  C   UNL     1      35.314 -19.679 -21.580  0.00  0.00    +0.020 C 
ATOM     32  C   UNL     1      34.252 -20.328 -20.949  0.00  0.00    +0.012 C 
ATOM     33  C   UNL     1      36.617 -19.859 -21.114  0.00  0.00    +0.002 C 
ATOM     34  C   UNL     1      34.494 -21.155 -19.852  0.00  0.00    +0.068 C 
ATOM     35  C   UNL     1      36.858 -20.686 -20.017  0.00  0.00    +0.001 C 
ATOM     36  C   UNL     1      35.797 -21.334 -19.386  0.00  0.00    +0.010 C 
BRANCH  34  38
ATOM     37  N   UNL     1      32.523 -22.358 -18.678  0.00  0.00    -0.191 NA
ATOM     38  C   UNL     1      33.406 -21.819 -19.204  0.00  0.00    +0.100 C 
ENDBRANCH  34  38
ENDBRANCH  27  31
ENDBRANCH  23  25
ENDBRANCH   2  23
TORSDOF 8
ENDMDL
MODEL 2
REMARK VINA RESULT:     -14.3      3.871      8.188
REMARK  Name = 25171648
REMARK  8 active torsions:
REMARK  status: ('A' for Active; 'I' for Inactive)
REMARK    1  A    between atoms: C_1  and  C_12
REMARK    2  A    between atoms: C_2  and  C_23
REMARK    3  A    between atoms: C_9  and  O_13
REMARK    4  A    between atoms: O_13  and  C_14
REMARK    5  A    between atoms: C_14  and  C_16
REMARK    6  A    between atoms: C_23  and  N_25
REMARK    7  A    between atoms: C_27  and  C_31
REMARK    8  A    between atoms: C_34  and  C_38
REMARK                            x       y       z     vdW  Elec       q    Type
REMARK                         _______ _______ _______ _____ _____    ______ ____
ROOT
ATOM      1  C   UNL     1      35.405 -19.806 -20.802  0.00  0.00    +0.062 C 
ATOM      2  C   UNL     1      34.389 -21.659 -19.630  0.00  0.00    +0.000 C 
ATOM      3  C   UNL     1      34.268 -20.531 -20.443  0.00  0.00    +0.007 C 
ATOM      4  C   UNL     1      36.660 -20.208 -20.347  0.00  0.00    +0.010 C 
ATOM      5  C   UNL     1      35.645 -22.060 -19.176  0.00  0.00    -0.003 C 
ATOM      6  C   UNL     1      36.780 -21.336 -19.535  0.00  0.00    +0.000 C 
ENDROOT
BRANCH   1  12
ATOM      7  N   UNL     1      35.222 -17.453 -21.014  0.00  0.00    -0.212 NA
ATOM      8  N   UNL     1      35.236 -18.862 -22.970  0.00  0.00    -0.190 NA
ATOM      9  C   UNL     1      35.049 -16.474 -23.207  0.00  0.00    +0.161 C 
ATOM     10  C   UNL     1      35.106 -16.385 -21.831  0.00  0.00    +0.201 C 
ATOM     11  C   UNL     1      35.121 -17.751 -23.726  0.00  0.00    +0.144 C 
ATOM     12  C   UNL     1      35.280 -18.643 -21.641  0.00  0.00    +0.031 C 
BRANCH   9  13
ATOM     13  O   UNL     1      34.932 -15.364 -24.007  0.00  0.00    -0.476 OA
BRANCH  13  14
ATOM     14  C   UNL     1      33.643 -14.795 -24.133  0.00  0.00    +0.205 C 
BRANCH  14  16
ATOM     15  N   UNL     1      32.326 -10.918 -22.757  0.00  0.00    +0.386 N 
ATOM     16  C   UNL     1      33.610 -13.487 -23.348  0.00  0.00    +0.040 C 
ATOM     17  C   UNL     1      32.331 -13.380 -22.511  0.00  0.00    -0.019 C 
ATOM     18  C   UNL     1      33.719 -12.279 -24.284  0.00  0.00    -0.019 C 
ATOM     19  C   UNL     1      32.242 -12.029 -21.799  0.00  0.00    -0.077 C 
ATOM     20  C   UNL     1      33.586 -10.964 -23.513  0.00  0.00    -0.077 C 
ATOM     21  C   UNL     1      32.189  -9.635 -22.067  0.00  0.00    -0.101 C 
ATOM     22  H   UNL     1      31.558 -11.017 -23.420  0.00  0.00    -0.080 HD
ENDBRANCH  14  16
ENDBRANCH  13  14
ENDBRANCH   9  13
ENDBRANCH   1  12
BRANCH   2  23
ATOM     23  C   UNL     1      33.174 -22.435 -19.245  0.00  0.00    +0.146 C 
BRANCH  23  25
ATOM     24  O   UNL     1      30.875 -22.381 -17.534  0.00  0.00    -0.268 OA
ATOM     25  N   UNL     1      33.150 -22.757 -17.828  0.00  0.00    -0.173 N 
ATOM     26  N   UNL     1      34.361 -23.103 -17.300  0.00  0.00    -0.175 NA
ATOM     27  C   UNL     1      34.418 -23.396 -16.041  0.00  0.00    +0.099 C 
ATOM     28  C   UNL     1      31.978 -22.701 -17.089  0.00  0.00    +0.268 C 
ATOM     29  C   UNL     1      33.256 -23.407 -15.132  0.00  0.00    +0.025 C 
ATOM     30  C   UNL     1      32.083 -23.065 -15.661  0.00  0.00    +0.061 C 
BRANCH  27  31
ATOM     31  C   UNL     1      35.732 -23.770 -15.452  0.00  0.00    +0.020 C 
ATOM     32  C   UNL     1      35.786 -24.623 -14.350  0.00  0.00    +0.012 C 
ATOM     33  C   UNL     1      36.911 -23.268 -16.005  0.00  0.00    +0.002 C 
ATOM     34  C   UNL     1      37.019 -24.973 -13.799  0.00  0.00    +0.068 C 
ATOM     35  C   UNL     1      38.144 -23.619 -15.454  0.00  0.00    +0.001 C 
ATOM     36  C   UNL     1      38.198 -24.471 -14.352  0.00  0.00    +0.010 C 
BRANCH  34  38
ATOM     37  N   UNL     1      37.121 -26.554 -11.751  0.00  0.00    -0.191 NA
ATOM     38  C   UNL     1      37.075 -25.845 -12.669  0.00  0.00    +0.100 C 
ENDBRANCH  34  38
ENDBRANCH  27  31
ENDBRANCH  23  25
ENDBRANCH   2  23
TORSDOF 8
ENDMDL
MODEL 3
REMARK VINA RESULT:     -14.1      3.727      8.318
REMARK  Name = 25171648
REMARK  8 active torsions:
REMARK  status: ('A' for Active; 'I' for Inactive)
REMARK    1  A    between atoms: C_1  and  C_12
REMARK    2  A    between atoms: C_2  and  C_23
REMARK    3  A    between atoms: C_9  and  O_13
REMARK    4  A    between atoms: O_13  and  C_14
REMARK    5  A    between atoms: C_14  and  C_16
REMARK    6  A    between atoms: C_23  and  N_25
REMARK    7  A    between atoms: C_27  and  C_31
REMARK    8  A    between atoms: C_34  and  C_38
REMARK                            x       y       z     vdW  Elec       q    Type
REMARK                         _______ _______ _______ _____ _____    ______ ____
ROOT
ATOM      1  C   UNL     1      34.556 -19.992 -20.726  0.00  0.00    +0.062 C 
ATOM      2  C   UNL     1      35.398 -21.703 -19.241  0.00  0.00    +0.000 C 
ATOM      3  C   UNL     1      35.621 -20.589 -20.051  0.00  0.00    +0.007 C 
ATOM      4  C   UNL     1      33.268 -20.510 -20.591  0.00  0.00    +0.010 C 
ATOM      5  C   UNL     1      34.110 -22.220 -19.107  0.00  0.00    -0.003 C 
ATOM      6  C   UNL     1      33.045 -21.623 -19.780  0.00  0.00    +0.000 C 
ENDROOT
BRANCH   1  12
ATOM      7  N   UNL     1      34.719 -19.043 -22.891  0.00  0.00    -0.212 NA
ATOM      8  N   UNL     1      35.045 -17.682 -20.929  0.00  0.00    -0.190 NA
ATOM      9  C   UNL     1      35.215 -16.698 -23.119  0.00  0.00    +0.161 C 
ATOM     10  C   UNL     1      34.940 -17.945 -23.643  0.00  0.00    +0.201 C 
ATOM     11  C   UNL     1      35.255 -16.626 -21.741  0.00  0.00    +0.144 C 
ATOM     12  C   UNL     1      34.786 -18.843 -21.562  0.00  0.00    +0.031 C 
BRANCH   9  13
ATOM     13  O   UNL     1      35.434 -15.602 -23.916  0.00  0.00    -0.476 OA
BRANCH  13  14
ATOM     14  C   UNL     1      34.293 -14.933 -24.418  0.00  0.00    +0.205 C 
BRANCH  14  16
ATOM     15  N   UNL     1      32.248 -11.515 -22.746  0.00  0.00    +0.386 N 
ATOM     16  C   UNL     1      34.010 -13.723 -23.533  0.00  0.00    +0.040 C 
ATOM     17  C   UNL     1      32.745 -13.938 -22.694  0.00  0.00    -0.019 C 
ATOM     18  C   UNL     1      33.864 -12.448 -24.371  0.00  0.00    -0.019 C 
ATOM     19  C   UNL     1      32.399 -12.691 -21.878  0.00  0.00    -0.077 C 
ATOM     20  C   UNL     1      33.481 -11.250 -23.499  0.00  0.00    -0.077 C 
ATOM     21  C   UNL     1      31.866 -10.343 -21.958  0.00  0.00    -0.101 C 
ATOM     22  H   UNL     1      31.506 -11.713 -23.417  0.00  0.00    -0.080 HD
ENDBRANCH  14  16
ENDBRANCH  13  14
ENDBRANCH   9  13
ENDBRANCH   1  12
BRANCH   2  23
ATOM     23  C   UNL     1      36.537 -22.342 -18.520  0.00  0.00    +0.146 C 
BRANCH  23  25
ATOM     24  O   UNL     1      38.363 -22.152 -16.319  0.00  0.00    -0.268 OA
ATOM     25  N   UNL     1      36.229 -22.603 -17.124  0.00  0.00    -0.173 N 
ATOM     26  N   UNL     1      34.940 -22.981 -16.884  0.00  0.00    -0.175 NA
ATOM     27  C   UNL     1      34.594 -23.238 -15.663  0.00  0.00    +0.099 C 
ATOM     28  C   UNL     1      37.191 -22.479 -16.132  0.00  0.00    +0.268 C 
ATOM     29  C   UNL     1      35.494 -23.127 -14.499  0.00  0.00    +0.025 C 
ATOM     30  C   UNL     1      36.749 -22.759 -14.750  0.00  0.00    +0.061 C 
BRANCH  27  31
ATOM     31  C   UNL     1      33.194 -23.656 -15.389  0.00  0.00    +0.020 C 
ATOM     32  C   UNL     1      32.144 -23.108 -16.126  0.00  0.00    +0.012 C 
ATOM     33  C   UNL     1      32.930 -24.599 -14.394  0.00  0.00    +0.002 C 
ATOM     34  C   UNL     1      30.831 -23.502 -15.868  0.00  0.00    +0.068 C 
ATOM     35  C   UNL     1      31.617 -24.993 -14.136  0.00  0.00    +0.001 C 
ATOM     36  C   UNL     1      30.567 -24.444 -14.873  0.00  0.00    +0.010 C 
BRANCH  34  38
ATOM     37  N   UNL     1      28.881 -22.484 -17.234  0.00  0.00    -0.191 NA
ATOM     38  C   UNL     1      29.755 -22.940 -16.622  0.00  0.00    +0.100 C 
ENDBRANCH  34  38
ENDBRANCH  27  31
ENDBRANCH  23  25
ENDBRANCH   2  23
TORSDOF 8
ENDMDL
MODEL 4
REMARK VINA RESULT:     -14.0      1.018      1.822
REMARK  Name = 25171648
REMARK  8 active torsions:
REMARK  status: ('A' for Active; 'I' for Inactive)
REMARK    1  A    between atoms: C_1  and  C_12
REMARK    2  A    between atoms: C_2  and  C_23
REMARK    3  A    between atoms: C_9  and  O_13
REMARK    4  A    between atoms: O_13  and  C_14
REMARK    5  A    between atoms: C_14  and  C_16
REMARK    6  A    between atoms: C_23  and  N_25
REMARK    7  A    between atoms: C_27  and  C_31
REMARK    8  A    between atoms: C_34  and  C_38
REMARK                            x       y       z     vdW  Elec       q    Type
REMARK                         _______ _______ _______ _____ _____    ______ ____
ROOT
ATOM      1  C   UNL     1      32.898 -13.033 -21.975  0.00  0.00    +0.062 C 
ATOM      2  C   UNL     1      34.335 -14.945 -22.321  0.00  0.00    +0.000 C 
ATOM      3  C   UNL     1      33.911 -13.668 -22.692  0.00  0.00    +0.007 C 
ATOM      4  C   UNL     1      32.307 -13.675 -20.886  0.00  0.00    +0.010 C 
ATOM      5  C   UNL     1      33.744 -15.586 -21.232  0.00  0.00    -0.003 C 
ATOM      6  C   UNL     1      32.731 -14.951 -20.514  0.00  0.00    +0.000 C 
ENDROOT
BRANCH   1  12
ATOM      7  N   UNL     1      33.231 -11.063 -23.248  0.00  0.00    -0.212 NA
ATOM      8  N   UNL     1      31.325 -11.269 -21.788  0.00  0.00    -0.190 NA
ATOM      9  C   UNL     1      31.646  -9.259 -23.073  0.00  0.00    +0.161 C 
ATOM     10  C   UNL     1      32.792  -9.832 -23.585  0.00  0.00    +0.201 C 
ATOM     11  C   UNL     1      30.945 -10.032 -22.170  0.00  0.00    +0.144 C 
ATOM     12  C   UNL     1      32.461 -11.716 -22.358  0.00  0.00    +0.031 C 
BRANCH   9  13
ATOM     13  O   UNL     1      31.229  -8.003 -23.439  0.00  0.00    -0.476 OA
BRANCH  13  14
ATOM     14  C   UNL     1      31.617  -6.928 -22.606  0.00  0.00    +0.205 C 
BRANCH  14  16
ATOM     15  N   UNL     1      32.804  -4.724 -26.127  0.00  0.00    +0.386 N 
ATOM     16  C   UNL     1      32.251  -5.845 -23.474  0.00  0.00    +0.040 C 
ATOM     17  C   UNL     1      31.187  -5.103 -24.292  0.00  0.00    -0.019 C 
ATOM     18  C   UNL     1      33.306  -6.437 -24.413  0.00  0.00    -0.019 C 
ATOM     19  C   UNL     1      31.824  -4.083 -25.239  0.00  0.00    -0.077 C 
ATOM     20  C   UNL     1      33.873  -5.373 -25.356  0.00  0.00    -0.077 C 
ATOM     21  C   UNL     1      33.365  -3.747 -27.059  0.00  0.00    -0.101 C 
ATOM     22  H   UNL     1      32.319  -5.445 -26.661  0.00  0.00    -0.080 HD
ENDBRANCH  14  16
ENDBRANCH  13  14
ENDBRANCH   9  13
ENDBRANCH   1  12
BRANCH   2  23
ATOM     23  C   UNL     1      35.418 -15.624 -23.088  0.00  0.00    +0.146 C 
BRANCH  23  25
ATOM     24  O   UNL     1      35.128 -16.711 -25.724  0.00  0.00    -0.268 OA
ATOM     25  N   UNL     1      35.082 -16.999 -23.418  0.00  0.00    -0.173 N 
ATOM     26  N   UNL     1      34.885 -17.814 -22.340  0.00  0.00    -0.175 NA
ATOM     27  C   UNL     1      34.575 -19.052 -22.557  0.00  0.00    +0.099 C 
ATOM     28  C   UNL     1      34.968 -17.425 -24.734  0.00  0.00    +0.268 C 
ATOM     29  C   UNL     1      34.442 -19.657 -23.896  0.00  0.00    +0.025 C 
ATOM     30  C   UNL     1      34.635 -18.850 -24.937  0.00  0.00    +0.061 C 
BRANCH  27  31
ATOM     31  C   UNL     1      34.352 -19.948 -21.392  0.00  0.00    +0.020 C 
ATOM     32  C   UNL     1      35.439 -20.420 -20.656  0.00  0.00    +0.012 C 
ATOM     33  C   UNL     1      33.055 -20.317 -21.034  0.00  0.00    +0.002 C 
ATOM     34  C   UNL     1      35.228 -21.260 -19.563  0.00  0.00    +0.068 C 
ATOM     35  C   UNL     1      32.844 -21.157 -19.941  0.00  0.00    +0.001 C 
ATOM     36  C   UNL     1      33.931 -21.629 -19.205  0.00  0.00    +0.010 C 
BRANCH  34  38
ATOM     37  N   UNL     1      37.246 -22.138 -18.196  0.00  0.00    -0.191 NA
ATOM     38  C   UNL     1      36.342 -21.745 -18.808  0.00  0.00    +0.100 C 
ENDBRANCH  34  38
ENDBRANCH  27  31
ENDBRANCH  23  25
ENDBRANCH   2  23
TORSDOF 8
ENDMDL
MODEL 5
REMARK VINA RESULT:     -13.9      4.200      8.899
REMARK  Name = 25171648
REMARK  8 active torsions:
REMARK  status: ('A' for Active; 'I' for Inactive)
REMARK    1  A    between atoms: C_1  and  C_12
REMARK    2  A    between atoms: C_2  and  C_23
REMARK    3  A    between atoms: C_9  and  O_13
REMARK    4  A    between atoms: O_13  and  C_14
REMARK    5  A    between atoms: C_14  and  C_16
REMARK    6  A    between atoms: C_23  and  N_25
REMARK    7  A    between atoms: C_27  and  C_31
REMARK    8  A    between atoms: C_34  and  C_38
REMARK                            x       y       z     vdW  Elec       q    Type
REMARK                         _______ _______ _______ _____ _____    ______ ____
ROOT
ATOM      1  C   UNL     1      35.379 -20.314 -20.485  0.00  0.00    +0.062 C 
ATOM      2  C   UNL     1      34.526 -22.199 -19.236  0.00  0.00    +0.000 C 
ATOM      3  C   UNL     1      34.326 -21.166 -20.153  0.00  0.00    +0.007 C 
ATOM      4  C   UNL     1      36.632 -20.495 -19.899  0.00  0.00    +0.010 C 
ATOM      5  C   UNL     1      35.779 -22.378 -18.651  0.00  0.00    -0.003 C 
ATOM      6  C   UNL     1      36.832 -21.527 -18.983  0.00  0.00    +0.000 C 
ENDROOT
BRANCH   1  12
ATOM      7  N   UNL     1      34.780 -19.611 -22.667  0.00  0.00    -0.212 NA
ATOM      8  N   UNL     1      35.392 -17.997 -20.985  0.00  0.00    -0.190 NA
ATOM      9  C   UNL     1      34.787 -17.262 -23.196  0.00  0.00    +0.161 C 
ATOM     10  C   UNL     1      34.596 -18.588 -23.527  0.00  0.00    +0.201 C 
ATOM     11  C   UNL     1      35.189 -17.024 -21.897  0.00  0.00    +0.144 C 
ATOM     12  C   UNL     1      35.173 -19.249 -21.431  0.00  0.00    +0.031 C 
BRANCH   9  13
ATOM     13  O   UNL     1      34.589 -16.247 -24.098  0.00  0.00    -0.476 OA
BRANCH  13  14
ATOM     14  C   UNL     1      34.952 -14.942 -23.688  0.00  0.00    +0.205 C 
BRANCH  14  16
ATOM     15  N   UNL     1      32.373 -11.999 -21.860  0.00  0.00    +0.386 N 
ATOM     16  C   UNL     1      33.684 -14.177 -23.321  0.00  0.00    +0.040 C 
ATOM     17  C   UNL     1      33.774 -12.714 -23.769  0.00  0.00    -0.019 C 
ATOM     18  C   UNL     1      33.419 -14.240 -21.813  0.00  0.00    -0.019 C 
ATOM     19  C   UNL     1      32.550 -11.916 -23.317  0.00  0.00    -0.077 C 
ATOM     20  C   UNL     1      32.206 -13.392 -21.425  0.00  0.00    -0.077 C 
ATOM     21  C   UNL     1      31.230 -11.189 -21.437  0.00  0.00    -0.101 C 
ATOM     22  H   UNL     1      33.216 -11.630 -21.420  0.00  0.00    -0.080 HD
ENDBRANCH  14  16
ENDBRANCH  13  14
ENDBRANCH   9  13
ENDBRANCH   1  12
BRANCH   2  23
ATOM     23  C   UNL     1      33.400 -23.110 -18.880  0.00  0.00    +0.146 C 
BRANCH  23  25
ATOM     24  O   UNL     1      31.168 -22.480 -17.196  0.00  0.00    -0.268 OA
ATOM     25  N   UNL     1      33.310 -23.345 -17.449  0.00  0.00    -0.173 N 
ATOM     26  N   UNL     1      34.421 -23.912 -16.892  0.00  0.00    -0.175 NA
ATOM     27  C   UNL     1      34.417 -24.144 -15.619  0.00  0.00    +0.099 C 
ATOM     28  C   UNL     1      32.178 -23.003 -16.725  0.00  0.00    +0.268 C 
ATOM     29  C   UNL     1      33.280 -23.860 -14.722  0.00  0.00    +0.025 C 
ATOM     30  C   UNL     1      32.206 -23.305 -15.278  0.00  0.00    +0.061 C 
BRANCH  27  31
ATOM     31  C   UNL     1      35.622 -24.757 -14.999  0.00  0.00    +0.020 C 
ATOM     32  C   UNL     1      36.347 -24.053 -14.038  0.00  0.00    +0.012 C 
ATOM     33  C   UNL     1      36.026 -26.037 -15.379  0.00  0.00    +0.002 C 
ATOM     34  C   UNL     1      37.478 -24.629 -13.458  0.00  0.00    +0.068 C 
ATOM     35  C   UNL     1      37.156 -26.614 -14.799  0.00  0.00    +0.001 C 
ATOM     36  C   UNL     1      37.882 -25.910 -13.838  0.00  0.00    +0.010 C 
BRANCH  34  38
ATOM     37  N   UNL     1      38.827 -23.323 -11.674  0.00  0.00    -0.191 NA
ATOM     38  C   UNL     1      38.222 -23.908 -12.474  0.00  0.00    +0.100 C 
ENDBRANCH  34  38
ENDBRANCH  27  31
ENDBRANCH  23  25
ENDBRANCH   2  23
TORSDOF 8
ENDMDL
MODEL 6
REMARK VINA RESULT:     -13.9      4.434      9.498
REMARK  Name = 25171648
REMARK  8 active torsions:
REMARK  status: ('A' for Active; 'I' for Inactive)
REMARK    1  A    between atoms: C_1  and  C_12
REMARK    2  A    between atoms: C_2  and  C_23
REMARK    3  A    between atoms: C_9  and  O_13
REMARK    4  A    between atoms: O_13  and  C_14
REMARK    5  A    between atoms: C_14  and  C_16
REMARK    6  A    between atoms: C_23  and  N_25
REMARK    7  A    between atoms: C_27  and  C_31
REMARK    8  A    between atoms: C_34  and  C_38
REMARK                            x       y       z     vdW  Elec       q    Type
REMARK                         _______ _______ _______ _____ _____    ______ ____
ROOT
ATOM      1  C   UNL     1      35.607 -20.812 -20.072  0.00  0.00    +0.062 C 
ATOM      2  C   UNL     1      34.506 -22.458 -18.687  0.00  0.00    +0.000 C 
ATOM      3  C   UNL     1      34.496 -21.610 -19.795  0.00  0.00    +0.007 C 
ATOM      4  C   UNL     1      36.726 -20.862 -19.241  0.00  0.00    +0.010 C 
ATOM      5  C   UNL     1      35.626 -22.508 -17.857  0.00  0.00    -0.003 C 
ATOM      6  C   UNL     1      36.736 -21.710 -18.134  0.00  0.00    +0.000 C 
ENDROOT
BRANCH   1  12
ATOM      7  N   UNL     1      34.543 -20.045 -22.045  0.00  0.00    -0.212 NA
ATOM      8  N   UNL     1      36.642 -19.096 -21.338  0.00  0.00    -0.190 NA
ATOM      9  C   UNL     1      35.577 -18.303 -23.346  0.00  0.00    +0.161 C 
ATOM     10  C   UNL     1      34.566 -19.210 -23.105  0.00  0.00    +0.201 C 
ATOM     11  C   UNL     1      36.600 -18.290 -22.419  0.00  0.00    +0.144 C 
ATOM     12  C   UNL     1      35.596 -19.936 -21.215  0.00  0.00    +0.031 C 
BRANCH   9  13
ATOM     13  O   UNL     1      35.567 -17.468 -24.436  0.00  0.00    -0.476 OA
BRANCH  13  14
ATOM     14  C   UNL     1      34.313 -17.212 -25.039  0.00  0.00    +0.205 C 
BRANCH  14  16
ATOM     15  N   UNL     1      34.294 -12.939 -24.413  0.00  0.00    +0.386 N 
ATOM     16  C   UNL     1      33.838 -15.829 -24.606  0.00  0.00    +0.040 C 
ATOM     17  C   UNL     1      33.701 -14.892 -25.811  0.00  0.00    -0.019 C 
ATOM     18  C   UNL     1      34.794 -15.214 -23.578  0.00  0.00    -0.019 C 
ATOM     19  C   UNL     1      33.322 -13.475 -25.375  0.00  0.00    -0.077 C 
ATOM     20  C   UNL     1      34.378 -13.786 -23.216  0.00  0.00    -0.077 C 
ATOM     21  C   UNL     1      33.946 -11.566 -24.045  0.00  0.00    -0.101 C 
ATOM     22  H   UNL     1      35.210 -12.935 -24.861  0.00  0.00    -0.080 HD
ENDBRANCH  14  16
ENDBRANCH  13  14
ENDBRANCH   9  13
ENDBRANCH   1  12
BRANCH   2  23
ATOM     23  C   UNL     1      33.320 -23.312 -18.390  0.00  0.00    +0.146 C 
BRANCH  23  25
ATOM     24  O   UNL     1      30.869 -22.516 -17.135  0.00  0.00    -0.268 OA
ATOM     25  N   UNL     1      33.024 -23.371 -16.968  0.00  0.00    -0.173 N 
ATOM     26  N   UNL     1      34.041 -23.848 -16.192  0.00  0.00    -0.175 NA
ATOM     27  C   UNL     1      33.852 -23.922 -14.914  0.00  0.00    +0.099 C 
ATOM     28  C   UNL     1      31.799 -22.961 -16.463  0.00  0.00    +0.268 C 
ATOM     29  C   UNL     1      32.599 -23.549 -14.231  0.00  0.00    +0.025 C 
ATOM     30  C   UNL     1      31.617 -23.083 -15.001  0.00  0.00    +0.061 C 
BRANCH  27  31
ATOM     31  C   UNL     1      34.954 -24.435 -14.057  0.00  0.00    +0.020 C 
ATOM     32  C   UNL     1      36.061 -25.054 -14.638  0.00  0.00    +0.012 C 
ATOM     33  C   UNL     1      34.881 -24.296 -12.670  0.00  0.00    +0.002 C 
ATOM     34  C   UNL     1      37.094 -25.534 -13.833  0.00  0.00    +0.068 C 
ATOM     35  C   UNL     1      35.914 -24.777 -11.865  0.00  0.00    +0.001 C 
ATOM     36  C   UNL     1      37.021 -25.395 -12.446  0.00  0.00    +0.010 C 
BRANCH  34  38
ATOM     37  N   UNL     1      39.149 -26.684 -14.911  0.00  0.00    -0.191 NA
ATOM     38  C   UNL     1      38.228 -26.169 -14.427  0.00  0.00    +0.100 C 
ENDBRANCH  34  38
ENDBRANCH  27  31
ENDBRANCH  23  25
ENDBRANCH   2  23
TORSDOF 8
ENDMDL
MODEL 7
REMARK VINA RESULT:     -13.8      1.936     12.710
REMARK  Name = 25171648
REMARK  8 active torsions:
REMARK  status: ('A' for Active; 'I' for Inactive)
REMARK    1  A    between atoms: C_1  and  C_12
REMARK    2  A    between atoms: C_2  and  C_23
REMARK    3  A    between atoms: C_9  and  O_13
REMARK    4  A    between atoms: O_13  and  C_14
REMARK    5  A    between atoms: C_14  and  C_16
REMARK    6  A    between atoms: C_23  and  N_25
REMARK    7  A    between atoms: C_27  and  C_31
REMARK    8  A    between atoms: C_34  and  C_38
REMARK                            x       y       z     vdW  Elec       q    Type
REMARK                         _______ _______ _______ _____ _____    ______ ____
ROOT
ATOM      1  C   UNL     1      33.941 -13.958 -23.012  0.00  0.00    +0.062 C 
ATOM      2  C   UNL     1      32.507 -12.071 -22.544  0.00  0.00    +0.000 C 
ATOM      3  C   UNL     1      33.003 -13.328 -22.194  0.00  0.00    +0.007 C 
ATOM      4  C   UNL     1      34.382 -13.333 -24.178  0.00  0.00    +0.010 C 
ATOM      5  C   UNL     1      32.948 -11.447 -23.710  0.00  0.00    -0.003 C 
ATOM      6  C   UNL     1      33.886 -12.077 -24.527  0.00  0.00    +0.000 C 
ENDROOT
BRANCH   1  12
ATOM      7  N   UNL     1      34.489 -15.543 -21.337  0.00  0.00    -0.212 NA
ATOM      8  N   UNL     1      34.845 -16.050 -23.666  0.00  0.00    -0.190 NA
ATOM      9  C   UNL     1      35.409 -17.673 -21.980  0.00  0.00    +0.161 C 
ATOM     10  C   UNL     1      34.975 -16.765 -21.036  0.00  0.00    +0.201 C 
ATOM     11  C   UNL     1      35.318 -17.257 -23.293  0.00  0.00    +0.144 C 
ATOM     12  C   UNL     1      34.454 -15.255 -22.652  0.00  0.00    +0.031 C 
BRANCH   9  13
ATOM     13  O   UNL     1      35.896 -18.909 -21.637  0.00  0.00    -0.476 OA
BRANCH  13  14
ATOM     14  C   UNL     1      35.010 -20.006 -21.754  0.00  0.00    +0.205 C 
BRANCH  14  16
ATOM     15  N   UNL     1      34.027 -22.771 -18.585  0.00  0.00    +0.386 N 
ATOM     16  C   UNL     1      34.701 -20.534 -20.357  0.00  0.00    +0.040 C 
ATOM     17  C   UNL     1      35.734 -21.579 -19.922  0.00  0.00    -0.019 C 
ATOM     18  C   UNL     1      33.295 -21.140 -20.294  0.00  0.00    -0.019 C 
ATOM     19  C   UNL     1      35.375 -22.186 -18.564  0.00  0.00    -0.077 C 
ATOM     20  C   UNL     1      33.016 -21.761 -18.924  0.00  0.00    -0.077 C 
ATOM     21  C   UNL     1      33.719 -23.392 -17.296  0.00  0.00    -0.101 C 
ATOM     22  H   UNL     1      34.008 -23.490 -19.307  0.00  0.00    -0.080 HD
ENDBRANCH  14  16
ENDBRANCH  13  14
ENDBRANCH   9  13
ENDBRANCH   1  12
BRANCH   2  23
ATOM     23  C   UNL     1      31.504 -11.396 -21.670  0.00  0.00    +0.146 C 
BRANCH  23  25
ATOM     24  O   UNL     1      31.227 -10.177 -19.091  0.00  0.00    -0.268 OA
ATOM     25  N   UNL     1      31.905 -10.046 -21.310  0.00  0.00    -0.173 N 
ATOM     26  N   UNL     1      32.451  -9.321 -22.330  0.00  0.00    -0.175 NA
ATOM     27  C   UNL     1      32.825  -8.106 -22.085  0.00  0.00    +0.099 C 
ATOM     28  C   UNL     1      31.727  -9.552 -20.026  0.00  0.00    +0.268 C 
ATOM     29  C   UNL     1      32.726  -7.451 -20.768  0.00  0.00    +0.025 C 
ATOM     30  C   UNL     1      32.188  -8.169 -19.784  0.00  0.00    +0.061 C 
BRANCH  27  31
ATOM     31  C   UNL     1      33.418  -7.304 -23.189  0.00  0.00    +0.020 C 
ATOM     32  C   UNL     1      32.667  -6.304 -23.807  0.00  0.00    +0.012 C 
ATOM     33  C   UNL     1      34.726  -7.552 -23.606  0.00  0.00    +0.002 C 
ATOM     34  C   UNL     1      33.224  -5.553 -24.841  0.00  0.00    +0.068 C 
ATOM     35  C   UNL     1      35.283  -6.800 -24.640  0.00  0.00    +0.001 C 
ATOM     36  C   UNL     1      34.532  -5.800 -25.258  0.00  0.00    +0.010 C 
BRANCH  34  38
ATOM     37  N   UNL     1      31.829  -3.697 -25.991  0.00  0.00    -0.191 NA
ATOM     38  C   UNL     1      32.454  -4.528 -25.476  0.00  0.00    +0.100 C 
ENDBRANCH  34  38
ENDBRANCH  27  31
ENDBRANCH  23  25
ENDBRANCH   2  23
TORSDOF 8
ENDMDL
MODEL 8
REMARK VINA RESULT:     -13.5      3.797     13.005
REMARK  Name = 25171648
REMARK  8 active torsions:
REMARK  status: ('A' for Active; 'I' for Inactive)
REMARK    1  A    between atoms: C_1  and  C_12
REMARK    2  A    between atoms: C_2  and  C_23
REMARK    3  A    between atoms: C_9  and  O_13
REMARK    4  A    between atoms: O_13  and  C_14
REMARK    5  A    between atoms: C_14  and  C_16
REMARK    6  A    between atoms: C_23  and  N_25
REMARK    7  A    between atoms: C_27  and  C_31
REMARK    8  A    between atoms: C_34  and  C_38
REMARK                            x       y       z     vdW  Elec       q    Type
REMARK                         _______ _______ _______ _____ _____    ______ ____
ROOT
ATOM      1  C   UNL     1      35.881 -20.131 -20.723  0.00  0.00    +0.062 C 
ATOM      2  C   UNL     1      35.303 -18.925 -22.735  0.00  0.00    +0.000 C 
ATOM      3  C   UNL     1      34.960 -19.824 -21.725  0.00  0.00    +0.007 C 
ATOM      4  C   UNL     1      37.144 -19.540 -20.731  0.00  0.00    +0.010 C 
ATOM      5  C   UNL     1      36.566 -18.334 -22.743  0.00  0.00    -0.003 C 
ATOM      6  C   UNL     1      37.486 -18.640 -21.740  0.00  0.00    +0.000 C 
ENDROOT
BRANCH   1  12
ATOM      7  N   UNL     1      34.296 -21.600 -19.750  0.00  0.00    -0.212 NA
ATOM      8  N   UNL     1      36.463 -21.293 -18.740  0.00  0.00    -0.190 NA
ATOM      9  C   UNL     1      34.867 -22.790 -17.736  0.00  0.00    +0.161 C 
ATOM     10  C   UNL     1      33.998 -22.465 -18.758  0.00  0.00    +0.201 C 
ATOM     11  C   UNL     1      36.098 -22.168 -17.780  0.00  0.00    +0.144 C 
ATOM     12  C   UNL     1      35.527 -21.059 -19.680  0.00  0.00    +0.031 C 
BRANCH   9  13
ATOM     13  O   UNL     1      34.530 -23.676 -16.743  0.00  0.00    -0.476 OA
BRANCH  13  14
ATOM     14  C   UNL     1      34.344 -23.146 -15.444  0.00  0.00    +0.205 C 
BRANCH  14  16
ATOM     15  N   UNL     1      30.511 -25.101 -15.069  0.00  0.00    +0.386 N 
ATOM     16  C   UNL     1      32.904 -23.407 -15.014  0.00  0.00    +0.040 C 
ATOM     17  C   UNL     1      32.797 -24.708 -14.209  0.00  0.00    -0.019 C 
ATOM     18  C   UNL     1      31.968 -23.471 -16.226  0.00  0.00    -0.019 C 
ATOM     19  C   UNL     1      31.343 -25.029 -13.859  0.00  0.00    -0.077 C 
ATOM     20  C   UNL     1      30.541 -23.833 -15.809  0.00  0.00    -0.077 C 
ATOM     21  C   UNL     1      29.135 -25.459 -14.722  0.00  0.00    -0.101 C 
ATOM     22  H   UNL     1      30.896 -25.828 -15.672  0.00  0.00    -0.080 HD
ENDBRANCH  14  16
ENDBRANCH  13  14
ENDBRANCH   9  13
ENDBRANCH   1  12
BRANCH   2  23
ATOM     23  C   UNL     1      34.320 -18.596 -23.807  0.00  0.00    +0.146 C 
BRANCH  23  25
ATOM     24  O   UNL     1      35.400 -17.471 -26.211  0.00  0.00    -0.268 OA
ATOM     25  N   UNL     1      34.341 -17.187 -24.163  0.00  0.00    -0.173 N 
ATOM     26  N   UNL     1      33.793 -16.353 -23.230  0.00  0.00    -0.175 NA
ATOM     27  C   UNL     1      33.783 -15.082 -23.475  0.00  0.00    +0.099 C 
ATOM     28  C   UNL     1      34.889 -16.746 -25.358  0.00  0.00    +0.268 C 
ATOM     29  C   UNL     1      34.304 -14.466 -24.710  0.00  0.00    +0.025 C 
ATOM     30  C   UNL     1      34.837 -15.291 -25.608  0.00  0.00    +0.061 C 
BRANCH  27  31
ATOM     31  C   UNL     1      33.194 -14.163 -22.465  0.00  0.00    +0.020 C 
ATOM     32  C   UNL     1      32.758 -12.894 -22.845  0.00  0.00    +0.012 C 
ATOM     33  C   UNL     1      33.075 -14.572 -21.136  0.00  0.00    +0.002 C 
ATOM     34  C   UNL     1      32.205 -12.034 -21.897  0.00  0.00    +0.068 C 
ATOM     35  C   UNL     1      32.522 -13.712 -20.188  0.00  0.00    +0.001 C 
ATOM     36  C   UNL     1      32.087 -12.443 -20.568  0.00  0.00    +0.010 C 
BRANCH  34  38
ATOM     37  N   UNL     1      31.398  -9.676 -22.601  0.00  0.00    -0.191 NA
ATOM     38  C   UNL     1      31.760 -10.732 -22.286  0.00  0.00    +0.100 C 
ENDBRANCH  34  38
ENDBRANCH  27  31
ENDBRANCH  23  25
ENDBRANCH   2  23
TORSDOF 8
ENDMDL
MODEL 9
REMARK VINA RESULT:     -13.5      3.799     13.314
REMARK  Name = 25171648
REMARK  8 active torsions:
REMARK  status: ('A' for Active; 'I' for Inactive)
REMARK    1  A    between atoms: C_1  and  C_12
REMARK    2  A    between atoms: C_2  and  C_23
REMARK    3  A    between atoms: C_9  and  O_13
REMARK    4  A    between atoms: O_13  and  C_14
REMARK    5  A    between atoms: C_14  and  C_16
REMARK    6  A    between atoms: C_23  and  N_25
REMARK    7  A    between atoms: C_27  and  C_31
REMARK    8  A    between atoms: C_34  and  C_38
REMARK                            x       y       z     vdW  Elec       q    Type
REMARK                         _______ _______ _______ _____ _____    ______ ____
ROOT
ATOM      1  C   UNL     1      35.835 -20.147 -20.718  0.00  0.00    +0.062 C 
ATOM      2  C   UNL     1      35.296 -18.931 -22.735  0.00  0.00    +0.000 C 
ATOM      3  C   UNL     1      34.933 -19.834 -21.735  0.00  0.00    +0.007 C 
ATOM      4  C   UNL     1      37.099 -19.557 -20.701  0.00  0.00    +0.010 C 
ATOM      5  C   UNL     1      36.560 -18.341 -22.717  0.00  0.00    -0.003 C 
ATOM      6  C   UNL     1      37.461 -18.653 -21.699  0.00  0.00    +0.000 C 
ENDROOT
BRANCH   1  12
ATOM      7  N   UNL     1      36.383 -21.328 -18.738  0.00  0.00    -0.212 NA
ATOM      8  N   UNL     1      34.225 -21.608 -19.773  0.00  0.00    -0.190 NA
ATOM      9  C   UNL     1      34.762 -22.817 -17.762  0.00  0.00    +0.161 C 
ATOM     10  C   UNL     1      35.999 -22.205 -17.787  0.00  0.00    +0.201 C 
ATOM     11  C   UNL     1      33.907 -22.476 -18.791  0.00  0.00    +0.144 C 
ATOM     12  C   UNL     1      35.461 -21.079 -19.686  0.00  0.00    +0.031 C 
BRANCH   9  13
ATOM     13  O   UNL     1      34.405 -23.705 -16.778  0.00  0.00    -0.476 OA
BRANCH  13  14
ATOM     14  C   UNL     1      34.326 -23.204 -15.457  0.00  0.00    +0.205 C 
BRANCH  14  16
ATOM     15  N   UNL     1      38.017 -25.019 -14.138  0.00  0.00    +0.386 N 
ATOM     16  C   UNL     1      35.314 -23.973 -14.585  0.00  0.00    +0.040 C 
ATOM     17  C   UNL     1      36.484 -23.078 -14.159  0.00  0.00    -0.019 C 
ATOM     18  C   UNL     1      35.849 -25.209 -15.315  0.00  0.00    -0.019 C 
ATOM     19  C   UNL     1      37.530 -23.866 -13.369  0.00  0.00    -0.077 C 
ATOM     20  C   UNL     1      36.916 -25.928 -14.486  0.00  0.00    -0.077 C 
ATOM     21  C   UNL     1      39.052 -25.733 -13.390  0.00  0.00    -0.101 C 
ATOM     22  H   UNL     1      38.422 -24.669 -15.006  0.00  0.00    -0.080 HD
ENDBRANCH  14  16
ENDBRANCH  13  14
ENDBRANCH   9  13
ENDBRANCH   1  12
BRANCH   2  23
ATOM     23  C   UNL     1      34.332 -18.596 -23.823  0.00  0.00    +0.146 C 
BRANCH  23  25
ATOM     24  O   UNL     1      35.438 -17.457 -26.209  0.00  0.00    -0.268 OA
ATOM     25  N   UNL     1      34.359 -17.185 -24.169  0.00  0.00    -0.173 N 
ATOM     26  N   UNL     1      33.802 -16.357 -23.236  0.00  0.00    -0.175 NA
ATOM     27  C   UNL     1      33.796 -15.084 -23.473  0.00  0.00    +0.099 C 
ATOM     28  C   UNL     1      34.919 -16.737 -25.356  0.00  0.00    +0.268 C 
ATOM     29  C   UNL     1      34.330 -14.460 -24.698  0.00  0.00    +0.025 C 
ATOM     30  C   UNL     1      34.871 -15.279 -25.597  0.00  0.00    +0.061 C 
BRANCH  27  31
ATOM     31  C   UNL     1      33.197 -14.172 -22.462  0.00  0.00    +0.020 C 
ATOM     32  C   UNL     1      32.769 -12.899 -22.838  0.00  0.00    +0.012 C 
ATOM     33  C   UNL     1      33.063 -14.590 -21.138  0.00  0.00    +0.002 C 
ATOM     34  C   UNL     1      32.207 -12.044 -21.890  0.00  0.00    +0.068 C 
ATOM     35  C   UNL     1      32.501 -13.736 -20.189  0.00  0.00    +0.001 C 
ATOM     36  C   UNL     1      32.073 -12.462 -20.565  0.00  0.00    +0.010 C 
BRANCH  34  38
ATOM     37  N   UNL     1      31.413  -9.679 -22.586  0.00  0.00    -0.191 NA
ATOM     38  C   UNL     1      31.769 -10.739 -22.274  0.00  0.00    +0.100 C 
ENDBRANCH  34  38
ENDBRANCH  27  31
ENDBRANCH  23  25
ENDBRANCH   2  23
TORSDOF 8
ENDMDL
