MODEL 1
REMARK VINA RESULT:     -13.7      0.000      0.000
REMARK  Name = 15985904
REMARK  7 active torsions:
REMARK  status: ('A' for Active; 'I' for Inactive)
REMARK    1  A    between atoms: N_1  and  S_6
REMARK    2  A    between atoms: C_4  and  C_21
REMARK    3  A    between atoms: S_6  and  C_9
REMARK    4  A    between atoms: C_10  and  C_17
REMARK    5  A    between atoms: C_22  and  C_25
REMARK    6  A    between atoms: N_24  and  C_27
REMARK    7  A    between atoms: C_28  and  N_33
REMARK                            x       y       z     vdW  Elec       q    Type
REMARK                         _______ _______ _______ _____ _____    ______ ____
ROOT
ATOM      1  N   UNL     1      35.220 -19.781 -21.407  0.00  0.00    -0.167 N 
ATOM      2  C   UNL     1      35.882 -20.542 -20.535  0.00  0.00    +0.089 C 
ATOM      3  C   UNL     1      33.893 -19.863 -21.309  0.00  0.00    +0.089 C 
ATOM      4  C   UNL     1      34.912 -21.181 -19.794  0.00  0.00    +0.018 C 
ATOM      5  C   UNL     1      33.654 -20.752 -20.284  0.00  0.00    +0.019 C 
ENDROOT
BRANCH   1   6
ATOM      6  S   UNL     1      36.015 -18.776 -22.567  0.00  0.00    +0.080 S 
ATOM      7  O   UNL     1      35.734 -19.448 -23.824  0.00  0.00    -0.149 OA
ATOM      8  O   UNL     1      37.365 -18.588 -22.070  0.00  0.00    -0.149 OA
BRANCH   6   9
ATOM      9  C   UNL     1      35.189 -17.239 -22.502  0.00  0.00    +0.126 C 
ATOM     10  C   UNL     1      33.870 -14.783 -22.396  0.00  0.00    +0.003 C 
ATOM     11  C   UNL     1      34.786 -16.613 -23.681  0.00  0.00    +0.020 C 
ATOM     12  C   UNL     1      34.932 -16.637 -21.270  0.00  0.00    +0.020 C 
ATOM     13  C   UNL     1      34.127 -15.385 -23.628  0.00  0.00    +0.001 C 
ATOM     14  C   UNL     1      34.273 -15.409 -21.217  0.00  0.00    +0.001 C 
BRANCH  10  17
ATOM     15  N   UNL     1      31.892 -11.905 -21.671  0.00  0.00    -0.208 N 
ATOM     16  N   UNL     1      32.449 -11.412 -22.790  0.00  0.00    -0.176 NA
ATOM     17  C   UNL     1      33.192 -13.519 -22.343  0.00  0.00    +0.037 C 
ATOM     18  C   UNL     1      32.305 -13.166 -21.358  0.00  0.00    +0.086 C 
ATOM     19  C   UNL     1      33.243 -12.406 -23.196  0.00  0.00    +0.119 C 
ATOM     20  C   UNL     1      30.952 -11.102 -20.926  0.00  0.00    +0.140 C 
ENDBRANCH  10  17
ENDBRANCH   6   9
ENDBRANCH   1   6
BRANCH   4  21
ATOM     21  C   UNL     1      35.162 -22.091 -18.746  0.00  0.00    +0.006 C 
ATOM     22  C   UNL     1      36.089 -22.001 -17.750  0.00  0.00    +0.058 C 
BRANCH  22  25
ATOM     23  O   UNL     1      35.300 -23.839 -16.463  0.00  0.00    -0.270 OA
ATOM     24  N   UNL     1      37.474 -23.026 -16.110  0.00  0.00    -0.279 N 
ATOM     25  C   UNL     1      36.221 -23.067 -16.706  0.00  0.00    +0.250 C 
ATOM     26  H   UNL     1      38.091 -22.330 -16.437  0.00  0.00    +0.155 HD
BRANCH  24  27
ATOM     27  C   UNL     1      37.966 -23.872 -15.086  0.00  0.00    +0.064 C 
ATOM     28  C   UNL     1      37.346 -23.905 -13.847  0.00  0.00    +0.055 C 
ATOM     29  C   UNL     1      39.075 -24.657 -15.358  0.00  0.00    +0.016 C 
ATOM     30  C   UNL     1      37.849 -24.745 -12.854  0.00  0.00    +0.015 C 
ATOM     31  C   UNL     1      39.577 -25.497 -14.365  0.00  0.00    +0.001 C 
ATOM     32  C   UNL     1      38.965 -25.541 -13.113  0.00  0.00    +0.001 C 
BRANCH  28  33
ATOM     33  N   UNL     1      36.214 -23.109 -13.563  0.00  0.00    -0.356 N 
ATOM     34  H   UNL     1      35.351 -23.537 -13.358  0.00  0.00    +0.142 HD
ATOM     35  H   UNL     1      36.288 -22.128 -13.569  0.00  0.00    +0.142 HD
ENDBRANCH  28  33
ENDBRANCH  24  27
ENDBRANCH  22  25
ENDBRANCH   4  21
TORSDOF 7
ENDMDL
MODEL 2
REMARK VINA RESULT:     -13.0      2.630     12.111
REMARK  Name = 15985904
REMARK  7 active torsions:
REMARK  status: ('A' for Active; 'I' for Inactive)
REMARK    1  A    between atoms: N_1  and  S_6
REMARK    2  A    between atoms: C_4  and  C_21
REMARK    3  A    between atoms: S_6  and  C_9
REMARK    4  A    between atoms: C_10  and  C_17
REMARK    5  A    between atoms: C_22  and  C_25
REMARK    6  A    between atoms: N_24  and  C_27
REMARK    7  A    between atoms: C_28  and  N_33
REMARK                            x       y       z     vdW  Elec       q    Type
REMARK                         _______ _______ _______ _____ _____    ______ ____
ROOT
ATOM      1  N   UNL     1      34.947 -17.113 -22.287  0.00  0.00    -0.167 N 
ATOM      2  C   UNL     1      34.725 -16.065 -23.080  0.00  0.00    +0.089 C 
ATOM      3  C   UNL     1      34.868 -16.841 -20.984  0.00  0.00    +0.089 C 
ATOM      4  C   UNL     1      34.475 -15.008 -22.232  0.00  0.00    +0.018 C 
ATOM      5  C   UNL     1      34.566 -15.499 -20.906  0.00  0.00    +0.019 C 
ENDROOT
BRANCH   1   6
ATOM      6  S   UNL     1      35.310 -18.690 -22.895  0.00  0.00    +0.080 S 
ATOM      7  O   UNL     1      36.715 -18.588 -23.244  0.00  0.00    -0.149 OA
ATOM      8  O   UNL     1      34.283 -18.982 -23.878  0.00  0.00    -0.149 OA
BRANCH   6   9
ATOM      9  C   UNL     1      35.096 -19.775 -21.544  0.00  0.00    +0.126 C 
ATOM     10  C   UNL     1      34.755 -21.508 -19.384  0.00  0.00    +0.003 C 
ATOM     11  C   UNL     1      33.813 -20.148 -21.145  0.00  0.00    +0.020 C 
ATOM     12  C   UNL     1      36.209 -20.270 -20.863  0.00  0.00    +0.020 C 
ATOM     13  C   UNL     1      33.642 -21.014 -20.065  0.00  0.00    +0.001 C 
ATOM     14  C   UNL     1      36.039 -21.135 -19.784  0.00  0.00    +0.001 C 
BRANCH  10  17
ATOM     15  N   UNL     1      34.953 -23.477 -16.416  0.00  0.00    -0.208 N 
ATOM     16  N   UNL     1      33.753 -23.937 -16.809  0.00  0.00    -0.176 NA
ATOM     17  C   UNL     1      34.579 -22.399 -18.273  0.00  0.00    +0.037 C 
ATOM     18  C   UNL     1      35.492 -22.551 -17.260  0.00  0.00    +0.086 C 
ATOM     19  C   UNL     1      33.531 -23.273 -17.946  0.00  0.00    +0.119 C 
ATOM     20  C   UNL     1      35.545 -23.971 -15.196  0.00  0.00    +0.140 C 
ENDBRANCH  10  17
ENDBRANCH   6   9
ENDBRANCH   1   6
BRANCH   4  21
ATOM     21  C   UNL     1      34.185 -13.691 -22.644  0.00  0.00    +0.006 C 
ATOM     22  C   UNL     1      33.089 -12.935 -22.352  0.00  0.00    +0.058 C 
BRANCH  22  25
ATOM     23  O   UNL     1      33.346 -11.229 -23.988  0.00  0.00    -0.270 OA
ATOM     24  N   UNL     1      32.304 -10.726 -21.946  0.00  0.00    -0.279 N 
ATOM     25  C   UNL     1      32.938 -11.540 -22.875  0.00  0.00    +0.250 C 
ATOM     26  H   UNL     1      32.045 -11.153 -21.096  0.00  0.00    +0.155 HD
BRANCH  24  27
ATOM     27  C   UNL     1      31.988  -9.352 -22.081  0.00  0.00    +0.064 C 
ATOM     28  C   UNL     1      32.258  -8.467 -21.050  0.00  0.00    +0.055 C 
ATOM     29  C   UNL     1      31.407  -8.925 -23.265  0.00  0.00    +0.016 C 
ATOM     30  C   UNL     1      31.938  -7.118 -21.207  0.00  0.00    +0.015 C 
ATOM     31  C   UNL     1      31.087  -7.577 -23.421  0.00  0.00    +0.001 C 
ATOM     32  C   UNL     1      31.352  -6.673 -22.392  0.00  0.00    +0.001 C 
BRANCH  28  33
ATOM     33  N   UNL     1      32.851  -8.894 -19.842  0.00  0.00    -0.356 N 
ATOM     34  H   UNL     1      33.498  -8.313 -19.380  0.00  0.00    +0.142 HD
ATOM     35  H   UNL     1      32.619  -9.771 -19.462  0.00  0.00    +0.142 HD
ENDBRANCH  28  33
ENDBRANCH  24  27
ENDBRANCH  22  25
ENDBRANCH   4  21
TORSDOF 7
ENDMDL
MODEL 3
REMARK VINA RESULT:     -12.6      2.112      3.133
REMARK  Name = 15985904
REMARK  7 active torsions:
REMARK  status: ('A' for Active; 'I' for Inactive)
REMARK    1  A    between atoms: N_1  and  S_6
REMARK    2  A    between atoms: C_4  and  C_21
REMARK    3  A    between atoms: S_6  and  C_9
REMARK    4  A    between atoms: C_10  and  C_17
REMARK    5  A    between atoms: C_22  and  C_25
REMARK    6  A    between atoms: N_24  and  C_27
REMARK    7  A    between atoms: C_28  and  N_33
REMARK                            x       y       z     vdW  Elec       q    Type
REMARK                         _______ _______ _______ _____ _____    ______ ____
ROOT
ATOM      1  N   UNL     1      35.118 -18.062 -23.589  0.00  0.00    -0.167 N 
ATOM      2  C   UNL     1      34.459 -19.024 -22.944  0.00  0.00    +0.089 C 
ATOM      3  C   UNL     1      36.339 -17.819 -23.111  0.00  0.00    +0.089 C 
ATOM      4  C   UNL     1      35.314 -19.457 -21.955  0.00  0.00    +0.018 C 
ATOM      5  C   UNL     1      36.504 -18.694 -22.061  0.00  0.00    +0.019 C 
ENDROOT
BRANCH   1   6
ATOM      6  S   UNL     1      34.447 -17.202 -24.930  0.00  0.00    +0.080 S 
ATOM      7  O   UNL     1      33.317 -18.029 -25.313  0.00  0.00    -0.149 OA
ATOM      8  O   UNL     1      35.557 -16.937 -25.827  0.00  0.00    -0.149 OA
BRANCH   6   9
ATOM      9  C   UNL     1      33.894 -15.678 -24.281  0.00  0.00    +0.126 C 
ATOM     10  C   UNL     1      33.011 -13.243 -23.245  0.00  0.00    +0.003 C 
ATOM     11  C   UNL     1      33.293 -14.740 -25.120  0.00  0.00    +0.020 C 
ATOM     12  C   UNL     1      34.053 -15.399 -22.924  0.00  0.00    +0.020 C 
ATOM     13  C   UNL     1      32.852 -13.522 -24.602  0.00  0.00    +0.001 C 
ATOM     14  C   UNL     1      33.611 -14.181 -22.406  0.00  0.00    +0.001 C 
BRANCH  10  17
ATOM     15  N   UNL     1      32.279  -9.846 -22.438  0.00  0.00    -0.208 N 
ATOM     16  N   UNL     1      31.529 -10.385 -21.462  0.00  0.00    -0.176 NA
ATOM     17  C   UNL     1      32.557 -11.989 -22.712  0.00  0.00    +0.037 C 
ATOM     18  C   UNL     1      32.917 -10.767 -23.217  0.00  0.00    +0.086 C 
ATOM     19  C   UNL     1      31.704 -11.697 -21.637  0.00  0.00    +0.119 C 
ATOM     20  C   UNL     1      32.347  -8.411 -22.580  0.00  0.00    +0.140 C 
ENDBRANCH  10  17
ENDBRANCH   6   9
ENDBRANCH   1   6
BRANCH   4  21
ATOM     21  C   UNL     1      35.026 -20.477 -21.024  0.00  0.00    +0.006 C 
ATOM     22  C   UNL     1      35.861 -21.048 -20.109  0.00  0.00    +0.058 C 
BRANCH  22  25
ATOM     23  O   UNL     1      34.623 -23.006 -19.572  0.00  0.00    -0.270 OA
ATOM     24  N   UNL     1      35.930 -21.972 -17.919  0.00  0.00    -0.279 N 
ATOM     25  C   UNL     1      35.389 -22.129 -19.187  0.00  0.00    +0.250 C 
ATOM     26  H   UNL     1      36.531 -21.202 -17.792  0.00  0.00    +0.155 HD
BRANCH  24  27
ATOM     27  C   UNL     1      35.716 -22.795 -16.785  0.00  0.00    +0.064 C 
ATOM     28  C   UNL     1      36.788 -23.237 -16.028  0.00  0.00    +0.055 C 
ATOM     29  C   UNL     1      34.414 -23.140 -16.461  0.00  0.00    +0.016 C 
ATOM     30  C   UNL     1      36.553 -24.046 -14.917  0.00  0.00    +0.015 C 
ATOM     31  C   UNL     1      34.178 -23.949 -15.350  0.00  0.00    +0.001 C 
ATOM     32  C   UNL     1      35.247 -24.403 -14.578  0.00  0.00    +0.001 C 
BRANCH  28  33
ATOM     33  N   UNL     1      38.118 -22.887 -16.351  0.00  0.00    -0.356 N 
ATOM     34  H   UNL     1      38.584 -23.350 -17.085  0.00  0.00    +0.142 HD
ATOM     35  H   UNL     1      38.579 -22.181 -15.844  0.00  0.00    +0.142 HD
ENDBRANCH  28  33
ENDBRANCH  24  27
ENDBRANCH  22  25
ENDBRANCH   4  21
TORSDOF 7
ENDMDL
MODEL 4
REMARK VINA RESULT:     -12.4      2.628     11.505
REMARK  Name = 15985904
REMARK  7 active torsions:
REMARK  status: ('A' for Active; 'I' for Inactive)
REMARK    1  A    between atoms: N_1  and  S_6
REMARK    2  A    between atoms: C_4  and  C_21
REMARK    3  A    between atoms: S_6  and  C_9
REMARK    4  A    between atoms: C_10  and  C_17
REMARK    5  A    between atoms: C_22  and  C_25
REMARK    6  A    between atoms: N_24  and  C_27
REMARK    7  A    between atoms: C_28  and  N_33
REMARK                            x       y       z     vdW  Elec       q    Type
REMARK                         _______ _______ _______ _____ _____    ______ ____
ROOT
ATOM      1  N   UNL     1      34.736 -21.372 -20.047  0.00  0.00    -0.167 N 
ATOM      2  C   UNL     1      34.216 -20.568 -20.975  0.00  0.00    +0.089 C 
ATOM      3  C   UNL     1      36.027 -21.155 -19.796  0.00  0.00    +0.089 C 
ATOM      4  C   UNL     1      35.249 -19.749 -21.374  0.00  0.00    +0.018 C 
ATOM      5  C   UNL     1      36.395 -20.121 -20.628  0.00  0.00    +0.019 C 
ENDROOT
BRANCH   1   6
ATOM      6  S   UNL     1      33.815 -22.590 -19.238  0.00  0.00    +0.080 S 
ATOM      7  O   UNL     1      34.045 -23.767 -20.057  0.00  0.00    -0.149 OA
ATOM      8  O   UNL     1      32.493 -22.025 -19.042  0.00  0.00    -0.149 OA
BRANCH   6   9
ATOM      9  C   UNL     1      34.564 -22.783 -17.672  0.00  0.00    +0.126 C 
ATOM     10  C   UNL     1      35.760 -23.090 -15.171  0.00  0.00    +0.003 C 
ATOM     11  C   UNL     1      33.847 -23.357 -16.622  0.00  0.00    +0.020 C 
ATOM     12  C   UNL     1      35.879 -22.364 -17.471  0.00  0.00    +0.020 C 
ATOM     13  C   UNL     1      34.445 -23.510 -15.372  0.00  0.00    +0.001 C 
ATOM     14  C   UNL     1      36.477 -22.517 -16.221  0.00  0.00    +0.001 C 
BRANCH  10  17
ATOM     15  N   UNL     1      36.637 -23.676 -11.763  0.00  0.00    -0.208 N 
ATOM     16  N   UNL     1      37.867 -23.310 -12.162  0.00  0.00    -0.176 NA
ATOM     17  C   UNL     1      36.375 -23.248 -13.883  0.00  0.00    +0.037 C 
ATOM     18  C   UNL     1      35.705 -23.656 -12.759  0.00  0.00    +0.086 C 
ATOM     19  C   UNL     1      37.699 -23.050 -13.461  0.00  0.00    +0.119 C 
ATOM     20  C   UNL     1      36.411 -24.044 -10.386  0.00  0.00    +0.140 C 
ENDBRANCH  10  17
ENDBRANCH   6   9
ENDBRANCH   1   6
BRANCH   4  21
ATOM     21  C   UNL     1      35.149 -18.735 -22.349  0.00  0.00    +0.006 C 
ATOM     22  C   UNL     1      34.747 -18.846 -23.647  0.00  0.00    +0.058 C 
BRANCH  22  25
ATOM     23  O   UNL     1      35.041 -17.736 -25.729  0.00  0.00    -0.270 OA
ATOM     24  N   UNL     1      34.232 -16.536 -23.881  0.00  0.00    -0.279 N 
ATOM     25  C   UNL     1      34.698 -17.657 -24.555  0.00  0.00    +0.250 C 
ATOM     26  H   UNL     1      34.003 -16.661 -22.931  0.00  0.00    +0.155 HD
BRANCH  24  27
ATOM     27  C   UNL     1      34.050 -15.232 -24.405  0.00  0.00    +0.064 C 
ATOM     28  C   UNL     1      34.282 -14.120 -23.612  0.00  0.00    +0.055 C 
ATOM     29  C   UNL     1      33.637 -15.105 -25.722  0.00  0.00    +0.016 C 
ATOM     30  C   UNL     1      34.096 -12.847 -24.150  0.00  0.00    +0.015 C 
ATOM     31  C   UNL     1      33.451 -13.832 -26.260  0.00  0.00    +0.001 C 
ATOM     32  C   UNL     1      33.680 -12.703 -25.474  0.00  0.00    +0.001 C 
BRANCH  28  33
ATOM     33  N   UNL     1      34.705 -14.241 -22.270  0.00  0.00    -0.356 N 
ATOM     34  H   UNL     1      34.820 -15.134 -21.870  0.00  0.00    +0.142 HD
ATOM     35  H   UNL     1      34.886 -13.435 -21.736  0.00  0.00    +0.142 HD
ENDBRANCH  28  33
ENDBRANCH  24  27
ENDBRANCH  22  25
ENDBRANCH   4  21
TORSDOF 7
ENDMDL
MODEL 5
REMARK VINA RESULT:     -12.4      4.331      9.995
REMARK  Name = 15985904
REMARK  7 active torsions:
REMARK  status: ('A' for Active; 'I' for Inactive)
REMARK    1  A    between atoms: N_1  and  S_6
REMARK    2  A    between atoms: C_4  and  C_21
REMARK    3  A    between atoms: S_6  and  C_9
REMARK    4  A    between atoms: C_10  and  C_17
REMARK    5  A    between atoms: C_22  and  C_25
REMARK    6  A    between atoms: N_24  and  C_27
REMARK    7  A    between atoms: C_28  and  N_33
REMARK                            x       y       z     vdW  Elec       q    Type
REMARK                         _______ _______ _______ _____ _____    ______ ____
ROOT
ATOM      1  N   UNL     1      36.260 -23.484 -15.833  0.00  0.00    -0.167 N 
ATOM      2  C   UNL     1      35.879 -22.800 -16.911  0.00  0.00    +0.089 C 
ATOM      3  C   UNL     1      37.484 -23.185 -15.398  0.00  0.00    +0.089 C 
ATOM      4  C   UNL     1      36.939 -21.975 -17.217  0.00  0.00    +0.018 C 
ATOM      5  C   UNL     1      37.955 -22.219 -16.259  0.00  0.00    +0.019 C 
ENDROOT
BRANCH   1   6
ATOM      6  S   UNL     1      35.253 -24.661 -15.064  0.00  0.00    +0.080 S 
ATOM      7  O   UNL     1      35.599 -24.517 -13.662  0.00  0.00    -0.149 OA
ATOM      8  O   UNL     1      35.461 -25.898 -15.794  0.00  0.00    -0.149 OA
BRANCH   6   9
ATOM      9  C   UNL     1      33.613 -24.131 -15.344  0.00  0.00    +0.126 C 
ATOM     10  C   UNL     1      30.993 -23.285 -15.791  0.00  0.00    +0.003 C 
ATOM     11  C   UNL     1      32.665 -24.232 -14.327  0.00  0.00    +0.020 C 
ATOM     12  C   UNL     1      33.251 -23.607 -16.585  0.00  0.00    +0.020 C 
ATOM     13  C   UNL     1      31.355 -23.809 -14.550  0.00  0.00    +0.001 C 
ATOM     14  C   UNL     1      31.941 -23.184 -16.809  0.00  0.00    +0.001 C 
BRANCH  10  17
ATOM     15  N   UNL     1      27.762 -22.418 -17.030  0.00  0.00    -0.208 N 
ATOM     16  N   UNL     1      27.539 -22.017 -15.767  0.00  0.00    -0.176 NA
ATOM     17  C   UNL     1      29.644 -22.850 -16.021  0.00  0.00    +0.037 C 
ATOM     18  C   UNL     1      29.011 -22.926 -17.235  0.00  0.00    +0.086 C 
ATOM     19  C   UNL     1      28.695 -22.285 -15.156  0.00  0.00    +0.119 C 
ATOM     20  C   UNL     1      26.718 -22.287 -18.018  0.00  0.00    +0.140 C 
ENDBRANCH  10  17
ENDBRANCH   6   9
ENDBRANCH   1   6
BRANCH   4  21
ATOM     21  C   UNL     1      36.974 -21.066 -18.295  0.00  0.00    +0.006 C 
ATOM     22  C   UNL     1      36.405 -21.192 -19.527  0.00  0.00    +0.058 C 
BRANCH  22  25
ATOM     23  O   UNL     1      37.569 -19.464 -20.673  0.00  0.00    -0.270 OA
ATOM     24  N   UNL     1      35.380 -20.012 -21.321  0.00  0.00    -0.279 N 
ATOM     25  C   UNL     1      36.540 -20.121 -20.564  0.00  0.00    +0.250 C 
ATOM     26  H   UNL     1      34.648 -20.629 -21.088  0.00  0.00    +0.155 HD
BRANCH  24  27
ATOM     27  C   UNL     1      35.132 -19.115 -22.388  0.00  0.00    +0.064 C 
ATOM     28  C   UNL     1      35.123 -17.748 -22.167  0.00  0.00    +0.055 C 
ATOM     29  C   UNL     1      34.900 -19.642 -23.649  0.00  0.00    +0.016 C 
ATOM     30  C   UNL     1      34.876 -16.884 -23.234  0.00  0.00    +0.015 C 
ATOM     31  C   UNL     1      34.653 -18.779 -24.716  0.00  0.00    +0.001 C 
ATOM     32  C   UNL     1      34.640 -17.400 -24.508  0.00  0.00    +0.001 C 
BRANCH  28  33
ATOM     33  N   UNL     1      35.360 -17.203 -20.885  0.00  0.00    -0.356 N 
ATOM     34  H   UNL     1      36.189 -17.426 -20.402  0.00  0.00    +0.142 HD
ATOM     35  H   UNL     1      34.699 -16.600 -20.476  0.00  0.00    +0.142 HD
ENDBRANCH  28  33
ENDBRANCH  24  27
ENDBRANCH  22  25
ENDBRANCH   4  21
TORSDOF 7
ENDMDL
MODEL 6
REMARK VINA RESULT:     -12.4      2.825     11.583
REMARK  Name = 15985904
REMARK  7 active torsions:
REMARK  status: ('A' for Active; 'I' for Inactive)
REMARK    1  A    between atoms: N_1  and  S_6
REMARK    2  A    between atoms: C_4  and  C_21
REMARK    3  A    between atoms: S_6  and  C_9
REMARK    4  A    between atoms: C_10  and  C_17
REMARK    5  A    between atoms: C_22  and  C_25
REMARK    6  A    between atoms: N_24  and  C_27
REMARK    7  A    between atoms: C_28  and  N_33
REMARK                            x       y       z     vdW  Elec       q    Type
REMARK                         _______ _______ _______ _____ _____    ______ ____
ROOT
ATOM      1  N   UNL     1      34.760 -21.378 -20.066  0.00  0.00    -0.167 N 
ATOM      2  C   UNL     1      34.256 -20.524 -20.957  0.00  0.00    +0.089 C 
ATOM      3  C   UNL     1      36.059 -21.207 -19.817  0.00  0.00    +0.089 C 
ATOM      4  C   UNL     1      35.309 -19.718 -21.331  0.00  0.00    +0.018 C 
ATOM      5  C   UNL     1      36.449 -20.151 -20.609  0.00  0.00    +0.019 C 
ENDROOT
BRANCH   1   6
ATOM      6  S   UNL     1      33.811 -22.603 -19.298  0.00  0.00    +0.080 S 
ATOM      7  O   UNL     1      34.072 -23.774 -20.116  0.00  0.00    -0.149 OA
ATOM      8  O   UNL     1      32.483 -22.039 -19.148  0.00  0.00    -0.149 OA
BRANCH   6   9
ATOM      9  C   UNL     1      34.502 -22.804 -17.708  0.00  0.00    +0.126 C 
ATOM     10  C   UNL     1      35.606 -23.128 -15.166  0.00  0.00    +0.003 C 
ATOM     11  C   UNL     1      35.810 -22.389 -17.457  0.00  0.00    +0.020 C 
ATOM     12  C   UNL     1      33.747 -23.382 -16.687  0.00  0.00    +0.020 C 
ATOM     13  C   UNL     1      36.362 -22.551 -16.187  0.00  0.00    +0.001 C 
ATOM     14  C   UNL     1      34.299 -23.544 -15.417  0.00  0.00    +0.001 C 
BRANCH  10  17
ATOM     15  N   UNL     1      36.373 -23.784 -11.745  0.00  0.00    -0.208 N 
ATOM     16  N   UNL     1      37.594 -23.328 -12.076  0.00  0.00    -0.176 NA
ATOM     17  C   UNL     1      36.175 -23.295 -13.858  0.00  0.00    +0.037 C 
ATOM     18  C   UNL     1      35.485 -23.785 -12.780  0.00  0.00    +0.086 C 
ATOM     19  C   UNL     1      37.464 -23.031 -13.371  0.00  0.00    +0.119 C 
ATOM     20  C   UNL     1      36.113 -24.216 -10.392  0.00  0.00    +0.140 C 
ENDBRANCH  10  17
ENDBRANCH   6   9
ENDBRANCH   1   6
BRANCH   4  21
ATOM     21  C   UNL     1      35.230 -18.663 -22.264  0.00  0.00    +0.006 C 
ATOM     22  C   UNL     1      34.862 -18.720 -23.575  0.00  0.00    +0.058 C 
BRANCH  22  25
ATOM     23  O   UNL     1      35.307 -17.492 -25.562  0.00  0.00    -0.270 OA
ATOM     24  N   UNL     1      34.218 -16.438 -23.770  0.00  0.00    -0.279 N 
ATOM     25  C   UNL     1      34.832 -17.492 -24.432  0.00  0.00    +0.250 C 
ATOM     26  H   UNL     1      33.894 -16.624 -22.858  0.00  0.00    +0.155 HD
BRANCH  24  27
ATOM     27  C   UNL     1      34.006 -15.125 -24.256  0.00  0.00    +0.064 C 
ATOM     28  C   UNL     1      33.315 -14.919 -25.440  0.00  0.00    +0.055 C 
ATOM     29  C   UNL     1      34.504 -14.062 -23.519  0.00  0.00    +0.016 C 
ATOM     30  C   UNL     1      33.119 -13.617 -25.898  0.00  0.00    +0.015 C 
ATOM     31  C   UNL     1      34.307 -12.760 -23.978  0.00  0.00    +0.001 C 
ATOM     32  C   UNL     1      33.615 -12.537 -25.168  0.00  0.00    +0.001 C 
BRANCH  28  33
ATOM     33  N   UNL     1      32.803 -15.997 -26.195  0.00  0.00    -0.356 N 
ATOM     34  H   UNL     1      32.090 -15.839 -26.856  0.00  0.00    +0.142 HD
ATOM     35  H   UNL     1      33.158 -16.905 -26.062  0.00  0.00    +0.142 HD
ENDBRANCH  28  33
ENDBRANCH  24  27
ENDBRANCH  22  25
ENDBRANCH   4  21
TORSDOF 7
ENDMDL
MODEL 7
REMARK VINA RESULT:     -12.3      2.838      3.636
REMARK  Name = 15985904
REMARK  7 active torsions:
REMARK  status: ('A' for Active; 'I' for Inactive)
REMARK    1  A    between atoms: N_1  and  S_6
REMARK    2  A    between atoms: C_4  and  C_21
REMARK    3  A    between atoms: S_6  and  C_9
REMARK    4  A    between atoms: C_10  and  C_17
REMARK    5  A    between atoms: C_22  and  C_25
REMARK    6  A    between atoms: N_24  and  C_27
REMARK    7  A    between atoms: C_28  and  N_33
REMARK                            x       y       z     vdW  Elec       q    Type
REMARK                         _______ _______ _______ _____ _____    ______ ____
ROOT
ATOM      1  N   UNL     1      35.951 -19.598 -21.618  0.00  0.00    -0.167 N 
ATOM      2  C   UNL     1      34.919 -20.397 -21.348  0.00  0.00    +0.089 C 
ATOM      3  C   UNL     1      36.909 -19.606 -20.691  0.00  0.00    +0.089 C 
ATOM      4  C   UNL     1      35.218 -20.987 -20.139  0.00  0.00    +0.018 C 
ATOM      5  C   UNL     1      36.477 -20.486 -19.723  0.00  0.00    +0.019 C 
ENDROOT
BRANCH   1   6
ATOM      6  S   UNL     1      36.040 -18.632 -23.049  0.00  0.00    +0.080 S 
ATOM      7  O   UNL     1      35.308 -19.424 -24.020  0.00  0.00    -0.149 OA
ATOM      8  O   UNL     1      37.442 -18.297 -23.216  0.00  0.00    -0.149 OA
BRANCH   6   9
ATOM      9  C   UNL     1      35.168 -17.165 -22.680  0.00  0.00    +0.126 C 
ATOM     10  C   UNL     1      33.776 -14.820 -22.090  0.00  0.00    +0.003 C 
ATOM     11  C   UNL     1      34.647 -16.385 -23.712  0.00  0.00    +0.020 C 
ATOM     12  C   UNL     1      34.993 -16.772 -21.353  0.00  0.00    +0.020 C 
ATOM     13  C   UNL     1      33.951 -15.213 -23.417  0.00  0.00    +0.001 C 
ATOM     14  C   UNL     1      34.297 -15.600 -21.058  0.00  0.00    +0.001 C 
BRANCH  10  17
ATOM     15  N   UNL     1      32.147 -11.647 -22.010  0.00  0.00    -0.208 N 
ATOM     16  N   UNL     1      31.863 -11.982 -20.739  0.00  0.00    -0.176 NA
ATOM     17  C   UNL     1      33.060 -13.613 -21.787  0.00  0.00    +0.037 C 
ATOM     18  C   UNL     1      32.864 -12.593 -22.682  0.00  0.00    +0.086 C 
ATOM     19  C   UNL     1      32.425 -13.186 -20.611  0.00  0.00    +0.119 C 
ATOM     20  C   UNL     1      31.695 -10.382 -22.536  0.00  0.00    +0.140 C 
ENDBRANCH  10  17
ENDBRANCH   6   9
ENDBRANCH   1   6
BRANCH   4  21
ATOM     21  C   UNL     1      34.397 -21.916 -19.466  0.00  0.00    +0.006 C 
ATOM     22  C   UNL     1      34.587 -22.479 -18.239  0.00  0.00    +0.058 C 
BRANCH  22  25
ATOM     23  O   UNL     1      33.299 -24.478 -18.272  0.00  0.00    -0.270 OA
ATOM     24  N   UNL     1      33.146 -23.032 -16.429  0.00  0.00    -0.279 N 
ATOM     25  C   UNL     1      33.607 -23.457 -17.668  0.00  0.00    +0.250 C 
ATOM     26  H   UNL     1      33.507 -22.178 -16.097  0.00  0.00    +0.155 HD
BRANCH  24  27
ATOM     27  C   UNL     1      32.214 -23.689 -15.587  0.00  0.00    +0.064 C 
ATOM     28  C   UNL     1      32.654 -24.524 -14.573  0.00  0.00    +0.055 C 
ATOM     29  C   UNL     1      30.864 -23.472 -15.808  0.00  0.00    +0.016 C 
ATOM     30  C   UNL     1      31.718 -25.159 -13.757  0.00  0.00    +0.015 C 
ATOM     31  C   UNL     1      29.928 -24.108 -14.992  0.00  0.00    +0.001 C 
ATOM     32  C   UNL     1      30.355 -24.952 -13.967  0.00  0.00    +0.001 C 
BRANCH  28  33
ATOM     33  N   UNL     1      34.029 -24.747 -14.341  0.00  0.00    -0.356 N 
ATOM     34  H   UNL     1      34.554 -25.285 -14.977  0.00  0.00    +0.142 HD
ATOM     35  H   UNL     1      34.463 -24.366 -13.544  0.00  0.00    +0.142 HD
ENDBRANCH  28  33
ENDBRANCH  24  27
ENDBRANCH  22  25
ENDBRANCH   4  21
TORSDOF 7
ENDMDL
MODEL 8
REMARK VINA RESULT:     -12.2      5.073      8.772
REMARK  Name = 15985904
REMARK  7 active torsions:
REMARK  status: ('A' for Active; 'I' for Inactive)
REMARK    1  A    between atoms: N_1  and  S_6
REMARK    2  A    between atoms: C_4  and  C_21
REMARK    3  A    between atoms: S_6  and  C_9
REMARK    4  A    between atoms: C_10  and  C_17
REMARK    5  A    between atoms: C_22  and  C_25
REMARK    6  A    between atoms: N_24  and  C_27
REMARK    7  A    between atoms: C_28  and  N_33
REMARK                            x       y       z     vdW  Elec       q    Type
REMARK                         _______ _______ _______ _____ _____    ______ ____
ROOT
ATOM      1  N   UNL     1      32.686 -11.875 -22.470  0.00  0.00    -0.167 N 
ATOM      2  C   UNL     1      32.758 -13.121 -22.003  0.00  0.00    +0.089 C 
ATOM      3  C   UNL     1      33.361 -11.673 -23.601  0.00  0.00    +0.089 C 
ATOM      4  C   UNL     1      33.548 -13.805 -22.901  0.00  0.00    +0.018 C 
ATOM      5  C   UNL     1      33.930 -12.888 -23.912  0.00  0.00    +0.019 C 
ENDROOT
BRANCH   1   6
ATOM      6  S   UNL     1      31.793 -10.626 -21.675  0.00  0.00    +0.080 S 
ATOM      7  O   UNL     1      32.432 -10.548 -20.374  0.00  0.00    -0.149 OA
ATOM      8  O   UNL     1      30.394 -10.976 -21.835  0.00  0.00    -0.149 OA
BRANCH   6   9
ATOM      9  C   UNL     1      32.100  -9.172 -22.592  0.00  0.00    +0.126 C 
ATOM     10  C   UNL     1      32.590  -6.849 -24.057  0.00  0.00    +0.003 C 
ATOM     11  C   UNL     1      33.337  -8.535 -22.495  0.00  0.00    +0.020 C 
ATOM     12  C   UNL     1      31.109  -8.648 -23.422  0.00  0.00    +0.020 C 
ATOM     13  C   UNL     1      33.582  -7.373 -23.227  0.00  0.00    +0.001 C 
ATOM     14  C   UNL     1      31.354  -7.486 -24.154  0.00  0.00    +0.001 C 
BRANCH  10  17
ATOM     15  N   UNL     1      32.659  -3.621 -25.573  0.00  0.00    -0.208 N 
ATOM     16  N   UNL     1      33.718  -4.110 -26.241  0.00  0.00    -0.176 NA
ATOM     17  C   UNL     1      32.843  -5.653 -24.810  0.00  0.00    +0.037 C 
ATOM     18  C   UNL     1      32.098  -4.507 -24.701  0.00  0.00    +0.086 C 
ATOM     19  C   UNL     1      33.824  -5.354 -25.768  0.00  0.00    +0.119 C 
ATOM     20  C   UNL     1      32.222  -2.267 -25.817  0.00  0.00    +0.140 C 
ENDBRANCH  10  17
ENDBRANCH   6   9
ENDBRANCH   1   6
BRANCH   4  21
ATOM     21  C   UNL     1      33.894 -15.169 -22.802  0.00  0.00    +0.006 C 
ATOM     22  C   UNL     1      34.971 -15.810 -23.337  0.00  0.00    +0.058 C 
BRANCH  22  25
ATOM     23  O   UNL     1      35.441 -18.022 -24.073  0.00  0.00    -0.270 OA
ATOM     24  N   UNL     1      35.066 -17.615 -21.791  0.00  0.00    -0.279 N 
ATOM     25  C   UNL     1      35.190 -17.277 -23.132  0.00  0.00    +0.250 C 
ATOM     26  H   UNL     1      34.858 -16.878 -21.172  0.00  0.00    +0.155 HD
BRANCH  24  27
ATOM     27  C   UNL     1      35.203 -18.901 -21.214  0.00  0.00    +0.064 C 
ATOM     28  C   UNL     1      36.460 -19.409 -20.925  0.00  0.00    +0.055 C 
ATOM     29  C   UNL     1      34.054 -19.629 -20.948  0.00  0.00    +0.016 C 
ATOM     30  C   UNL     1      36.570 -20.677 -20.356  0.00  0.00    +0.015 C 
ATOM     31  C   UNL     1      34.164 -20.897 -20.380  0.00  0.00    +0.001 C 
ATOM     32  C   UNL     1      35.422 -21.422 -20.084  0.00  0.00    +0.001 C 
BRANCH  28  33
ATOM     33  N   UNL     1      37.635 -18.673 -21.190  0.00  0.00    -0.356 N 
ATOM     34  H   UNL     1      37.626 -17.959 -21.870  0.00  0.00    +0.142 HD
ATOM     35  H   UNL     1      38.463 -18.872 -20.697  0.00  0.00    +0.142 HD
ENDBRANCH  28  33
ENDBRANCH  24  27
ENDBRANCH  22  25
ENDBRANCH   4  21
TORSDOF 7
ENDMDL
MODEL 9
REMARK VINA RESULT:     -11.5      6.751     11.188
REMARK  Name = 15985904
REMARK  7 active torsions:
REMARK  status: ('A' for Active; 'I' for Inactive)
REMARK    1  A    between atoms: N_1  and  S_6
REMARK    2  A    between atoms: C_4  and  C_21
REMARK    3  A    between atoms: S_6  and  C_9
REMARK    4  A    between atoms: C_10  and  C_17
REMARK    5  A    between atoms: C_22  and  C_25
REMARK    6  A    between atoms: N_24  and  C_27
REMARK    7  A    between atoms: C_28  and  N_33
REMARK                            x       y       z     vdW  Elec       q    Type
REMARK                         _______ _______ _______ _____ _____    ______ ____
ROOT
ATOM      1  N   UNL     1      31.983  -8.774 -22.007  0.00  0.00    -0.167 N 
ATOM      2  C   UNL     1      32.693  -9.854 -21.682  0.00  0.00    +0.089 C 
ATOM      3  C   UNL     1      30.840  -9.039 -22.641  0.00  0.00    +0.089 C 
ATOM      4  C   UNL     1      31.959 -10.927 -22.137  0.00  0.00    +0.018 C 
ATOM      5  C   UNL     1      30.787 -10.412 -22.745  0.00  0.00    +0.019 C 
ENDROOT
BRANCH   1   6
ATOM      6  S   UNL     1      32.499  -7.165 -21.640  0.00  0.00    +0.080 S 
ATOM      7  O   UNL     1      33.559  -7.379 -20.671  0.00  0.00    -0.149 OA
ATOM      8  O   UNL     1      31.293  -6.424 -21.323  0.00  0.00    -0.149 OA
BRANCH   6   9
ATOM      9  C   UNL     1      33.155  -6.531 -23.128  0.00  0.00    +0.126 C 
ATOM     10  C   UNL     1      34.204  -5.516 -25.506  0.00  0.00    +0.003 C 
ATOM     11  C   UNL     1      34.415  -6.939 -23.565  0.00  0.00    +0.020 C 
ATOM     12  C   UNL     1      32.419  -5.615 -23.881  0.00  0.00    +0.020 C 
ATOM     13  C   UNL     1      34.940  -6.432 -24.753  0.00  0.00    +0.001 C 
ATOM     14  C   UNL     1      32.944  -5.108 -25.069  0.00  0.00    +0.001 C 
BRANCH  10  17
ATOM     15  N   UNL     1      34.871  -4.043 -28.685  0.00  0.00    -0.208 N 
ATOM     16  N   UNL     1      36.145  -4.375 -28.416  0.00  0.00    -0.176 NA
ATOM     17  C   UNL     1      34.744  -4.994 -26.730  0.00  0.00    +0.037 C 
ATOM     18  C   UNL     1      33.990  -4.392 -27.704  0.00  0.00    +0.086 C 
ATOM     19  C   UNL     1      36.059  -4.956 -27.217  0.00  0.00    +0.119 C 
ATOM     20  C   UNL     1      34.551  -3.376 -29.925  0.00  0.00    +0.140 C 
ENDBRANCH  10  17
ENDBRANCH   6   9
ENDBRANCH   1   6
BRANCH   4  21
ATOM     21  C   UNL     1      32.336 -12.280 -22.006  0.00  0.00    +0.006 C 
ATOM     22  C   UNL     1      32.398 -13.035 -20.872  0.00  0.00    +0.058 C 
BRANCH  22  25
ATOM     23  O   UNL     1      32.308 -15.307 -20.176  0.00  0.00    -0.270 OA
ATOM     24  N   UNL     1      33.822 -14.669 -21.853  0.00  0.00    -0.279 N 
ATOM     25  C   UNL     1      32.822 -14.470 -20.911  0.00  0.00    +0.250 C 
ATOM     26  H   UNL     1      34.113 -13.872 -22.355  0.00  0.00    +0.155 HD
BRANCH  24  27
ATOM     27  C   UNL     1      34.472 -15.886 -22.173  0.00  0.00    +0.064 C 
ATOM     28  C   UNL     1      34.594 -16.288 -23.494  0.00  0.00    +0.055 C 
ATOM     29  C   UNL     1      34.976 -16.654 -21.136  0.00  0.00    +0.016 C 
ATOM     30  C   UNL     1      35.238 -17.490 -23.785  0.00  0.00    +0.015 C 
ATOM     31  C   UNL     1      35.619 -17.857 -21.427  0.00  0.00    +0.001 C 
ATOM     32  C   UNL     1      35.750 -18.275 -22.752  0.00  0.00    +0.001 C 
BRANCH  28  33
ATOM     33  N   UNL     1      34.085 -15.508 -24.556  0.00  0.00    -0.356 N 
ATOM     34  H   UNL     1      33.117 -15.341 -24.623  0.00  0.00    +0.142 HD
ATOM     35  H   UNL     1      34.697 -15.132 -25.228  0.00  0.00    +0.142 HD
ENDBRANCH  28  33
ENDBRANCH  24  27
ENDBRANCH  22  25
ENDBRANCH   4  21
TORSDOF 7
ENDMDL
