MODEL 1
REMARK VINA RESULT:     -15.2      0.000      0.000
REMARK  Name = 16741238
REMARK  6 active torsions:
REMARK  status: ('A' for Active; 'I' for Inactive)
REMARK    1  A    between atoms: N_1  and  C_22
REMARK    2  A    between atoms: C_10  and  C_15
REMARK    3  A    between atoms: C_15  and  C_16
REMARK    4  A    between atoms: C_22  and  C_23
REMARK    5  A    between atoms: C_23  and  C_26
REMARK    6  A    between atoms: N_25  and  C_28
REMARK                            x       y       z     vdW  Elec       q    Type
REMARK                         _______ _______ _______ _____ _____    ______ ____
ROOT
ATOM      1  N   UNL     1      34.041 -13.931 -24.769  0.00  0.00    -0.249 N 
ATOM      2  N   UNL     1      33.943 -15.965 -26.049  0.00  0.00    -0.373 NA
ATOM      3  N   UNL     1      33.213 -13.975 -26.975  0.00  0.00    -0.321 N 
ATOM      4  C   UNL     1      34.616 -14.568 -23.582  0.00  0.00    +0.071 C 
ATOM      5  C   UNL     1      34.825 -16.046 -23.759  0.00  0.00    +0.045 C 
ATOM      6  C   UNL     1      33.747 -14.675 -25.916  0.00  0.00    +0.239 C 
ATOM      7  C   UNL     1      34.485 -16.674 -24.966  0.00  0.00    +0.136 C 
ATOM      8  C   UNL     1      35.364 -16.802 -22.709  0.00  0.00    +0.007 C 
ATOM      9  C   UNL     1      34.692 -18.052 -25.103  0.00  0.00    +0.032 C 
ATOM     10  C   UNL     1      35.565 -18.174 -22.855  0.00  0.00    +0.039 C 
ATOM     11  C   UNL     1      35.229 -18.799 -24.054  0.00  0.00    +0.006 C 
ATOM     12  H   UNL     1      33.060 -13.005 -26.897  0.00  0.00    +0.146 HD
ATOM     13  H   UNL     1      32.986 -14.443 -27.810  0.00  0.00    +0.146 HD
ENDROOT
BRANCH  10  15
ATOM     14  O   UNL     1      37.316 -18.815 -21.443  0.00  0.00    -0.287 OA
ATOM     15  C   UNL     1      36.124 -18.950 -21.761  0.00  0.00    +0.196 C 
BRANCH  15  16
ATOM     16  C   UNL     1      35.312 -19.928 -20.976  0.00  0.00    +0.039 C 
ATOM     17  C   UNL     1      33.919 -19.855 -20.998  0.00  0.00    +0.003 C 
ATOM     18  C   UNL     1      35.946 -20.915 -20.221  0.00  0.00    +0.003 C 
ATOM     19  C   UNL     1      33.161 -20.768 -20.266  0.00  0.00    +0.000 C 
ATOM     20  C   UNL     1      35.188 -21.828 -19.490  0.00  0.00    +0.000 C 
ATOM     21  C   UNL     1      33.795 -21.755 -19.512  0.00  0.00    +0.000 C 
ENDBRANCH  15  16
ENDBRANCH  10  15
BRANCH   1  22
ATOM     22  C   UNL     1      33.813 -12.495 -24.652  0.00  0.00    +0.109 C 
BRANCH  22  23
ATOM     23  C   UNL     1      33.162 -12.165 -23.311  0.00  0.00    +0.107 C 
BRANCH  23  26
ATOM     24  O   UNL     1      33.776  -9.860 -23.581  0.00  0.00    -0.275 OA
ATOM     25  N   UNL     1      31.958 -10.294 -22.210  0.00  0.00    -0.279 N 
ATOM     26  C   UNL     1      33.007 -10.669 -23.056  0.00  0.00    +0.227 C 
ATOM     27  C   UNL     1      31.058 -11.270 -21.598  0.00  0.00    +0.115 C 
BRANCH  25  28
ATOM     28  C   UNL     1      31.686  -8.916 -21.878  0.00  0.00    +0.075 C 
ATOM     29  C   UNL     1      31.451  -8.096 -23.148  0.00  0.00    +0.020 C 
ATOM     30  C   UNL     1      32.821  -8.328 -21.036  0.00  0.00    +0.020 C 
ATOM     31  C   UNL     1      31.213  -6.621 -22.831  0.00  0.00    +0.002 C 
ATOM     32  C   UNL     1      32.580  -6.853 -20.719  0.00  0.00    +0.002 C 
ATOM     33  C   UNL     1      32.343  -6.038 -21.987  0.00  0.00    +0.000 C 
ENDBRANCH  25  28
ENDBRANCH  23  26
ENDBRANCH  22  23
ENDBRANCH   1  22
TORSDOF 6
ENDMDL
MODEL 2
REMARK VINA RESULT:     -13.6      2.421     10.726
REMARK  Name = 16741238
REMARK  6 active torsions:
REMARK  status: ('A' for Active; 'I' for Inactive)
REMARK    1  A    between atoms: N_1  and  C_22
REMARK    2  A    between atoms: C_10  and  C_15
REMARK    3  A    between atoms: C_15  and  C_16
REMARK    4  A    between atoms: C_22  and  C_23
REMARK    5  A    between atoms: C_23  and  C_26
REMARK    6  A    between atoms: N_25  and  C_28
REMARK                            x       y       z     vdW  Elec       q    Type
REMARK                         _______ _______ _______ _____ _____    ______ ____
ROOT
ATOM      1  N   UNL     1      32.781 -13.397 -22.676  0.00  0.00    -0.249 N 
ATOM      2  N   UNL     1      31.966 -12.487 -20.605  0.00  0.00    -0.373 NA
ATOM      3  N   UNL     1      32.309 -14.765 -20.816  0.00  0.00    -0.321 N 
ATOM      4  C   UNL     1      32.861 -12.100 -23.351  0.00  0.00    +0.071 C 
ATOM      5  C   UNL     1      32.420 -10.961 -22.474  0.00  0.00    +0.045 C 
ATOM      6  C   UNL     1      32.341 -13.496 -21.353  0.00  0.00    +0.239 C 
ATOM      7  C   UNL     1      31.998 -11.197 -21.158  0.00  0.00    +0.136 C 
ATOM      8  C   UNL     1      32.434  -9.653 -22.977  0.00  0.00    +0.007 C 
ATOM      9  C   UNL     1      31.595 -10.117 -20.364  0.00  0.00    +0.032 C 
ATOM     10  C   UNL     1      32.029  -8.584 -22.178  0.00  0.00    +0.039 C 
ATOM     11  C   UNL     1      31.610  -8.816 -20.870  0.00  0.00    +0.006 C 
ATOM     12  H   UNL     1      32.588 -15.537 -21.359  0.00  0.00    +0.146 HD
ATOM     13  H   UNL     1      32.008 -14.899 -19.888  0.00  0.00    +0.146 HD
ENDROOT
BRANCH  10  15
ATOM     14  O   UNL     1      31.184  -6.410 -22.356  0.00  0.00    -0.287 OA
ATOM     15  C   UNL     1      32.046  -7.231 -22.708  0.00  0.00    +0.196 C 
BRANCH  15  16
ATOM     16  C   UNL     1      33.079  -6.764 -23.681  0.00  0.00    +0.039 C 
ATOM     17  C   UNL     1      34.409  -7.151 -23.526  0.00  0.00    +0.003 C 
ATOM     18  C   UNL     1      32.712  -5.941 -24.747  0.00  0.00    +0.003 C 
ATOM     19  C   UNL     1      35.373  -6.717 -24.435  0.00  0.00    +0.000 C 
ATOM     20  C   UNL     1      33.676  -5.507 -25.656  0.00  0.00    +0.000 C 
ATOM     21  C   UNL     1      35.007  -5.894 -25.499  0.00  0.00    +0.000 C 
ENDBRANCH  15  16
ENDBRANCH  10  15
BRANCH   1  22
ATOM     22  C   UNL     1      33.193 -14.541 -23.483  0.00  0.00    +0.109 C 
BRANCH  22  23
ATOM     23  C   UNL     1      34.675 -14.838 -23.271  0.00  0.00    +0.107 C 
BRANCH  23  26
ATOM     24  O   UNL     1      35.044 -15.355 -20.955  0.00  0.00    -0.275 OA
ATOM     25  N   UNL     1      35.082 -17.139 -22.434  0.00  0.00    -0.279 N 
ATOM     26  C   UNL     1      34.950 -15.786 -22.108  0.00  0.00    +0.227 C 
ATOM     27  C   UNL     1      34.967 -17.630 -23.806  0.00  0.00    +0.115 C 
BRANCH  25  28
ATOM     28  C   UNL     1      35.341 -18.154 -21.440  0.00  0.00    +0.075 C 
ATOM     29  C   UNL     1      36.785 -18.649 -21.544  0.00  0.00    +0.020 C 
ATOM     30  C   UNL     1      34.344 -19.309 -21.572  0.00  0.00    +0.020 C 
ATOM     31  C   UNL     1      37.073 -19.762 -20.539  0.00  0.00    +0.002 C 
ATOM     32  C   UNL     1      34.635 -20.420 -20.566  0.00  0.00    +0.002 C 
ATOM     33  C   UNL     1      36.076 -20.910 -20.670  0.00  0.00    +0.000 C 
ENDBRANCH  25  28
ENDBRANCH  23  26
ENDBRANCH  22  23
ENDBRANCH   1  22
TORSDOF 6
ENDMDL
MODEL 3
REMARK VINA RESULT:     -13.3      2.943     11.537
REMARK  Name = 16741238
REMARK  6 active torsions:
REMARK  status: ('A' for Active; 'I' for Inactive)
REMARK    1  A    between atoms: N_1  and  C_22
REMARK    2  A    between atoms: C_10  and  C_15
REMARK    3  A    between atoms: C_15  and  C_16
REMARK    4  A    between atoms: C_22  and  C_23
REMARK    5  A    between atoms: C_23  and  C_26
REMARK    6  A    between atoms: N_25  and  C_28
REMARK                            x       y       z     vdW  Elec       q    Type
REMARK                         _______ _______ _______ _____ _____    ______ ____
ROOT
ATOM      1  N   UNL     1      31.719 -10.369 -20.926  0.00  0.00    -0.249 N 
ATOM      2  N   UNL     1      32.092  -8.351 -19.671  0.00  0.00    -0.373 NA
ATOM      3  N   UNL     1      32.033 -10.396 -18.590  0.00  0.00    -0.321 N 
ATOM      4  C   UNL     1      31.617  -9.686 -22.217  0.00  0.00    +0.071 C 
ATOM      5  C   UNL     1      31.778  -8.196 -22.101  0.00  0.00    +0.045 C 
ATOM      6  C   UNL     1      31.950  -9.653 -19.748  0.00  0.00    +0.239 C 
ATOM      7  C   UNL     1      32.005  -7.600 -20.854  0.00  0.00    +0.136 C 
ATOM      8  C   UNL     1      31.700  -7.398 -23.252  0.00  0.00    +0.007 C 
ATOM      9  C   UNL     1      32.153  -6.209 -20.776  0.00  0.00    +0.032 C 
ATOM     10  C   UNL     1      31.848  -6.014 -23.163  0.00  0.00    +0.039 C 
ATOM     11  C   UNL     1      32.074  -5.419 -21.924  0.00  0.00    +0.006 C 
ATOM     12  H   UNL     1      31.930 -11.374 -18.625  0.00  0.00    +0.146 HD
ATOM     13  H   UNL     1      32.194  -9.948 -17.729  0.00  0.00    +0.146 HD
ENDROOT
BRANCH  10  15
ATOM     14  O   UNL     1      30.717  -4.591 -24.634  0.00  0.00    -0.287 OA
ATOM     15  C   UNL     1      31.765  -5.194 -24.360  0.00  0.00    +0.196 C 
BRANCH  15  16
ATOM     16  C   UNL     1      32.914  -5.036 -25.303  0.00  0.00    +0.039 C 
ATOM     17  C   UNL     1      34.055  -5.823 -25.151  0.00  0.00    +0.003 C 
ATOM     18  C   UNL     1      32.844  -4.100 -26.336  0.00  0.00    +0.003 C 
ATOM     19  C   UNL     1      35.126  -5.675 -26.032  0.00  0.00    +0.000 C 
ATOM     20  C   UNL     1      33.915  -3.953 -27.216  0.00  0.00    +0.000 C 
ATOM     21  C   UNL     1      35.057  -4.740 -27.064  0.00  0.00    +0.000 C 
ENDBRANCH  15  16
ENDBRANCH  10  15
BRANCH   1  22
ATOM     22  C   UNL     1      31.566 -11.819 -20.978  0.00  0.00    +0.109 C 
BRANCH  22  23
ATOM     23  C   UNL     1      32.469 -12.413 -22.056  0.00  0.00    +0.107 C 
BRANCH  23  26
ATOM     24  O   UNL     1      32.173 -14.543 -20.988  0.00  0.00    -0.275 OA
ATOM     25  N   UNL     1      33.683 -14.465 -22.746  0.00  0.00    -0.279 N 
ATOM     26  C   UNL     1      32.751 -13.900 -21.869  0.00  0.00    +0.227 C 
ATOM     27  C   UNL     1      34.356 -13.686 -23.783  0.00  0.00    +0.115 C 
BRANCH  25  28
ATOM     28  C   UNL     1      34.050 -15.860 -22.692  0.00  0.00    +0.075 C 
ATOM     29  C   UNL     1      34.836 -16.158 -21.413  0.00  0.00    +0.020 C 
ATOM     30  C   UNL     1      34.842 -16.261 -23.939  0.00  0.00    +0.020 C 
ATOM     31  C   UNL     1      35.283 -17.617 -21.354  0.00  0.00    +0.002 C 
ATOM     32  C   UNL     1      35.288 -17.720 -23.878  0.00  0.00    +0.002 C 
ATOM     33  C   UNL     1      36.069 -18.015 -22.600  0.00  0.00    +0.000 C 
ENDBRANCH  25  28
ENDBRANCH  23  26
ENDBRANCH  22  23
ENDBRANCH   1  22
TORSDOF 6
ENDMDL
MODEL 4
REMARK VINA RESULT:     -13.2      2.422     10.116
REMARK  Name = 16741238
REMARK  6 active torsions:
REMARK  status: ('A' for Active; 'I' for Inactive)
REMARK    1  A    between atoms: N_1  and  C_22
REMARK    2  A    between atoms: C_10  and  C_15
REMARK    3  A    between atoms: C_15  and  C_16
REMARK    4  A    between atoms: C_22  and  C_23
REMARK    5  A    between atoms: C_23  and  C_26
REMARK    6  A    between atoms: N_25  and  C_28
REMARK                            x       y       z     vdW  Elec       q    Type
REMARK                         _______ _______ _______ _____ _____    ______ ____
ROOT
ATOM      1  N   UNL     1      35.384 -18.220 -23.219  0.00  0.00    -0.249 N 
ATOM      2  N   UNL     1      34.266 -17.762 -25.299  0.00  0.00    -0.373 NA
ATOM      3  N   UNL     1      34.932 -19.918 -24.790  0.00  0.00    -0.321 N 
ATOM      4  C   UNL     1      35.343 -16.832 -22.756  0.00  0.00    +0.071 C 
ATOM      5  C   UNL     1      34.683 -15.909 -23.742  0.00  0.00    +0.045 C 
ATOM      6  C   UNL     1      34.842 -18.584 -24.456  0.00  0.00    +0.239 C 
ATOM      7  C   UNL     1      34.179 -16.404 -24.953  0.00  0.00    +0.136 C 
ATOM      8  C   UNL     1      34.570 -14.543 -23.446  0.00  0.00    +0.007 C 
ATOM      9  C   UNL     1      33.568 -15.521 -25.852  0.00  0.00    +0.032 C 
ATOM     10  C   UNL     1      33.960 -13.673 -24.349  0.00  0.00    +0.039 C 
ATOM     11  C   UNL     1      33.458 -14.162 -25.553  0.00  0.00    +0.006 C 
ATOM     12  H   UNL     1      35.359 -20.553 -24.171  0.00  0.00    +0.146 HD
ATOM     13  H   UNL     1      34.568 -20.235 -25.648  0.00  0.00    +0.146 HD
ENDROOT
BRANCH  10  15
ATOM     14  O   UNL     1      34.540 -11.426 -24.640  0.00  0.00    -0.287 OA
ATOM     15  C   UNL     1      33.847 -12.258 -24.035  0.00  0.00    +0.196 C 
BRANCH  15  16
ATOM     16  C   UNL     1      32.911 -11.742 -22.992  0.00  0.00    +0.039 C 
ATOM     17  C   UNL     1      32.394 -12.607 -22.028  0.00  0.00    +0.003 C 
ATOM     18  C   UNL     1      32.553 -10.393 -22.981  0.00  0.00    +0.003 C 
ATOM     19  C   UNL     1      31.521 -12.124 -21.053  0.00  0.00    +0.000 C 
ATOM     20  C   UNL     1      31.680  -9.910 -22.007  0.00  0.00    +0.000 C 
ATOM     21  C   UNL     1      31.163 -10.776 -21.043  0.00  0.00    +0.000 C 
ENDBRANCH  15  16
ENDBRANCH  10  15
BRANCH   1  22
ATOM     22  C   UNL     1      36.019 -19.161 -22.302  0.00  0.00    +0.109 C 
BRANCH  22  23
ATOM     23  C   UNL     1      34.976 -19.810 -21.397  0.00  0.00    +0.107 C 
BRANCH  23  26
ATOM     24  O   UNL     1      36.789 -20.931 -20.291  0.00  0.00    -0.275 OA
ATOM     25  N   UNL     1      34.651 -21.434 -19.547  0.00  0.00    -0.279 N 
ATOM     26  C   UNL     1      35.568 -20.770 -20.370  0.00  0.00    +0.227 C 
ATOM     27  C   UNL     1      33.208 -21.229 -19.657  0.00  0.00    +0.115 C 
BRANCH  25  28
ATOM     28  C   UNL     1      35.062 -22.370 -18.528  0.00  0.00    +0.075 C 
ATOM     29  C   UNL     1      33.863 -22.795 -17.677  0.00  0.00    +0.020 C 
ATOM     30  C   UNL     1      36.177 -21.775 -17.663  0.00  0.00    +0.020 C 
ATOM     31  C   UNL     1      34.277 -23.746 -16.556  0.00  0.00    +0.002 C 
ATOM     32  C   UNL     1      36.589 -22.728 -16.543  0.00  0.00    +0.002 C 
ATOM     33  C   UNL     1      35.391 -23.153 -15.698  0.00  0.00    +0.000 C 
ENDBRANCH  25  28
ENDBRANCH  23  26
ENDBRANCH  22  23
ENDBRANCH   1  22
TORSDOF 6
ENDMDL
MODEL 5
REMARK VINA RESULT:     -13.1      6.154     10.889
REMARK  Name = 16741238
REMARK  6 active torsions:
REMARK  status: ('A' for Active; 'I' for Inactive)
REMARK    1  A    between atoms: N_1  and  C_22
REMARK    2  A    between atoms: C_10  and  C_15
REMARK    3  A    between atoms: C_15  and  C_16
REMARK    4  A    between atoms: C_22  and  C_23
REMARK    5  A    between atoms: C_23  and  C_26
REMARK    6  A    between atoms: N_25  and  C_28
REMARK                            x       y       z     vdW  Elec       q    Type
REMARK                         _______ _______ _______ _____ _____    ______ ____
ROOT
ATOM      1  N   UNL     1      36.297 -22.586 -17.104  0.00  0.00    -0.249 N 
ATOM      2  N   UNL     1      36.695 -23.626 -14.972  0.00  0.00    -0.373 NA
ATOM      3  N   UNL     1      38.476 -23.024 -16.320  0.00  0.00    -0.321 N 
ATOM      4  C   UNL     1      34.839 -22.605 -16.973  0.00  0.00    +0.071 C 
ATOM      5  C   UNL     1      34.379 -23.221 -15.681  0.00  0.00    +0.045 C 
ATOM      6  C   UNL     1      37.119 -23.096 -16.094  0.00  0.00    +0.239 C 
ATOM      7  C   UNL     1      35.311 -23.699 -14.749  0.00  0.00    +0.136 C 
ATOM      8  C   UNL     1      33.007 -23.318 -15.408  0.00  0.00    +0.007 C 
ATOM      9  C   UNL     1      34.854 -24.267 -13.554  0.00  0.00    +0.032 C 
ATOM     10  C   UNL     1      32.563 -23.886 -14.214  0.00  0.00    +0.039 C 
ATOM     11  C   UNL     1      33.487 -24.361 -13.286  0.00  0.00    +0.006 C 
ATOM     12  H   UNL     1      38.816 -22.629 -17.156  0.00  0.00    +0.146 HD
ATOM     13  H   UNL     1      39.106 -23.367 -15.646  0.00  0.00    +0.146 HD
ENDROOT
BRANCH  10  15
ATOM     14  O   UNL     1      30.739 -24.213 -12.788  0.00  0.00    -0.287 OA
ATOM     15  C   UNL     1      31.140 -23.984 -13.939  0.00  0.00    +0.196 C 
BRANCH  15  16
ATOM     16  C   UNL     1      30.105 -23.814 -15.003  0.00  0.00    +0.039 C 
ATOM     17  C   UNL     1      29.557 -22.556 -15.250  0.00  0.00    +0.003 C 
ATOM     18  C   UNL     1      29.687 -24.915 -15.752  0.00  0.00    +0.003 C 
ATOM     19  C   UNL     1      28.592 -22.397 -16.244  0.00  0.00    +0.000 C 
ATOM     20  C   UNL     1      28.722 -24.757 -16.746  0.00  0.00    +0.000 C 
ATOM     21  C   UNL     1      28.174 -23.498 -16.992  0.00  0.00    +0.000 C 
ENDBRANCH  15  16
ENDBRANCH  10  15
BRANCH   1  22
ATOM     22  C   UNL     1      36.800 -22.001 -18.343  0.00  0.00    +0.109 C 
BRANCH  22  23
ATOM     23  C   UNL     1      35.653 -21.410 -19.158  0.00  0.00    +0.107 C 
BRANCH  23  26
ATOM     24  O   UNL     1      37.287 -20.051 -20.277  0.00  0.00    -0.275 OA
ATOM     25  N   UNL     1      35.109 -19.904 -21.055  0.00  0.00    -0.279 N 
ATOM     26  C   UNL     1      36.105 -20.397 -20.205  0.00  0.00    +0.227 C 
ATOM     27  C   UNL     1      33.713 -20.326 -20.954  0.00  0.00    +0.115 C 
BRANCH  25  28
ATOM     28  C   UNL     1      35.384 -18.942 -22.096  0.00  0.00    +0.075 C 
ATOM     29  C   UNL     1      35.048 -17.527 -21.620  0.00  0.00    +0.020 C 
ATOM     30  C   UNL     1      34.622 -19.296 -23.376  0.00  0.00    +0.020 C 
ATOM     31  C   UNL     1      35.280 -16.493 -22.719  0.00  0.00    +0.002 C 
ATOM     32  C   UNL     1      34.857 -18.260 -24.473  0.00  0.00    +0.002 C 
ATOM     33  C   UNL     1      34.523 -16.850 -23.995  0.00  0.00    +0.000 C 
ENDBRANCH  25  28
ENDBRANCH  23  26
ENDBRANCH  22  23
ENDBRANCH   1  22
TORSDOF 6
ENDMDL
MODEL 6
REMARK VINA RESULT:     -13.0      5.321      9.702
REMARK  Name = 16741238
REMARK  6 active torsions:
REMARK  status: ('A' for Active; 'I' for Inactive)
REMARK    1  A    between atoms: N_1  and  C_22
REMARK    2  A    between atoms: C_10  and  C_15
REMARK    3  A    between atoms: C_15  and  C_16
REMARK    4  A    between atoms: C_22  and  C_23
REMARK    5  A    between atoms: C_23  and  C_26
REMARK    6  A    between atoms: N_25  and  C_28
REMARK                            x       y       z     vdW  Elec       q    Type
REMARK                         _______ _______ _______ _____ _____    ______ ____
ROOT
ATOM      1  N   UNL     1      34.858 -21.923 -19.342  0.00  0.00    -0.249 N 
ATOM      2  N   UNL     1      32.712 -22.456 -18.396  0.00  0.00    -0.373 NA
ATOM      3  N   UNL     1      32.851 -21.564 -20.525  0.00  0.00    -0.321 N 
ATOM      4  C   UNL     1      35.615 -22.363 -18.169  0.00  0.00    +0.071 C 
ATOM      5  C   UNL     1      34.732 -22.874 -17.065  0.00  0.00    +0.045 C 
ATOM      6  C   UNL     1      33.462 -22.002 -19.370  0.00  0.00    +0.239 C 
ATOM      7  C   UNL     1      33.339 -22.899 -17.221  0.00  0.00    +0.136 C 
ATOM      8  C   UNL     1      35.308 -23.329 -15.870  0.00  0.00    +0.007 C 
ATOM      9  C   UNL     1      32.542 -23.381 -16.175  0.00  0.00    +0.032 C 
ATOM     10  C   UNL     1      34.504 -23.806 -14.835  0.00  0.00    +0.039 C 
ATOM     11  C   UNL     1      33.120 -23.833 -14.988  0.00  0.00    +0.006 C 
ATOM     12  H   UNL     1      33.396 -21.221 -21.270  0.00  0.00    +0.146 HD
ATOM     13  H   UNL     1      31.871 -21.595 -20.605  0.00  0.00    +0.146 HD
ENDROOT
BRANCH  10  15
ATOM     14  O   UNL     1      34.452 -24.290 -12.547  0.00  0.00    -0.287 OA
ATOM     15  C   UNL     1      35.109 -24.275 -13.599  0.00  0.00    +0.196 C 
BRANCH  15  16
ATOM     16  C   UNL     1      36.522 -24.756 -13.532  0.00  0.00    +0.039 C 
ATOM     17  C   UNL     1      36.928 -25.841 -14.308  0.00  0.00    +0.003 C 
ATOM     18  C   UNL     1      37.436 -24.118 -12.692  0.00  0.00    +0.003 C 
ATOM     19  C   UNL     1      38.247 -26.288 -14.245  0.00  0.00    +0.000 C 
ATOM     20  C   UNL     1      38.755 -24.566 -12.629  0.00  0.00    +0.000 C 
ATOM     21  C   UNL     1      39.161 -25.652 -13.406  0.00  0.00    +0.000 C 
ENDBRANCH  15  16
ENDBRANCH  10  15
BRANCH   1  22
ATOM     22  C   UNL     1      35.665 -21.413 -20.445  0.00  0.00    +0.109 C 
BRANCH  22  23
ATOM     23  C   UNL     1      36.415 -20.154 -20.020  0.00  0.00    +0.107 C 
BRANCH  23  26
ATOM     24  O   UNL     1      37.812 -18.970 -21.573  0.00  0.00    -0.275 OA
ATOM     25  N   UNL     1      35.536 -18.547 -21.696  0.00  0.00    -0.279 N 
ATOM     26  C   UNL     1      36.667 -19.175 -21.163  0.00  0.00    +0.227 C 
ATOM     27  C   UNL     1      34.188 -18.803 -21.195  0.00  0.00    +0.115 C 
BRANCH  25  28
ATOM     28  C   UNL     1      35.617 -17.599 -22.781  0.00  0.00    +0.075 C 
ATOM     29  C   UNL     1      34.958 -16.275 -22.387  0.00  0.00    +0.020 C 
ATOM     30  C   UNL     1      34.991 -18.176 -24.054  0.00  0.00    +0.020 C 
ATOM     31  C   UNL     1      34.981 -15.270 -23.535  0.00  0.00    +0.002 C 
ATOM     32  C   UNL     1      35.016 -17.168 -25.200  0.00  0.00    +0.002 C 
ATOM     33  C   UNL     1      34.360 -15.849 -24.803  0.00  0.00    +0.000 C 
ENDBRANCH  25  28
ENDBRANCH  23  26
ENDBRANCH  22  23
ENDBRANCH   1  22
TORSDOF 6
ENDMDL
MODEL 7
REMARK VINA RESULT:     -12.8      3.260      5.509
REMARK  Name = 16741238
REMARK  6 active torsions:
REMARK  status: ('A' for Active; 'I' for Inactive)
REMARK    1  A    between atoms: N_1  and  C_22
REMARK    2  A    between atoms: C_10  and  C_15
REMARK    3  A    between atoms: C_15  and  C_16
REMARK    4  A    between atoms: C_22  and  C_23
REMARK    5  A    between atoms: C_23  and  C_26
REMARK    6  A    between atoms: N_25  and  C_28
REMARK                            x       y       z     vdW  Elec       q    Type
REMARK                         _______ _______ _______ _____ _____    ______ ____
ROOT
ATOM      1  N   UNL     1      31.968  -9.964 -21.585  0.00  0.00    -0.249 N 
ATOM      2  N   UNL     1      31.965 -11.917 -20.182  0.00  0.00    -0.373 NA
ATOM      3  N   UNL     1      31.270  -9.880 -19.335  0.00  0.00    -0.321 N 
ATOM      4  C   UNL     1      32.473 -10.668 -22.764  0.00  0.00    +0.071 C 
ATOM      5  C   UNL     1      32.716 -12.129 -22.510  0.00  0.00    +0.045 C 
ATOM      6  C   UNL     1      31.750 -10.639 -20.380  0.00  0.00    +0.239 C 
ATOM      7  C   UNL     1      32.456 -12.685 -21.249  0.00  0.00    +0.136 C 
ATOM      8  C   UNL     1      33.206 -12.942 -23.542  0.00  0.00    +0.007 C 
ATOM      9  C   UNL     1      32.690 -14.050 -21.041  0.00  0.00    +0.032 C 
ATOM     10  C   UNL     1      33.436 -14.300 -23.323  0.00  0.00    +0.039 C 
ATOM     11  C   UNL     1      33.178 -14.855 -22.072  0.00  0.00    +0.006 C 
ATOM     12  H   UNL     1      31.100  -8.919 -19.463  0.00  0.00    +0.146 HD
ATOM     13  H   UNL     1      31.096 -10.299 -18.461  0.00  0.00    +0.146 HD
ENDROOT
BRANCH  10  15
ATOM     14  O   UNL     1      33.938 -14.722 -25.568  0.00  0.00    -0.287 OA
ATOM     15  C   UNL     1      33.944 -15.135 -24.399  0.00  0.00    +0.196 C 
BRANCH  15  16
ATOM     16  C   UNL     1      34.492 -16.505 -24.159  0.00  0.00    +0.039 C 
ATOM     17  C   UNL     1      35.384 -16.725 -23.110  0.00  0.00    +0.003 C 
ATOM     18  C   UNL     1      34.110 -17.563 -24.983  0.00  0.00    +0.003 C 
ATOM     19  C   UNL     1      35.894 -18.004 -22.885  0.00  0.00    +0.000 C 
ATOM     20  C   UNL     1      34.620 -18.842 -24.759  0.00  0.00    +0.000 C 
ATOM     21  C   UNL     1      35.513 -19.062 -23.710  0.00  0.00    +0.000 C 
ENDBRANCH  15  16
ENDBRANCH  10  15
BRANCH   1  22
ATOM     22  C   UNL     1      31.718  -8.539 -21.773  0.00  0.00    +0.109 C 
BRANCH  22  23
ATOM     23  C   UNL     1      33.022  -7.751 -21.682  0.00  0.00    +0.107 C 
BRANCH  23  26
ATOM     24  O   UNL     1      32.417  -5.538 -22.388  0.00  0.00    -0.275 OA
ATOM     25  N   UNL     1      33.920  -6.679 -23.733  0.00  0.00    -0.279 N 
ATOM     26  C   UNL     1      33.081  -6.551 -22.621  0.00  0.00    +0.227 C 
ATOM     27  C   UNL     1      34.699  -7.888 -23.992  0.00  0.00    +0.115 C 
BRANCH  25  28
ATOM     28  C   UNL     1      34.080  -5.627 -24.708  0.00  0.00    +0.075 C 
ATOM     29  C   UNL     1      32.746  -5.324 -25.393  0.00  0.00    +0.020 C 
ATOM     30  C   UNL     1      35.161  -5.993 -25.729  0.00  0.00    +0.020 C 
ATOM     31  C   UNL     1      32.895  -4.251 -26.468  0.00  0.00    +0.002 C 
ATOM     32  C   UNL     1      35.309  -4.917 -26.802  0.00  0.00    +0.002 C 
ATOM     33  C   UNL     1      33.976  -4.616 -27.482  0.00  0.00    +0.000 C 
ENDBRANCH  25  28
ENDBRANCH  23  26
ENDBRANCH  22  23
ENDBRANCH   1  22
TORSDOF 6
ENDMDL
MODEL 8
REMARK VINA RESULT:     -12.8      4.742      8.275
REMARK  Name = 16741238
REMARK  6 active torsions:
REMARK  status: ('A' for Active; 'I' for Inactive)
REMARK    1  A    between atoms: N_1  and  C_22
REMARK    2  A    between atoms: C_10  and  C_15
REMARK    3  A    between atoms: C_15  and  C_16
REMARK    4  A    between atoms: C_22  and  C_23
REMARK    5  A    between atoms: C_23  and  C_26
REMARK    6  A    between atoms: N_25  and  C_28
REMARK                            x       y       z     vdW  Elec       q    Type
REMARK                         _______ _______ _______ _____ _____    ______ ____
ROOT
ATOM      1  N   UNL     1      34.881 -20.813 -20.415  0.00  0.00    -0.249 N 
ATOM      2  N   UNL     1      33.413 -21.877 -18.834  0.00  0.00    -0.373 NA
ATOM      3  N   UNL     1      32.545 -20.865 -20.724  0.00  0.00    -0.321 N 
ATOM      4  C   UNL     1      36.102 -21.129 -19.671  0.00  0.00    +0.071 C 
ATOM      5  C   UNL     1      35.830 -21.887 -18.402  0.00  0.00    +0.045 C 
ATOM      6  C   UNL     1      33.626 -21.211 -19.943  0.00  0.00    +0.239 C 
ATOM      7  C   UNL     1      34.518 -22.226 -18.042  0.00  0.00    +0.136 C 
ATOM      8  C   UNL     1      36.898 -22.261 -17.574  0.00  0.00    +0.007 C 
ATOM      9  C   UNL     1      34.295 -22.934 -16.855  0.00  0.00    +0.032 C 
ATOM     10  C   UNL     1      36.664 -22.966 -16.394  0.00  0.00    +0.039 C 
ATOM     11  C   UNL     1      35.362 -23.303 -16.034  0.00  0.00    +0.006 C 
ATOM     12  H   UNL     1      32.683 -20.365 -21.562  0.00  0.00    +0.146 HD
ATOM     13  H   UNL     1      31.635 -21.117 -20.445  0.00  0.00    +0.146 HD
ENDROOT
BRANCH  10  15
ATOM     14  O   UNL     1      38.945 -23.222 -15.941  0.00  0.00    -0.287 OA
ATOM     15  C   UNL     1      37.777 -23.348 -15.541  0.00  0.00    +0.196 C 
BRANCH  15  16
ATOM     16  C   UNL     1      37.580 -23.898 -14.166  0.00  0.00    +0.039 C 
ATOM     17  C   UNL     1      37.854 -25.240 -13.905  0.00  0.00    +0.003 C 
ATOM     18  C   UNL     1      37.122 -23.069 -13.141  0.00  0.00    +0.003 C 
ATOM     19  C   UNL     1      37.671 -25.753 -12.621  0.00  0.00    +0.000 C 
ATOM     20  C   UNL     1      36.939 -23.582 -11.858  0.00  0.00    +0.000 C 
ATOM     21  C   UNL     1      37.213 -24.925 -11.598  0.00  0.00    +0.000 C 
ENDBRANCH  15  16
ENDBRANCH  10  15
BRANCH   1  22
ATOM     22  C   UNL     1      35.085 -20.072 -21.655  0.00  0.00    +0.109 C 
BRANCH  22  23
ATOM     23  C   UNL     1      35.725 -18.716 -21.367  0.00  0.00    +0.107 C 
BRANCH  23  26
ATOM     24  O   UNL     1      36.119 -18.064 -23.645  0.00  0.00    -0.275 OA
ATOM     25  N   UNL     1      35.061 -16.509 -22.289  0.00  0.00    -0.279 N 
ATOM     26  C   UNL     1      35.661 -17.747 -22.543  0.00  0.00    +0.227 C 
ATOM     27  C   UNL     1      34.525 -16.153 -20.977  0.00  0.00    +0.115 C 
BRANCH  25  28
ATOM     28  C   UNL     1      34.926 -15.491 -23.303  0.00  0.00    +0.075 C 
ATOM     29  C   UNL     1      34.448 -14.176 -22.683  0.00  0.00    +0.020 C 
ATOM     30  C   UNL     1      33.984 -15.957 -24.417  0.00  0.00    +0.020 C 
ATOM     31  C   UNL     1      34.245 -13.094 -23.741  0.00  0.00    +0.002 C 
ATOM     32  C   UNL     1      33.784 -14.873 -25.474  0.00  0.00    +0.002 C 
ATOM     33  C   UNL     1      33.310 -13.563 -24.852  0.00  0.00    +0.000 C 
ENDBRANCH  25  28
ENDBRANCH  23  26
ENDBRANCH  22  23
ENDBRANCH   1  22
TORSDOF 6
ENDMDL
MODEL 9
REMARK VINA RESULT:     -12.4      3.394      5.905
REMARK  Name = 16741238
REMARK  6 active torsions:
REMARK  status: ('A' for Active; 'I' for Inactive)
REMARK    1  A    between atoms: N_1  and  C_22
REMARK    2  A    between atoms: C_10  and  C_15
REMARK    3  A    between atoms: C_15  and  C_16
REMARK    4  A    between atoms: C_22  and  C_23
REMARK    5  A    between atoms: C_23  and  C_26
REMARK    6  A    between atoms: N_25  and  C_28
REMARK                            x       y       z     vdW  Elec       q    Type
REMARK                         _______ _______ _______ _____ _____    ______ ____
ROOT
ATOM      1  N   UNL     1      35.188 -18.948 -22.152  0.00  0.00    -0.249 N 
ATOM      2  N   UNL     1      36.941 -19.590 -20.634  0.00  0.00    -0.373 NA
ATOM      3  N   UNL     1      37.308 -17.919 -22.192  0.00  0.00    -0.321 N 
ATOM      4  C   UNL     1      34.217 -19.907 -21.621  0.00  0.00    +0.071 C 
ATOM      5  C   UNL     1      34.773 -20.736 -20.497  0.00  0.00    +0.045 C 
ATOM      6  C   UNL     1      36.478 -18.858 -21.619  0.00  0.00    +0.239 C 
ATOM      7  C   UNL     1      36.091 -20.546 -20.057  0.00  0.00    +0.136 C 
ATOM      8  C   UNL     1      33.967 -21.706 -19.884  0.00  0.00    +0.007 C 
ATOM      9  C   UNL     1      36.582 -21.332 -19.007  0.00  0.00    +0.032 C 
ATOM     10  C   UNL     1      34.466 -22.483 -18.840  0.00  0.00    +0.039 C 
ATOM     11  C   UNL     1      35.774 -22.296 -18.401  0.00  0.00    +0.006 C 
ATOM     12  H   UNL     1      36.981 -17.359 -22.932  0.00  0.00    +0.146 HD
ATOM     13  H   UNL     1      38.229 -17.809 -21.860  0.00  0.00    +0.146 HD
ENDROOT
BRANCH  10  15
ATOM     14  O   UNL     1      33.440 -24.583 -18.761  0.00  0.00    -0.287 OA
ATOM     15  C   UNL     1      33.623 -23.486 -18.211  0.00  0.00    +0.196 C 
BRANCH  15  16
ATOM     16  C   UNL     1      32.950 -23.257 -16.897  0.00  0.00    +0.039 C 
ATOM     17  C   UNL     1      33.680 -23.353 -15.713  0.00  0.00    +0.003 C 
ATOM     18  C   UNL     1      31.591 -22.946 -16.854  0.00  0.00    +0.003 C 
ATOM     19  C   UNL     1      33.052 -23.138 -14.486  0.00  0.00    +0.000 C 
ATOM     20  C   UNL     1      30.962 -22.731 -15.628  0.00  0.00    +0.000 C 
ATOM     21  C   UNL     1      31.693 -22.828 -14.444  0.00  0.00    +0.000 C 
ENDBRANCH  15  16
ENDBRANCH  10  15
BRANCH   1  22
ATOM     22  C   UNL     1      34.703 -18.118 -23.249  0.00  0.00    +0.109 C 
BRANCH  22  23
ATOM     23  C   UNL     1      35.295 -16.715 -23.159  0.00  0.00    +0.107 C 
BRANCH  23  26
ATOM     24  O   UNL     1      33.825 -15.499 -24.618  0.00  0.00    -0.275 OA
ATOM     25  N   UNL     1      33.966 -14.749 -22.428  0.00  0.00    -0.279 N 
ATOM     26  C   UNL     1      34.297 -15.607 -23.483  0.00  0.00    +0.227 C 
ATOM     27  C   UNL     1      34.538 -14.894 -21.091  0.00  0.00    +0.115 C 
BRANCH  25  28
ATOM     28  C   UNL     1      33.035 -13.657 -22.582  0.00  0.00    +0.075 C 
ATOM     29  C   UNL     1      33.704 -12.479 -23.295  0.00  0.00    +0.020 C 
ATOM     30  C   UNL     1      32.464 -13.236 -21.225  0.00  0.00    +0.020 C 
ATOM     31  C   UNL     1      32.758 -11.287 -23.424  0.00  0.00    +0.002 C 
ATOM     32  C   UNL     1      31.518 -12.045 -21.358  0.00  0.00    +0.002 C 
ATOM     33  C   UNL     1      32.187 -10.873 -22.071  0.00  0.00    +0.000 C 
ENDBRANCH  25  28
ENDBRANCH  23  26
ENDBRANCH  22  23
ENDBRANCH   1  22
TORSDOF 6
ENDMDL
