MODEL 1
REMARK VINA RESULT:     -13.9      0.000      0.000
REMARK  Name = 71245288
REMARK  5 active torsions:
REMARK  status: ('A' for Active; 'I' for Inactive)
REMARK    1  A    between atoms: C_3  and  C_9
REMARK    2  A    between atoms: C_6  and  N_14
REMARK    3  A    between atoms: C_15  and  C_18
REMARK    4  A    between atoms: C_22  and  C_30
REMARK    5  A    between atoms: N_27  and  C_32
REMARK                            x       y       z     vdW  Elec       q    Type
REMARK                         _______ _______ _______ _____ _____    ______ ____
ROOT
ATOM      1  O   UNL     1      33.096 -14.136 -24.382  0.00  0.00    -0.270 OA
ATOM      2  N   UNL     1      33.960 -15.024 -22.390  0.00  0.00    -0.259 N 
ATOM      3  C   UNL     1      33.305 -14.054 -23.162  0.00  0.00    +0.253 C 
ATOM      4  H   UNL     1      34.052 -14.818 -21.432  0.00  0.00    +0.157 HD
ATOM      5  N   UNL     1      35.100 -17.050 -21.885  0.00  0.00    -0.388 NA
ATOM      6  C   UNL     1      35.608 -18.220 -22.332  0.00  0.00    +0.166 C 
ATOM      7  C   UNL     1      34.508 -16.261 -22.808  0.00  0.00    +0.167 C 
ATOM      8  C   UNL     1      35.550 -18.637 -23.652  0.00  0.00    +0.031 C 
ATOM      9  C   UNL     1      34.398 -16.587 -24.151  0.00  0.00    +0.101 C 
ATOM     10  C   UNL     1      34.932 -17.799 -24.573  0.00  0.00    -0.015 C 
ENDROOT
BRANCH   3  15
ATOM     11  F   UNL     1      32.275 -14.224 -20.555  0.00  0.00    -0.204 F 
ATOM     12  C   UNL     1      32.408 -10.508 -22.353  0.00  0.00    +0.046 C 
ATOM     13  C   UNL     1      31.904 -10.643 -21.059  0.00  0.00    -0.006 C 
ATOM     14  C   UNL     1      32.867 -11.630 -23.043  0.00  0.00    +0.021 C 
ATOM     15  C   UNL     1      32.824 -12.886 -22.440  0.00  0.00    +0.082 C 
ATOM     16  C   UNL     1      31.860 -11.900 -20.456  0.00  0.00    +0.027 C 
ATOM     17  C   UNL     1      31.402  -9.462 -20.292  0.00  0.00    +0.032 C 
ATOM     18  C   UNL     1      32.321 -13.021 -21.146  0.00  0.00    +0.144 C 
BRANCH  12  20
ATOM     19  N   UNL     1      31.780  -7.461 -24.067  0.00  0.00    -0.255 NA
ATOM     20  N   UNL     1      32.459  -9.270 -22.970  0.00  0.00    -0.282 N 
ATOM     21  C   UNL     1      33.116  -7.360 -23.771  0.00  0.00    +0.053 C 
ATOM     22  C   UNL     1      33.560  -8.469 -23.091  0.00  0.00    +0.134 C 
ATOM     23  C   UNL     1      31.415  -8.622 -23.571  0.00  0.00    +0.219 C 
BRANCH  21  24
ATOM     24  C   UNL     1      33.988  -6.167 -24.151  0.00  0.00    +0.037 C 
ATOM     25  C   UNL     1      33.855  -5.588 -25.529  0.00  0.00    +0.006 C 
ATOM     26  C   UNL     1      35.084  -6.366 -25.156  0.00  0.00    +0.006 C 
ENDBRANCH  21  24
ENDBRANCH  12  20
ENDBRANCH   3  15
BRANCH   6  30
ATOM     27  N   UNL     1      35.637 -20.107 -20.732  0.00  0.00    -0.252 N 
ATOM     28  N   UNL     1      37.434 -18.861 -20.818  0.00  0.00    -0.129 NA
ATOM     29  N   UNL     1      37.635 -19.852 -19.878  0.00  0.00    -0.128 NA
ATOM     30  C   UNL     1      36.231 -19.031 -21.318  0.00  0.00    +0.188 C 
ATOM     31  C   UNL     1      36.548 -20.589 -19.842  0.00  0.00    +0.192 C 
BRANCH  27  32
ATOM     32  C   UNL     1      34.323 -20.647 -20.985  0.00  0.00    +0.080 C 
ATOM     33  C   UNL     1      34.038 -21.870 -20.108  0.00  0.00    +0.022 C 
ATOM     34  C   UNL     1      33.235 -19.585 -20.808  0.00  0.00    +0.022 C 
ENDBRANCH  27  32
ENDBRANCH   6  30
TORSDOF 5
ENDMDL
MODEL 2
REMARK VINA RESULT:     -13.6      3.170      6.058
REMARK  Name = 71245288
REMARK  5 active torsions:
REMARK  status: ('A' for Active; 'I' for Inactive)
REMARK    1  A    between atoms: C_3  and  C_9
REMARK    2  A    between atoms: C_6  and  N_14
REMARK    3  A    between atoms: C_15  and  C_18
REMARK    4  A    between atoms: C_22  and  C_30
REMARK    5  A    between atoms: N_27  and  C_32
REMARK                            x       y       z     vdW  Elec       q    Type
REMARK                         _______ _______ _______ _____ _____    ______ ____
ROOT
ATOM      1  O   UNL     1      37.000 -18.665 -22.422  0.00  0.00    -0.270 OA
ATOM      2  N   UNL     1      34.927 -19.337 -21.549  0.00  0.00    -0.259 N 
ATOM      3  C   UNL     1      35.761 -18.598 -22.401  0.00  0.00    +0.253 C 
ATOM      4  H   UNL     1      33.962 -19.174 -21.649  0.00  0.00    +0.157 HD
ATOM      5  N   UNL     1      34.315 -20.884 -19.850  0.00  0.00    -0.388 NA
ATOM      6  C   UNL     1      34.713 -21.781 -18.920  0.00  0.00    +0.166 C 
ATOM      7  C   UNL     1      35.293 -20.285 -20.563  0.00  0.00    +0.167 C 
ATOM      8  C   UNL     1      36.037 -22.106 -18.673  0.00  0.00    +0.031 C 
ATOM      9  C   UNL     1      36.645 -20.539 -20.393  0.00  0.00    +0.101 C 
ATOM     10  C   UNL     1      37.016 -21.469 -19.427  0.00  0.00    -0.015 C 
ENDROOT
BRANCH   3  15
ATOM     11  F   UNL     1      35.252 -19.337 -25.062  0.00  0.00    -0.204 F 
ATOM     12  C   UNL     1      34.021 -15.597 -23.816  0.00  0.00    +0.046 C 
ATOM     13  C   UNL     1      33.791 -16.009 -25.129  0.00  0.00    -0.006 C 
ATOM     14  C   UNL     1      34.669 -16.448 -22.921  0.00  0.00    +0.021 C 
ATOM     15  C   UNL     1      35.086 -17.712 -23.338  0.00  0.00    +0.082 C 
ATOM     16  C   UNL     1      34.208 -17.272 -25.546  0.00  0.00    +0.027 C 
ATOM     17  C   UNL     1      33.101 -15.121 -26.114  0.00  0.00    +0.032 C 
ATOM     18  C   UNL     1      34.856 -18.124 -24.650  0.00  0.00    +0.144 C 
BRANCH  12  20
ATOM     19  N   UNL     1      33.438 -12.134 -23.283  0.00  0.00    -0.255 NA
ATOM     20  N   UNL     1      33.616 -14.346 -23.382  0.00  0.00    -0.282 N 
ATOM     21  C   UNL     1      32.670 -12.713 -22.304  0.00  0.00    +0.053 C 
ATOM     22  C   UNL     1      32.764 -14.084 -22.346  0.00  0.00    +0.134 C 
ATOM     23  C   UNL     1      33.994 -13.144 -23.914  0.00  0.00    +0.219 C 
BRANCH  21  24
ATOM     24  C   UNL     1      31.825 -11.930 -21.305  0.00  0.00    +0.037 C 
ATOM     25  C   UNL     1      30.798 -10.968 -21.827  0.00  0.00    +0.006 C 
ATOM     26  C   UNL     1      32.048 -10.452 -21.176  0.00  0.00    +0.006 C 
ENDBRANCH  21  24
ENDBRANCH  12  20
ENDBRANCH   3  15
BRANCH   6  30
ATOM     27  N   UNL     1      33.821 -23.140 -17.056  0.00  0.00    -0.252 N 
ATOM     28  N   UNL     1      32.362 -22.335 -18.474  0.00  0.00    -0.129 NA
ATOM     29  N   UNL     1      31.683 -23.058 -17.513  0.00  0.00    -0.128 NA
ATOM     30  C   UNL     1      33.641 -22.396 -18.182  0.00  0.00    +0.188 C 
ATOM     31  C   UNL     1      32.574 -23.532 -16.672  0.00  0.00    +0.192 C 
BRANCH  27  32
ATOM     32  C   UNL     1      35.059 -23.459 -16.386  0.00  0.00    +0.080 C 
ATOM     33  C   UNL     1      35.434 -22.389 -15.357  0.00  0.00    +0.022 C 
ATOM     34  C   UNL     1      35.007 -24.844 -15.738  0.00  0.00    +0.022 C 
ENDBRANCH  27  32
ENDBRANCH   6  30
TORSDOF 5
ENDMDL
MODEL 3
REMARK VINA RESULT:     -13.5      5.517      9.400
REMARK  Name = 71245288
REMARK  5 active torsions:
REMARK  status: ('A' for Active; 'I' for Inactive)
REMARK    1  A    between atoms: C_3  and  C_9
REMARK    2  A    between atoms: C_6  and  N_14
REMARK    3  A    between atoms: C_15  and  C_18
REMARK    4  A    between atoms: C_22  and  C_30
REMARK    5  A    between atoms: N_27  and  C_32
REMARK                            x       y       z     vdW  Elec       q    Type
REMARK                         _______ _______ _______ _____ _____    ______ ____
ROOT
ATOM      1  O   UNL     1      32.853 -21.727 -19.772  0.00  0.00    -0.270 OA
ATOM      2  N   UNL     1      34.478 -22.097 -18.120  0.00  0.00    -0.259 N 
ATOM      3  C   UNL     1      34.010 -21.594 -19.342  0.00  0.00    +0.253 C 
ATOM      4  H   UNL     1      35.423 -21.911 -17.915  0.00  0.00    +0.157 HD
ATOM      5  N   UNL     1      34.427 -23.228 -16.028  0.00  0.00    -0.388 NA
ATOM      6  C   UNL     1      33.711 -23.934 -15.125  0.00  0.00    +0.166 C 
ATOM      7  C   UNL     1      33.771 -22.840 -17.144  0.00  0.00    +0.167 C 
ATOM      8  C   UNL     1      32.375 -24.268 -15.285  0.00  0.00    +0.031 C 
ATOM      9  C   UNL     1      32.438 -23.122 -17.398  0.00  0.00    +0.101 C 
ATOM     10  C   UNL     1      31.734 -23.851 -16.445  0.00  0.00    -0.015 C 
ENDROOT
BRANCH   3  15
ATOM     11  F   UNL     1      36.733 -21.475 -18.665  0.00  0.00    -0.204 F 
ATOM     12  C   UNL     1      35.474 -19.420 -22.019  0.00  0.00    +0.046 C 
ATOM     13  C   UNL     1      36.817 -19.391 -21.642  0.00  0.00    -0.006 C 
ATOM     14  C   UNL     1      34.552 -20.143 -21.262  0.00  0.00    +0.021 C 
ATOM     15  C   UNL     1      34.973 -20.839 -20.129  0.00  0.00    +0.082 C 
ATOM     16  C   UNL     1      37.237 -20.086 -20.509  0.00  0.00    +0.027 C 
ATOM     17  C   UNL     1      37.830 -18.624 -22.430  0.00  0.00    +0.032 C 
ATOM     18  C   UNL     1      36.316 -20.810 -19.753  0.00  0.00    +0.144 C 
BRANCH  12  20
ATOM     19  N   UNL     1      34.128 -18.376 -25.136  0.00  0.00    -0.255 NA
ATOM     20  N   UNL     1      35.035 -18.736 -23.140  0.00  0.00    -0.282 N 
ATOM     21  C   UNL     1      34.559 -17.192 -24.593  0.00  0.00    +0.053 C 
ATOM     22  C   UNL     1      35.125 -17.390 -23.356  0.00  0.00    +0.134 C 
ATOM     23  C   UNL     1      34.428 -19.286 -24.236  0.00  0.00    +0.219 C 
BRANCH  21  24
ATOM     24  C   UNL     1      34.425 -15.837 -25.281  0.00  0.00    +0.037 C 
ATOM     25  C   UNL     1      33.452 -14.840 -24.723  0.00  0.00    +0.006 C 
ATOM     26  C   UNL     1      33.158 -15.529 -26.024  0.00  0.00    +0.006 C 
ENDBRANCH  21  24
ENDBRANCH  12  20
ENDBRANCH   3  15
BRANCH   6  30
ATOM     27  N   UNL     1      35.697 -24.862 -13.980  0.00  0.00    -0.252 N 
ATOM     28  N   UNL     1      34.032 -24.234 -12.708  0.00  0.00    -0.129 NA
ATOM     29  N   UNL     1      35.039 -24.720 -11.899  0.00  0.00    -0.128 NA
ATOM     30  C   UNL     1      34.445 -24.328 -13.952  0.00  0.00    +0.188 C 
ATOM     31  C   UNL     1      36.029 -25.091 -12.679  0.00  0.00    +0.192 C 
BRANCH  27  32
ATOM     32  C   UNL     1      36.523 -25.137 -15.132  0.00  0.00    +0.080 C 
ATOM     33  C   UNL     1      37.868 -24.412 -15.046  0.00  0.00    +0.022 C 
ATOM     34  C   UNL     1      36.726 -26.640 -15.333  0.00  0.00    +0.022 C 
ENDBRANCH  27  32
ENDBRANCH   6  30
TORSDOF 5
ENDMDL
MODEL 4
REMARK VINA RESULT:     -13.2      2.712     10.573
REMARK  Name = 71245288
REMARK  5 active torsions:
REMARK  status: ('A' for Active; 'I' for Inactive)
REMARK    1  A    between atoms: C_3  and  C_9
REMARK    2  A    between atoms: C_6  and  N_14
REMARK    3  A    between atoms: C_15  and  C_18
REMARK    4  A    between atoms: C_22  and  C_30
REMARK    5  A    between atoms: N_27  and  C_32
REMARK                            x       y       z     vdW  Elec       q    Type
REMARK                         _______ _______ _______ _____ _____    ______ ____
ROOT
ATOM      1  O   UNL     1      34.531 -18.490 -24.591  0.00  0.00    -0.270 OA
ATOM      2  N   UNL     1      34.750 -16.553 -23.285  0.00  0.00    -0.259 N 
ATOM      3  C   UNL     1      34.853 -17.929 -23.532  0.00  0.00    +0.253 C 
ATOM      4  H   UNL     1      35.045 -16.255 -22.394  0.00  0.00    +0.157 HD
ATOM      5  N   UNL     1      34.264 -14.261 -23.700  0.00  0.00    -0.388 NA
ATOM      6  C   UNL     1      33.803 -13.326 -24.559  0.00  0.00    +0.166 C 
ATOM      7  C   UNL     1      34.276 -15.536 -24.148  0.00  0.00    +0.167 C 
ATOM      8  C   UNL     1      33.356 -13.604 -25.841  0.00  0.00    +0.031 C 
ATOM      9  C   UNL     1      33.851 -15.917 -25.411  0.00  0.00    +0.101 C 
ATOM     10  C   UNL     1      33.383 -14.926 -26.268  0.00  0.00    -0.015 C 
ENDROOT
BRANCH   3  15
ATOM     11  F   UNL     1      37.598 -17.950 -22.940  0.00  0.00    -0.204 F 
ATOM     12  C   UNL     1      35.096 -20.285 -20.629  0.00  0.00    +0.046 C 
ATOM     13  C   UNL     1      36.467 -20.262 -20.374  0.00  0.00    -0.006 C 
ATOM     14  C   UNL     1      34.566 -19.518 -21.667  0.00  0.00    +0.021 C 
ATOM     15  C   UNL     1      35.408 -18.728 -22.450  0.00  0.00    +0.082 C 
ATOM     16  C   UNL     1      37.309 -19.473 -21.157  0.00  0.00    +0.027 C 
ATOM     17  C   UNL     1      37.067 -21.073 -19.270  0.00  0.00    +0.032 C 
ATOM     18  C   UNL     1      36.779 -18.706 -22.195  0.00  0.00    +0.144 C 
BRANCH  12  20
ATOM     19  N   UNL     1      32.351 -21.845 -19.002  0.00  0.00    -0.255 NA
ATOM     20  N   UNL     1      34.243 -21.062 -19.863  0.00  0.00    -0.282 N 
ATOM     21  C   UNL     1      33.423 -22.533 -18.490  0.00  0.00    +0.053 C 
ATOM     22  C   UNL     1      34.607 -22.065 -19.009  0.00  0.00    +0.134 C 
ATOM     23  C   UNL     1      32.879 -20.968 -19.825  0.00  0.00    +0.219 C 
BRANCH  21  24
ATOM     24  C   UNL     1      33.306 -23.667 -17.476  0.00  0.00    +0.037 C 
ATOM     25  C   UNL     1      32.421 -23.475 -16.280  0.00  0.00    +0.006 C 
ATOM     26  C   UNL     1      33.913 -23.483 -16.117  0.00  0.00    +0.006 C 
ENDBRANCH  21  24
ENDBRANCH  12  20
ENDBRANCH   3  15
BRANCH   6  30
ATOM     27  N   UNL     1      32.956 -11.534 -23.079  0.00  0.00    -0.252 N 
ATOM     28  N   UNL     1      34.611 -11.011 -24.411  0.00  0.00    -0.129 NA
ATOM     29  N   UNL     1      34.279  -9.895 -23.670  0.00  0.00    -0.128 NA
ATOM     30  C   UNL     1      33.807 -11.982 -24.043  0.00  0.00    +0.188 C 
ATOM     31  C   UNL     1      33.286 -10.227 -22.878  0.00  0.00    +0.192 C 
BRANCH  27  32
ATOM     32  C   UNL     1      31.917 -12.266 -22.397  0.00  0.00    +0.080 C 
ATOM     33  C   UNL     1      32.489 -13.158 -21.292  0.00  0.00    +0.022 C 
ATOM     34  C   UNL     1      30.842 -11.331 -21.840  0.00  0.00    +0.022 C 
ENDBRANCH  27  32
ENDBRANCH   6  30
TORSDOF 5
ENDMDL
MODEL 5
REMARK VINA RESULT:     -12.9      5.007     12.564
REMARK  Name = 71245288
REMARK  5 active torsions:
REMARK  status: ('A' for Active; 'I' for Inactive)
REMARK    1  A    between atoms: C_3  and  C_9
REMARK    2  A    between atoms: C_6  and  N_14
REMARK    3  A    between atoms: C_15  and  C_18
REMARK    4  A    between atoms: C_22  and  C_30
REMARK    5  A    between atoms: N_27  and  C_32
REMARK                            x       y       z     vdW  Elec       q    Type
REMARK                         _______ _______ _______ _____ _____    ______ ____
ROOT
ATOM      1  O   UNL     1      36.932 -21.510 -18.592  0.00  0.00    -0.270 OA
ATOM      2  N   UNL     1      35.174 -20.756 -19.952  0.00  0.00    -0.259 N 
ATOM      3  C   UNL     1      35.726 -21.477 -18.884  0.00  0.00    +0.253 C 
ATOM      4  H   UNL     1      34.199 -20.828 -20.058  0.00  0.00    +0.157 HD
ATOM      5  N   UNL     1      35.102 -19.332 -21.856  0.00  0.00    -0.388 NA
ATOM      6  C   UNL     1      35.779 -18.563 -22.738  0.00  0.00    +0.166 C 
ATOM      7  C   UNL     1      35.838 -19.940 -20.900  0.00  0.00    +0.167 C 
ATOM      8  C   UNL     1      37.152 -18.374 -22.707  0.00  0.00    +0.031 C 
ATOM      9  C   UNL     1      37.213 -19.814 -20.783  0.00  0.00    +0.101 C 
ATOM     10  C   UNL     1      37.875 -19.015 -21.709  0.00  0.00    -0.015 C 
ENDROOT
BRANCH   3  15
ATOM     11  F   UNL     1      33.072 -21.925 -19.684  0.00  0.00    -0.204 F 
ATOM     12  C   UNL     1      34.278 -23.423 -16.029  0.00  0.00    +0.046 C 
ATOM     13  C   UNL     1      32.969 -23.620 -16.470  0.00  0.00    -0.006 C 
ATOM     14  C   UNL     1      35.183 -22.719 -16.823  0.00  0.00    +0.021 C 
ATOM     15  C   UNL     1      34.779 -22.211 -18.058  0.00  0.00    +0.082 C 
ATOM     16  C   UNL     1      32.565 -23.112 -17.704  0.00  0.00    +0.027 C 
ATOM     17  C   UNL     1      31.973 -24.369 -15.643  0.00  0.00    +0.032 C 
ATOM     18  C   UNL     1      33.471 -22.408 -18.498  0.00  0.00    +0.144 C 
BRANCH  12  20
ATOM     19  N   UNL     1      34.648 -24.467 -12.654  0.00  0.00    -0.255 NA
ATOM     20  N   UNL     1      34.698 -23.919 -14.806  0.00  0.00    -0.282 N 
ATOM     21  C   UNL     1      35.856 -24.819 -13.203  0.00  0.00    +0.053 C 
ATOM     22  C   UNL     1      35.911 -24.489 -14.536  0.00  0.00    +0.134 C 
ATOM     23  C   UNL     1      33.975 -23.928 -13.646  0.00  0.00    +0.219 C 
BRANCH  21  24
ATOM     24  C   UNL     1      36.985 -25.489 -12.426  0.00  0.00    +0.037 C 
ATOM     25  C   UNL     1      38.213 -24.687 -12.107  0.00  0.00    +0.006 C 
ATOM     26  C   UNL     1      38.274 -25.779 -13.136  0.00  0.00    +0.006 C 
ENDBRANCH  21  24
ENDBRANCH  12  20
ENDBRANCH   3  15
BRANCH   6  30
ATOM     27  N   UNL     1      34.619 -16.616 -23.728  0.00  0.00    -0.252 N 
ATOM     28  N   UNL     1      34.430 -18.519 -24.790  0.00  0.00    -0.129 NA
ATOM     29  N   UNL     1      33.723 -17.559 -25.486  0.00  0.00    -0.128 NA
ATOM     30  C   UNL     1      34.959 -17.934 -23.740  0.00  0.00    +0.188 C 
ATOM     31  C   UNL     1      33.848 -16.426 -24.835  0.00  0.00    +0.192 C 
BRANCH  27  32
ATOM     32  C   UNL     1      34.985 -15.610 -22.761  0.00  0.00    +0.080 C 
ATOM     33  C   UNL     1      34.606 -14.205 -23.238  0.00  0.00    +0.022 C 
ATOM     34  C   UNL     1      34.378 -15.901 -21.387  0.00  0.00    +0.022 C 
ENDBRANCH  27  32
ENDBRANCH   6  30
TORSDOF 5
ENDMDL
MODEL 6
REMARK VINA RESULT:     -12.7      1.562     10.702
REMARK  Name = 71245288
REMARK  5 active torsions:
REMARK  status: ('A' for Active; 'I' for Inactive)
REMARK    1  A    between atoms: C_3  and  C_9
REMARK    2  A    between atoms: C_6  and  N_14
REMARK    3  A    between atoms: C_15  and  C_18
REMARK    4  A    between atoms: C_22  and  C_30
REMARK    5  A    between atoms: N_27  and  C_32
REMARK                            x       y       z     vdW  Elec       q    Type
REMARK                         _______ _______ _______ _____ _____    ______ ____
ROOT
ATOM      1  O   UNL     1      32.936 -14.377 -20.311  0.00  0.00    -0.270 OA
ATOM      2  N   UNL     1      33.108 -12.990 -22.197  0.00  0.00    -0.259 N 
ATOM      3  C   UNL     1      33.264 -14.194 -21.494  0.00  0.00    +0.253 C 
ATOM      4  H   UNL     1      33.417 -12.998 -23.131  0.00  0.00    +0.157 HD
ATOM      5  N   UNL     1      32.512 -10.722 -22.594  0.00  0.00    -0.388 NA
ATOM      6  C   UNL     1      31.987  -9.574 -22.110  0.00  0.00    +0.166 C 
ATOM      7  C   UNL     1      32.566 -11.765 -21.737  0.00  0.00    +0.167 C 
ATOM      8  C   UNL     1      31.515  -9.422 -20.816  0.00  0.00    +0.031 C 
ATOM      9  C   UNL     1      32.121 -11.716 -20.425  0.00  0.00    +0.101 C 
ATOM     10  C   UNL     1      31.587 -10.518 -19.964  0.00  0.00    -0.015 C 
ENDROOT
BRANCH   3  15
ATOM     11  F   UNL     1      33.248 -14.259 -24.301  0.00  0.00    -0.204 F 
ATOM     12  C   UNL     1      34.960 -17.437 -22.294  0.00  0.00    +0.046 C 
ATOM     13  C   UNL     1      34.928 -17.424 -23.688  0.00  0.00    -0.006 C 
ATOM     14  C   UNL     1      34.412 -16.375 -21.573  0.00  0.00    +0.021 C 
ATOM     15  C   UNL     1      33.834 -15.300 -22.248  0.00  0.00    +0.082 C 
ATOM     16  C   UNL     1      34.349 -16.350 -24.362  0.00  0.00    +0.027 C 
ATOM     17  C   UNL     1      35.505 -18.546 -24.491  0.00  0.00    +0.032 C 
ATOM     18  C   UNL     1      33.802 -15.287 -23.642  0.00  0.00    +0.144 C 
BRANCH  12  20
ATOM     19  N   UNL     1      37.061 -19.701 -20.539  0.00  0.00    -0.255 NA
ATOM     20  N   UNL     1      35.530 -18.495 -21.605  0.00  0.00    -0.282 N 
ATOM     21  C   UNL     1      35.871 -20.383 -20.586  0.00  0.00    +0.053 C 
ATOM     22  C   UNL     1      34.906 -19.656 -21.242  0.00  0.00    +0.134 C 
ATOM     23  C   UNL     1      36.821 -18.568 -21.161  0.00  0.00    +0.219 C 
BRANCH  21  24
ATOM     24  C   UNL     1      35.656 -21.769 -19.986  0.00  0.00    +0.037 C 
ATOM     25  C   UNL     1      34.446 -22.004 -19.130  0.00  0.00    +0.006 C 
ATOM     26  C   UNL     1      35.809 -21.944 -18.504  0.00  0.00    +0.006 C 
ENDBRANCH  21  24
ENDBRANCH  12  20
ENDBRANCH   3  15
BRANCH   6  30
ATOM     27  N   UNL     1      33.055  -7.897 -23.582  0.00  0.00    -0.252 N 
ATOM     28  N   UNL     1      30.867  -7.918 -23.537  0.00  0.00    -0.129 NA
ATOM     29  N   UNL     1      31.276  -6.925 -24.405  0.00  0.00    -0.128 NA
ATOM     30  C   UNL     1      31.948  -8.488 -23.053  0.00  0.00    +0.188 C 
ATOM     31  C   UNL     1      32.590  -6.928 -24.419  0.00  0.00    +0.192 C 
BRANCH  27  32
ATOM     32  C   UNL     1      34.440  -8.211 -23.327  0.00  0.00    +0.080 C 
ATOM     33  C   UNL     1      34.899  -9.428 -24.135  0.00  0.00    +0.022 C 
ATOM     34  C   UNL     1      35.348  -7.008 -23.591  0.00  0.00    +0.022 C 
ENDBRANCH  27  32
ENDBRANCH   6  30
TORSDOF 5
ENDMDL
MODEL 7
REMARK VINA RESULT:     -12.4      4.756     12.410
REMARK  Name = 71245288
REMARK  5 active torsions:
REMARK  status: ('A' for Active; 'I' for Inactive)
REMARK    1  A    between atoms: C_3  and  C_9
REMARK    2  A    between atoms: C_6  and  N_14
REMARK    3  A    between atoms: C_15  and  C_18
REMARK    4  A    between atoms: C_22  and  C_30
REMARK    5  A    between atoms: N_27  and  C_32
REMARK                            x       y       z     vdW  Elec       q    Type
REMARK                         _______ _______ _______ _____ _____    ______ ____
ROOT
ATOM      1  O   UNL     1      36.862 -21.867 -20.148  0.00  0.00    -0.270 OA
ATOM      2  N   UNL     1      35.245 -20.173 -19.999  0.00  0.00    -0.259 N 
ATOM      3  C   UNL     1      35.845 -21.385 -19.626  0.00  0.00    +0.253 C 
ATOM      4  H   UNL     1      34.440 -19.921 -19.492  0.00  0.00    +0.157 HD
ATOM      5  N   UNL     1      34.911 -18.148 -21.202  0.00  0.00    -0.388 NA
ATOM      6  C   UNL     1      35.331 -17.314 -22.179  0.00  0.00    +0.166 C 
ATOM      7  C   UNL     1      35.644 -19.267 -21.011  0.00  0.00    +0.167 C 
ATOM      8  C   UNL     1      36.445 -17.545 -22.970  0.00  0.00    +0.031 C 
ATOM      9  C   UNL     1      36.773 -19.590 -21.748  0.00  0.00    +0.101 C 
ATOM     10  C   UNL     1      37.174 -18.707 -22.745  0.00  0.00    -0.015 C 
ENDROOT
BRANCH   3  15
ATOM     11  F   UNL     1      33.101 -21.985 -19.599  0.00  0.00    -0.204 F 
ATOM     12  C   UNL     1      35.381 -23.169 -16.365  0.00  0.00    +0.046 C 
ATOM     13  C   UNL     1      34.013 -23.445 -16.398  0.00  0.00    -0.006 C 
ATOM     14  C   UNL     1      35.981 -22.492 -17.426  0.00  0.00    +0.021 C 
ATOM     15  C   UNL     1      35.215 -22.090 -18.520  0.00  0.00    +0.082 C 
ATOM     16  C   UNL     1      33.247 -23.042 -17.491  0.00  0.00    +0.027 C 
ATOM     17  C   UNL     1      33.338 -24.167 -15.276  0.00  0.00    +0.032 C 
ATOM     18  C   UNL     1      33.848 -22.366 -18.553  0.00  0.00    +0.144 C 
BRANCH  12  20
ATOM     19  N   UNL     1      36.950 -23.644 -13.214  0.00  0.00    -0.255 NA
ATOM     20  N   UNL     1      36.159 -23.559 -15.288  0.00  0.00    -0.282 N 
ATOM     21  C   UNL     1      37.624 -24.533 -14.012  0.00  0.00    +0.053 C 
ATOM     22  C   UNL     1      37.151 -24.499 -15.303  0.00  0.00    +0.134 C 
ATOM     23  C   UNL     1      36.075 -23.074 -14.012  0.00  0.00    +0.219 C 
BRANCH  21  24
ATOM     24  C   UNL     1      38.750 -25.439 -13.523  0.00  0.00    +0.037 C 
ATOM     25  C   UNL     1      40.166 -25.071 -13.856  0.00  0.00    +0.006 C 
ATOM     26  C   UNL     1      39.516 -26.244 -14.530  0.00  0.00    +0.006 C 
ENDBRANCH  21  24
ENDBRANCH  12  20
ENDBRANCH   3  15
BRANCH   6  30
ATOM     27  N   UNL     1      34.120 -15.657 -23.560  0.00  0.00    -0.252 N 
ATOM     28  N   UNL     1      34.063 -15.363 -21.392  0.00  0.00    -0.129 NA
ATOM     29  N   UNL     1      33.339 -14.350 -21.989  0.00  0.00    -0.128 NA
ATOM     30  C   UNL     1      34.523 -16.135 -22.350  0.00  0.00    +0.188 C 
ATOM     31  C   UNL     1      33.384 -14.543 -23.287  0.00  0.00    +0.192 C 
BRANCH  27  32
ATOM     32  C   UNL     1      34.397 -16.197 -24.869  0.00  0.00    +0.080 C 
ATOM     33  C   UNL     1      33.870 -17.627 -25.011  0.00  0.00    +0.022 C 
ATOM     34  C   UNL     1      33.842 -15.299 -25.977  0.00  0.00    +0.022 C 
ENDBRANCH  27  32
ENDBRANCH   6  30
TORSDOF 5
ENDMDL
MODEL 8
REMARK VINA RESULT:     -12.3      1.776     10.798
REMARK  Name = 71245288
REMARK  5 active torsions:
REMARK  status: ('A' for Active; 'I' for Inactive)
REMARK    1  A    between atoms: C_3  and  C_9
REMARK    2  A    between atoms: C_6  and  N_14
REMARK    3  A    between atoms: C_15  and  C_18
REMARK    4  A    between atoms: C_22  and  C_30
REMARK    5  A    between atoms: N_27  and  C_32
REMARK                            x       y       z     vdW  Elec       q    Type
REMARK                         _______ _______ _______ _____ _____    ______ ____
ROOT
ATOM      1  O   UNL     1      32.192 -13.850 -21.539  0.00  0.00    -0.270 OA
ATOM      2  N   UNL     1      33.394 -12.467 -23.005  0.00  0.00    -0.259 N 
ATOM      3  C   UNL     1      32.987 -13.702 -22.480  0.00  0.00    +0.253 C 
ATOM      4  H   UNL     1      34.032 -12.509 -23.753  0.00  0.00    +0.157 HD
ATOM      5  N   UNL     1      33.530 -10.105 -23.250  0.00  0.00    -0.388 NA
ATOM      6  C   UNL     1      33.133  -8.884 -22.825  0.00  0.00    +0.166 C 
ATOM      7  C   UNL     1      33.009 -11.167 -22.597  0.00  0.00    +0.167 C 
ATOM      8  C   UNL     1      32.242  -8.677 -21.785  0.00  0.00    +0.031 C 
ATOM      9  C   UNL     1      32.112 -11.067 -21.546  0.00  0.00    +0.101 C 
ATOM     10  C   UNL     1      31.726  -9.794 -21.137  0.00  0.00    -0.015 C 
ENDROOT
BRANCH   3  15
ATOM     11  F   UNL     1      32.915 -14.049 -25.266  0.00  0.00    -0.204 F 
ATOM     12  C   UNL     1      34.660 -17.016 -22.984  0.00  0.00    +0.046 C 
ATOM     13  C   UNL     1      34.600 -17.143 -24.372  0.00  0.00    -0.006 C 
ATOM     14  C   UNL     1      34.129 -15.885 -22.363  0.00  0.00    +0.021 C 
ATOM     15  C   UNL     1      33.539 -14.881 -23.131  0.00  0.00    +0.082 C 
ATOM     16  C   UNL     1      34.010 -16.139 -25.139  0.00  0.00    +0.027 C 
ATOM     17  C   UNL     1      35.158 -18.342 -25.069  0.00  0.00    +0.032 C 
ATOM     18  C   UNL     1      33.480 -15.008 -24.518  0.00  0.00    +0.144 C 
BRANCH  12  20
ATOM     19  N   UNL     1      36.713 -19.011 -20.881  0.00  0.00    -0.255 NA
ATOM     20  N   UNL     1      35.241 -18.002 -22.204  0.00  0.00    -0.282 N 
ATOM     21  C   UNL     1      35.658 -19.850 -21.140  0.00  0.00    +0.053 C 
ATOM     22  C   UNL     1      34.732 -19.246 -21.958  0.00  0.00    +0.134 C 
ATOM     23  C   UNL     1      36.431 -17.907 -21.536  0.00  0.00    +0.219 C 
BRANCH  21  24
ATOM     24  C   UNL     1      35.536 -21.267 -20.588  0.00  0.00    +0.037 C 
ATOM     25  C   UNL     1      34.498 -21.544 -19.540  0.00  0.00    +0.006 C 
ATOM     26  C   UNL     1      35.953 -21.525 -19.170  0.00  0.00    +0.006 C 
ENDBRANCH  21  24
ENDBRANCH  12  20
ENDBRANCH   3  15
BRANCH   6  30
ATOM     27  N   UNL     1      33.008  -6.694 -23.967  0.00  0.00    -0.252 N 
ATOM     28  N   UNL     1      34.971  -7.656 -23.896  0.00  0.00    -0.129 NA
ATOM     29  N   UNL     1      35.098  -6.455 -24.566  0.00  0.00    -0.128 NA
ATOM     30  C   UNL     1      33.711  -7.781 -23.546  0.00  0.00    +0.188 C 
ATOM     31  C   UNL     1      33.912  -5.893 -24.598  0.00  0.00    +0.192 C 
BRANCH  27  32
ATOM     32  C   UNL     1      31.601  -6.421 -23.794  0.00  0.00    +0.080 C 
ATOM     33  C   UNL     1      31.249  -4.992 -24.216  0.00  0.00    +0.022 C 
ATOM     34  C   UNL     1      30.735  -7.439 -24.539  0.00  0.00    +0.022 C 
ENDBRANCH  27  32
ENDBRANCH   6  30
TORSDOF 5
ENDMDL
MODEL 9
REMARK VINA RESULT:     -11.9      1.259      2.088
REMARK  Name = 71245288
REMARK  5 active torsions:
REMARK  status: ('A' for Active; 'I' for Inactive)
REMARK    1  A    between atoms: C_3  and  C_9
REMARK    2  A    between atoms: C_6  and  N_14
REMARK    3  A    between atoms: C_15  and  C_18
REMARK    4  A    between atoms: C_22  and  C_30
REMARK    5  A    between atoms: N_27  and  C_32
REMARK                            x       y       z     vdW  Elec       q    Type
REMARK                         _______ _______ _______ _____ _____    ______ ____
ROOT
ATOM      1  O   UNL     1      33.712 -13.361 -24.884  0.00  0.00    -0.270 OA
ATOM      2  N   UNL     1      33.671 -14.678 -22.942  0.00  0.00    -0.259 N 
ATOM      3  C   UNL     1      33.493 -13.492 -23.670  0.00  0.00    +0.253 C 
ATOM      4  H   UNL     1      33.455 -14.628 -21.983  0.00  0.00    +0.157 HD
ATOM      5  N   UNL     1      34.220 -16.954 -22.522  0.00  0.00    -0.388 NA
ATOM      6  C   UNL     1      34.656 -18.136 -23.011  0.00  0.00    +0.166 C 
ATOM      7  C   UNL     1      34.123 -15.937 -23.406  0.00  0.00    +0.167 C 
ATOM      8  C   UNL     1      34.995 -18.349 -24.338  0.00  0.00    +0.031 C 
ATOM      9  C   UNL     1      34.437 -16.047 -24.752  0.00  0.00    +0.101 C 
ATOM     10  C   UNL     1      34.881 -17.279 -25.218  0.00  0.00    -0.015 C 
ENDROOT
BRANCH   3  15
ATOM     11  F   UNL     1      32.140 -13.796 -21.228  0.00  0.00    -0.204 F 
ATOM     12  C   UNL     1      32.682  -9.970 -22.686  0.00  0.00    +0.046 C 
ATOM     13  C   UNL     1      32.016 -10.172 -21.477  0.00  0.00    -0.006 C 
ATOM     14  C   UNL     1      33.166 -11.062 -23.406  0.00  0.00    +0.021 C 
ATOM     15  C   UNL     1      32.986 -12.356 -22.917  0.00  0.00    +0.082 C 
ATOM     16  C   UNL     1      31.834 -11.465 -20.988  0.00  0.00    +0.027 C 
ATOM     17  C   UNL     1      31.482  -9.024 -20.681  0.00  0.00    +0.032 C 
ATOM     18  C   UNL     1      32.320 -12.557 -21.708  0.00  0.00    +0.144 C 
BRANCH  12  20
ATOM     19  N   UNL     1      33.901  -6.799 -23.724  0.00  0.00    -0.255 NA
ATOM     20  N   UNL     1      32.871  -8.694 -23.189  0.00  0.00    -0.282 N 
ATOM     21  C   UNL     1      32.588  -6.752 -24.121  0.00  0.00    +0.053 C 
ATOM     22  C   UNL     1      31.929  -7.915 -23.800  0.00  0.00    +0.134 C 
ATOM     23  C   UNL     1      34.039  -7.982 -23.167  0.00  0.00    +0.219 C 
BRANCH  21  24
ATOM     24  C   UNL     1      31.951  -5.558 -24.826  0.00  0.00    +0.037 C 
ATOM     25  C   UNL     1      32.846  -4.503 -25.407  0.00  0.00    +0.006 C 
ATOM     26  C   UNL     1      32.037  -4.208 -24.177  0.00  0.00    +0.006 C 
ENDBRANCH  21  24
ENDBRANCH  12  20
ENDBRANCH   3  15
BRANCH   6  30
ATOM     27  N   UNL     1      35.808 -19.371 -21.203  0.00  0.00    -0.252 N 
ATOM     28  N   UNL     1      33.842 -20.118 -21.809  0.00  0.00    -0.129 NA
ATOM     29  N   UNL     1      34.324 -20.927 -20.800  0.00  0.00    -0.128 NA
ATOM     30  C   UNL     1      34.746 -19.192 -22.037  0.00  0.00    +0.188 C 
ATOM     31  C   UNL     1      35.502 -20.463 -20.449  0.00  0.00    +0.192 C 
BRANCH  27  32
ATOM     32  C   UNL     1      37.013 -18.583 -21.115  0.00  0.00    +0.080 C 
ATOM     33  C   UNL     1      37.787 -18.881 -19.828  0.00  0.00    +0.022 C 
ATOM     34  C   UNL     1      37.905 -18.778 -22.343  0.00  0.00    +0.022 C 
ENDBRANCH  27  32
ENDBRANCH   6  30
TORSDOF 5
ENDMDL
