MODEL 1
REMARK VINA RESULT:     -12.9      0.000      0.000
REMARK  Name = 25243828
REMARK  6 active torsions:
REMARK  status: ('A' for Active; 'I' for Inactive)
REMARK    1  A    between atoms: C_1  and  C_18
REMARK    2  A    between atoms: C_4  and  O_7
REMARK    3  A    between atoms: O_7  and  C_9
REMARK    4  A    between atoms: C_11  and  C_17
REMARK    5  A    between atoms: C_18  and  C_21
REMARK    6  A    between atoms: C_26  and  O_27
REMARK                            x       y       z     vdW  Elec       q    Type
REMARK                         _______ _______ _______ _____ _____    ______ ____
ROOT
ATOM      1  C   UNL     1      35.160 -18.153 -22.664  0.00  0.00    -0.019 C 
ATOM      2  C   UNL     1      35.249 -16.781 -22.895  0.00  0.00    +0.033 C 
ATOM      3  C   UNL     1      34.663 -18.998 -23.658  0.00  0.00    -0.004 C 
ATOM      4  C   UNL     1      34.840 -16.252 -24.119  0.00  0.00    +0.147 C 
ATOM      5  C   UNL     1      34.254 -18.468 -24.882  0.00  0.00    +0.003 C 
ATOM      6  C   UNL     1      34.343 -17.095 -25.113  0.00  0.00    +0.038 C 
ENDROOT
BRANCH   4   7
ATOM      7  O   UNL     1      34.924 -14.912 -24.344  0.00  0.00    -0.436 OA
BRANCH   7   9
ATOM      8  N   UNL     1      34.045 -12.785 -23.962  0.00  0.00    -0.210 NA
ATOM      9  C   UNL     1      34.127 -14.079 -23.577  0.00  0.00    +0.230 C 
ATOM     10  C   UNL     1      33.467 -14.604 -22.478  0.00  0.00    +0.058 C 
ATOM     11  C   UNL     1      32.562 -12.410 -22.090  0.00  0.00    +0.091 C 
ATOM     12  C   UNL     1      32.671 -13.747 -21.725  0.00  0.00    +0.010 C 
ATOM     13  C   UNL     1      33.262 -11.982 -23.206  0.00  0.00    +0.106 C 
BRANCH  11  17
ATOM     14  F   UNL     1      32.003 -10.150 -21.536  0.00  0.00    -0.166 F 
ATOM     15  F   UNL     1      30.380 -11.589 -21.553  0.00  0.00    -0.166 F 
ATOM     16  F   UNL     1      31.855 -11.635 -19.956  0.00  0.00    -0.166 F 
ATOM     17  C   UNL     1      31.719 -11.468 -21.304  0.00  0.00    +0.420 C 
ENDBRANCH  11  17
ENDBRANCH   7   9
ENDBRANCH   4   7
BRANCH   1  18
ATOM     18  C   UNL     1      35.599 -18.726 -21.344  0.00  0.00    +0.027 C 
BRANCH  18  21
ATOM     19  O   UNL     1      34.368 -23.283 -17.384  0.00  0.00    -0.226 OA
ATOM     20  N   UNL     1      33.937 -22.164 -19.377  0.00  0.00    -0.246 N 
ATOM     21  C   UNL     1      35.040 -20.130 -21.125  0.00  0.00    +0.008 C 
ATOM     22  C   UNL     1      35.918 -20.922 -20.144  0.00  0.00    +0.022 C 
ATOM     23  C   UNL     1      33.590 -20.067 -20.618  0.00  0.00    +0.022 C 
ATOM     24  C   UNL     1      35.318 -22.296 -19.848  0.00  0.00    +0.097 C 
ATOM     25  C   UNL     1      33.051 -21.465 -20.318  0.00  0.00    +0.097 C 
ATOM     26  C   UNL     1      33.586 -22.697 -18.133  0.00  0.00    +0.402 C 
BRANCH  26  27
ATOM     27  O   UNL     1      32.288 -22.533 -17.747  0.00  0.00    -0.466 OA
ATOM     28  H   UNL     1      31.756 -23.283 -17.567  0.00  0.00    +0.297 HD
ENDBRANCH  26  27
ENDBRANCH  18  21
ENDBRANCH   1  18
TORSDOF 6
ENDMDL
MODEL 2
REMARK VINA RESULT:     -12.8      5.520      8.844
REMARK  Name = 25243828
REMARK  6 active torsions:
REMARK  status: ('A' for Active; 'I' for Inactive)
REMARK    1  A    between atoms: C_1  and  C_18
REMARK    2  A    between atoms: C_4  and  O_7
REMARK    3  A    between atoms: O_7  and  C_9
REMARK    4  A    between atoms: C_11  and  C_17
REMARK    5  A    between atoms: C_18  and  C_21
REMARK    6  A    between atoms: C_26  and  O_27
REMARK                            x       y       z     vdW  Elec       q    Type
REMARK                         _______ _______ _______ _____ _____    ______ ____
ROOT
ATOM      1  C   UNL     1      33.739 -23.475 -15.296  0.00  0.00    -0.019 C 
ATOM      2  C   UNL     1      33.950 -23.540 -16.673  0.00  0.00    +0.033 C 
ATOM      3  C   UNL     1      32.492 -23.098 -14.798  0.00  0.00    -0.004 C 
ATOM      4  C   UNL     1      32.914 -23.227 -17.553  0.00  0.00    +0.147 C 
ATOM      5  C   UNL     1      31.455 -22.785 -15.678  0.00  0.00    +0.003 C 
ATOM      6  C   UNL     1      31.666 -22.850 -17.056  0.00  0.00    +0.038 C 
ENDROOT
BRANCH   4   7
ATOM      7  O   UNL     1      33.120 -23.288 -18.897  0.00  0.00    -0.436 OA
BRANCH   7   9
ATOM      8  N   UNL     1      35.194 -22.420 -19.520  0.00  0.00    -0.210 NA
ATOM      9  C   UNL     1      33.851 -22.269 -19.484  0.00  0.00    +0.230 C 
ATOM     10  C   UNL     1      33.180 -21.169 -19.995  0.00  0.00    +0.058 C 
ATOM     11  C   UNL     1      35.321 -20.281 -20.637  0.00  0.00    +0.091 C 
ATOM     12  C   UNL     1      33.937 -20.160 -20.582  0.00  0.00    +0.010 C 
ATOM     13  C   UNL     1      35.896 -21.419 -20.097  0.00  0.00    +0.106 C 
BRANCH  11  17
ATOM     14  F   UNL     1      35.761 -17.948 -20.939  0.00  0.00    -0.166 F 
ATOM     15  F   UNL     1      37.476 -19.276 -20.897  0.00  0.00    -0.166 F 
ATOM     16  F   UNL     1      36.152 -19.268 -22.622  0.00  0.00    -0.166 F 
ATOM     17  C   UNL     1      36.158 -19.218 -21.257  0.00  0.00    +0.420 C 
ENDBRANCH  11  17
ENDBRANCH   7   9
ENDBRANCH   4   7
BRANCH   1  18
ATOM     18  C   UNL     1      34.856 -23.810 -14.346  0.00  0.00    +0.027 C 
BRANCH  18  21
ATOM     19  O   UNL     1      40.975 -24.525 -14.477  0.00  0.00    -0.226 OA
ATOM     20  N   UNL     1      38.842 -25.228 -15.086  0.00  0.00    -0.246 N 
ATOM     21  C   UNL     1      36.076 -24.359 -15.082  0.00  0.00    +0.008 C 
ATOM     22  C   UNL     1      37.242 -23.360 -15.031  0.00  0.00    +0.022 C 
ATOM     23  C   UNL     1      36.504 -25.714 -14.495  0.00  0.00    +0.022 C 
ATOM     24  C   UNL     1      38.496 -23.937 -15.686  0.00  0.00    +0.097 C 
ATOM     25  C   UNL     1      37.772 -26.231 -15.172  0.00  0.00    +0.097 C 
ATOM     26  C   UNL     1      40.108 -25.398 -14.515  0.00  0.00    +0.402 C 
BRANCH  26  27
ATOM     27  O   UNL     1      40.365 -26.619 -13.965  0.00  0.00    -0.466 OA
ATOM     28  H   UNL     1      41.251 -26.890 -13.821  0.00  0.00    +0.297 HD
ENDBRANCH  26  27
ENDBRANCH  18  21
ENDBRANCH   1  18
TORSDOF 6
ENDMDL
MODEL 3
REMARK VINA RESULT:     -12.7      4.557      8.622
REMARK  Name = 25243828
REMARK  6 active torsions:
REMARK  status: ('A' for Active; 'I' for Inactive)
REMARK    1  A    between atoms: C_1  and  C_18
REMARK    2  A    between atoms: C_4  and  O_7
REMARK    3  A    between atoms: O_7  and  C_9
REMARK    4  A    between atoms: C_11  and  C_17
REMARK    5  A    between atoms: C_18  and  C_21
REMARK    6  A    between atoms: C_26  and  O_27
REMARK                            x       y       z     vdW  Elec       q    Type
REMARK                         _______ _______ _______ _____ _____    ______ ____
ROOT
ATOM      1  C   UNL     1      35.031 -16.607 -23.600  0.00  0.00    -0.019 C 
ATOM      2  C   UNL     1      35.715 -17.270 -22.582  0.00  0.00    +0.033 C 
ATOM      3  C   UNL     1      34.396 -17.336 -24.606  0.00  0.00    -0.004 C 
ATOM      4  C   UNL     1      35.765 -18.665 -22.570  0.00  0.00    +0.147 C 
ATOM      5  C   UNL     1      34.446 -18.730 -24.594  0.00  0.00    +0.003 C 
ATOM      6  C   UNL     1      35.130 -19.395 -23.575  0.00  0.00    +0.038 C 
ENDROOT
BRANCH   4   7
ATOM      7  O   UNL     1      36.434 -19.314 -21.578  0.00  0.00    -0.436 OA
BRANCH   7   9
ATOM      8  N   UNL     1      36.410 -20.943 -19.909  0.00  0.00    -0.210 NA
ATOM      9  C   UNL     1      35.707 -20.160 -20.758  0.00  0.00    +0.230 C 
ATOM     10  C   UNL     1      34.324 -20.160 -20.848  0.00  0.00    +0.058 C 
ATOM     11  C   UNL     1      34.306 -21.837 -19.124  0.00  0.00    +0.091 C 
ATOM     12  C   UNL     1      33.617 -21.017 -20.011  0.00  0.00    +0.010 C 
ATOM     13  C   UNL     1      35.689 -21.763 -19.111  0.00  0.00    +0.106 C 
BRANCH  11  17
ATOM     14  F   UNL     1      32.279 -22.408 -17.988  0.00  0.00    -0.166 F 
ATOM     15  F   UNL     1      33.513 -24.051 -18.684  0.00  0.00    -0.166 F 
ATOM     16  F   UNL     1      34.153 -22.859 -16.982  0.00  0.00    -0.166 F 
ATOM     17  C   UNL     1      33.578 -22.767 -18.218  0.00  0.00    +0.420 C 
ENDBRANCH  11  17
ENDBRANCH   7   9
ENDBRANCH   4   7
BRANCH   1  18
ATOM     18  C   UNL     1      34.978 -15.103 -23.616  0.00  0.00    +0.027 C 
BRANCH  18  21
ATOM     19  O   UNL     1      32.106 -11.294 -19.716  0.00  0.00    -0.226 OA
ATOM     20  N   UNL     1      32.126 -12.540 -21.681  0.00  0.00    -0.246 N 
ATOM     21  C   UNL     1      33.655 -14.581 -23.061  0.00  0.00    +0.008 C 
ATOM     22  C   UNL     1      33.734 -14.397 -21.538  0.00  0.00    +0.022 C 
ATOM     23  C   UNL     1      33.261 -13.260 -23.742  0.00  0.00    +0.022 C 
ATOM     24  C   UNL     1      32.445 -13.789 -20.985  0.00  0.00    +0.097 C 
ATOM     25  C   UNL     1      31.980 -12.688 -23.135  0.00  0.00    +0.097 C 
ATOM     26  C   UNL     1      31.982 -11.363 -20.939  0.00  0.00    +0.402 C 
BRANCH  26  27
ATOM     27  O   UNL     1      31.694 -10.233 -21.645  0.00  0.00    -0.466 OA
ATOM     28  H   UNL     1      32.224  -9.468 -21.539  0.00  0.00    +0.297 HD
ENDBRANCH  26  27
ENDBRANCH  18  21
ENDBRANCH   1  18
TORSDOF 6
ENDMDL
MODEL 4
REMARK VINA RESULT:     -12.5      4.607      9.152
REMARK  Name = 25243828
REMARK  6 active torsions:
REMARK  status: ('A' for Active; 'I' for Inactive)
REMARK    1  A    between atoms: C_1  and  C_18
REMARK    2  A    between atoms: C_4  and  O_7
REMARK    3  A    between atoms: O_7  and  C_9
REMARK    4  A    between atoms: C_11  and  C_17
REMARK    5  A    between atoms: C_18  and  C_21
REMARK    6  A    between atoms: C_26  and  O_27
REMARK                            x       y       z     vdW  Elec       q    Type
REMARK                         _______ _______ _______ _____ _____    ______ ____
ROOT
ATOM      1  C   UNL     1      34.894 -16.333 -21.888  0.00  0.00    -0.019 C 
ATOM      2  C   UNL     1      35.530 -17.396 -21.248  0.00  0.00    +0.033 C 
ATOM      3  C   UNL     1      34.658 -16.384 -23.262  0.00  0.00    -0.004 C 
ATOM      4  C   UNL     1      35.931 -18.512 -21.983  0.00  0.00    +0.147 C 
ATOM      5  C   UNL     1      35.060 -17.500 -23.997  0.00  0.00    +0.003 C 
ATOM      6  C   UNL     1      35.696 -18.565 -23.357  0.00  0.00    +0.038 C 
ENDROOT
BRANCH   4   7
ATOM      7  O   UNL     1      36.554 -19.550 -21.360  0.00  0.00    -0.436 OA
BRANCH   7   9
ATOM      8  N   UNL     1      36.442 -21.081 -19.604  0.00  0.00    -0.210 NA
ATOM      9  C   UNL     1      35.787 -20.367 -20.547  0.00  0.00    +0.230 C 
ATOM     10  C   UNL     1      34.416 -20.408 -20.738  0.00  0.00    +0.058 C 
ATOM     11  C   UNL     1      34.306 -21.984 -18.924  0.00  0.00    +0.091 C 
ATOM     12  C   UNL     1      33.668 -21.235 -19.906  0.00  0.00    +0.010 C 
ATOM     13  C   UNL     1      35.683 -21.873 -18.815  0.00  0.00    +0.106 C 
BRANCH  11  17
ATOM     14  F   UNL     1      32.231 -22.500 -17.852  0.00  0.00    -0.166 F 
ATOM     15  F   UNL     1      33.472 -24.176 -18.451  0.00  0.00    -0.166 F 
ATOM     16  F   UNL     1      34.059 -22.941 -16.761  0.00  0.00    -0.166 F 
ATOM     17  C   UNL     1      33.534 -22.879 -18.020  0.00  0.00    +0.420 C 
ENDBRANCH  11  17
ENDBRANCH   7   9
ENDBRANCH   4   7
BRANCH   1  18
ATOM     18  C   UNL     1      34.462 -15.128 -21.098  0.00  0.00    +0.027 C 
BRANCH  18  21
ATOM     19  O   UNL     1      31.755  -9.629 -21.733  0.00  0.00    -0.226 OA
ATOM     20  N   UNL     1      32.530 -11.621 -22.652  0.00  0.00    -0.246 N 
ATOM     21  C   UNL     1      33.506 -14.245 -21.895  0.00  0.00    +0.008 C 
ATOM     22  C   UNL     1      32.627 -13.402 -20.957  0.00  0.00    +0.022 C 
ATOM     23  C   UNL     1      34.280 -13.337 -22.865  0.00  0.00    +0.022 C 
ATOM     24  C   UNL     1      31.730 -12.448 -21.745  0.00  0.00    +0.097 C 
ATOM     25  C   UNL     1      33.337 -12.392 -23.608  0.00  0.00    +0.097 C 
ATOM     26  C   UNL     1      32.457 -10.228 -22.548  0.00  0.00    +0.402 C 
BRANCH  26  27
ATOM     27  O   UNL     1      33.232  -9.514 -23.414  0.00  0.00    -0.466 OA
ATOM     28  H   UNL     1      32.957  -9.398 -24.301  0.00  0.00    +0.297 HD
ENDBRANCH  26  27
ENDBRANCH  18  21
ENDBRANCH   1  18
TORSDOF 6
ENDMDL
MODEL 5
REMARK VINA RESULT:     -12.2      3.447      5.027
REMARK  Name = 25243828
REMARK  6 active torsions:
REMARK  status: ('A' for Active; 'I' for Inactive)
REMARK    1  A    between atoms: C_1  and  C_18
REMARK    2  A    between atoms: C_4  and  O_7
REMARK    3  A    between atoms: O_7  and  C_9
REMARK    4  A    between atoms: C_11  and  C_17
REMARK    5  A    between atoms: C_18  and  C_21
REMARK    6  A    between atoms: C_26  and  O_27
REMARK                            x       y       z     vdW  Elec       q    Type
REMARK                         _______ _______ _______ _____ _____    ______ ____
ROOT
ATOM      1  C   UNL     1      35.712 -21.079 -19.947  0.00  0.00    -0.019 C 
ATOM      2  C   UNL     1      36.357 -20.056 -20.641  0.00  0.00    +0.033 C 
ATOM      3  C   UNL     1      34.321 -21.181 -19.987  0.00  0.00    -0.004 C 
ATOM      4  C   UNL     1      35.611 -19.133 -21.375  0.00  0.00    +0.147 C 
ATOM      5  C   UNL     1      33.575 -20.258 -20.722  0.00  0.00    +0.003 C 
ATOM      6  C   UNL     1      34.220 -19.234 -21.416  0.00  0.00    +0.038 C 
ENDROOT
BRANCH   4   7
ATOM      7  O   UNL     1      36.240 -18.133 -22.051  0.00  0.00    -0.436 OA
BRANCH   7   9
ATOM      8  N   UNL     1      35.097 -16.207 -22.706  0.00  0.00    -0.210 NA
ATOM      9  C   UNL     1      35.516 -17.454 -23.017  0.00  0.00    +0.230 C 
ATOM     10  C   UNL     1      35.265 -18.076 -24.229  0.00  0.00    +0.058 C 
ATOM     11  C   UNL     1      34.091 -16.087 -24.900  0.00  0.00    +0.091 C 
ATOM     12  C   UNL     1      34.539 -17.372 -25.184  0.00  0.00    +0.010 C 
ATOM     13  C   UNL     1      34.394 -15.554 -23.658  0.00  0.00    +0.106 C 
BRANCH  11  17
ATOM     14  F   UNL     1      32.435 -16.068 -26.627  0.00  0.00    -0.166 F 
ATOM     15  F   UNL     1      32.545 -14.318 -25.350  0.00  0.00    -0.166 F 
ATOM     16  F   UNL     1      34.102 -14.686 -26.822  0.00  0.00    -0.166 F 
ATOM     17  C   UNL     1      33.310 -15.309 -25.900  0.00  0.00    +0.420 C 
ENDBRANCH  11  17
ENDBRANCH   7   9
ENDBRANCH   4   7
BRANCH   1  18
ATOM     18  C   UNL     1      36.514 -22.073 -19.153  0.00  0.00    +0.027 C 
BRANCH  18  21
ATOM     19  O   UNL     1      35.347 -24.944 -13.827  0.00  0.00    -0.226 OA
ATOM     20  N   UNL     1      36.178 -23.114 -15.000  0.00  0.00    -0.246 N 
ATOM     21  C   UNL     1      36.236 -21.954 -17.657  0.00  0.00    +0.008 C 
ATOM     22  C   UNL     1      35.138 -22.938 -17.223  0.00  0.00    +0.022 C 
ATOM     23  C   UNL     1      37.519 -22.188 -16.842  0.00  0.00    +0.022 C 
ATOM     24  C   UNL     1      34.917 -22.891 -15.712  0.00  0.00    +0.097 C 
ATOM     25  C   UNL     1      37.234 -22.152 -15.342  0.00  0.00    +0.097 C 
ATOM     26  C   UNL     1      36.268 -24.169 -14.086  0.00  0.00    +0.402 C 
BRANCH  26  27
ATOM     27  O   UNL     1      37.470 -24.330 -13.463  0.00  0.00    -0.466 OA
ATOM     28  H   UNL     1      38.129 -24.872 -13.850  0.00  0.00    +0.297 HD
ENDBRANCH  26  27
ENDBRANCH  18  21
ENDBRANCH   1  18
TORSDOF 6
ENDMDL
MODEL 6
REMARK VINA RESULT:     -12.1      6.490     11.102
REMARK  Name = 25243828
REMARK  6 active torsions:
REMARK  status: ('A' for Active; 'I' for Inactive)
REMARK    1  A    between atoms: C_1  and  C_18
REMARK    2  A    between atoms: C_4  and  O_7
REMARK    3  A    between atoms: O_7  and  C_9
REMARK    4  A    between atoms: C_11  and  C_17
REMARK    5  A    between atoms: C_18  and  C_21
REMARK    6  A    between atoms: C_26  and  O_27
REMARK                            x       y       z     vdW  Elec       q    Type
REMARK                         _______ _______ _______ _____ _____    ______ ____
ROOT
ATOM      1  C   UNL     1      35.044 -21.144 -19.790  0.00  0.00    -0.019 C 
ATOM      2  C   UNL     1      34.416 -21.943 -18.835  0.00  0.00    +0.033 C 
ATOM      3  C   UNL     1      36.416 -20.907 -19.709  0.00  0.00    -0.004 C 
ATOM      4  C   UNL     1      35.161 -22.505 -17.798  0.00  0.00    +0.147 C 
ATOM      5  C   UNL     1      37.161 -21.469 -18.672  0.00  0.00    +0.003 C 
ATOM      6  C   UNL     1      36.534 -22.269 -17.717  0.00  0.00    +0.038 C 
ENDROOT
BRANCH   4   7
ATOM      7  O   UNL     1      34.549 -23.284 -16.864  0.00  0.00    -0.436 OA
BRANCH   7   9
ATOM      8  N   UNL     1      35.661 -25.094 -15.901  0.00  0.00    -0.210 NA
ATOM      9  C   UNL     1      35.327 -23.786 -15.834  0.00  0.00    +0.230 C 
ATOM     10  C   UNL     1      35.715 -22.938 -14.810  0.00  0.00    +0.058 C 
ATOM     11  C   UNL     1      36.863 -24.807 -13.824  0.00  0.00    +0.091 C 
ATOM     12  C   UNL     1      36.499 -23.466 -13.789  0.00  0.00    +0.010 C 
ATOM     13  C   UNL     1      36.423 -25.572 -14.891  0.00  0.00    +0.106 C 
BRANCH  11  17
ATOM     14  F   UNL     1      37.926 -24.557 -11.695  0.00  0.00    -0.166 F 
ATOM     15  F   UNL     1      37.154 -26.525 -12.184  0.00  0.00    -0.166 F 
ATOM     16  F   UNL     1      38.936 -25.779 -13.182  0.00  0.00    -0.166 F 
ATOM     17  C   UNL     1      37.698 -25.402 -12.745  0.00  0.00    +0.420 C 
ENDBRANCH  11  17
ENDBRANCH   7   9
ENDBRANCH   4   7
BRANCH   1  18
ATOM     18  C   UNL     1      34.242 -20.535 -20.907  0.00  0.00    +0.027 C 
BRANCH  18  21
ATOM     19  O   UNL     1      34.635 -16.869 -25.845  0.00  0.00    -0.226 OA
ATOM     20  N   UNL     1      35.221 -17.379 -23.651  0.00  0.00    -0.246 N 
ATOM     21  C   UNL     1      35.058 -19.512 -21.693  0.00  0.00    +0.008 C 
ATOM     22  C   UNL     1      34.973 -19.786 -23.203  0.00  0.00    +0.022 C 
ATOM     23  C   UNL     1      34.589 -18.081 -21.380  0.00  0.00    +0.022 C 
ATOM     24  C   UNL     1      35.711 -18.714 -24.004  0.00  0.00    +0.097 C 
ATOM     25  C   UNL     1      35.345 -17.056 -22.224  0.00  0.00    +0.097 C 
ATOM     26  C   UNL     1      34.709 -16.553 -24.657  0.00  0.00    +0.402 C 
BRANCH  26  27
ATOM     27  O   UNL     1      34.260 -15.327 -24.264  0.00  0.00    -0.466 OA
ATOM     28  H   UNL     1      33.361 -15.212 -24.027  0.00  0.00    +0.297 HD
ENDBRANCH  26  27
ENDBRANCH  18  21
ENDBRANCH   1  18
TORSDOF 6
ENDMDL
MODEL 7
REMARK VINA RESULT:     -12.0      4.562      9.146
REMARK  Name = 25243828
REMARK  6 active torsions:
REMARK  status: ('A' for Active; 'I' for Inactive)
REMARK    1  A    between atoms: C_1  and  C_18
REMARK    2  A    between atoms: C_4  and  O_7
REMARK    3  A    between atoms: O_7  and  C_9
REMARK    4  A    between atoms: C_11  and  C_17
REMARK    5  A    between atoms: C_18  and  C_21
REMARK    6  A    between atoms: C_26  and  O_27
REMARK                            x       y       z     vdW  Elec       q    Type
REMARK                         _______ _______ _______ _____ _____    ______ ____
ROOT
ATOM      1  C   UNL     1      33.862 -15.022 -23.051  0.00  0.00    -0.019 C 
ATOM      2  C   UNL     1      34.821 -15.998 -22.781  0.00  0.00    +0.033 C 
ATOM      3  C   UNL     1      33.392 -14.846 -24.352  0.00  0.00    -0.004 C 
ATOM      4  C   UNL     1      35.312 -16.797 -23.814  0.00  0.00    +0.147 C 
ATOM      5  C   UNL     1      33.883 -15.645 -25.385  0.00  0.00    +0.003 C 
ATOM      6  C   UNL     1      34.843 -16.621 -25.116  0.00  0.00    +0.038 C 
ENDROOT
BRANCH   4   7
ATOM      7  O   UNL     1      36.250 -17.748 -23.553  0.00  0.00    -0.436 OA
BRANCH   7   9
ATOM      8  N   UNL     1      34.746 -19.248 -22.589  0.00  0.00    -0.210 NA
ATOM      9  C   UNL     1      35.970 -18.674 -22.562  0.00  0.00    +0.230 C 
ATOM     10  C   UNL     1      36.941 -18.960 -21.616  0.00  0.00    +0.058 C 
ATOM     11  C   UNL     1      35.387 -20.507 -20.628  0.00  0.00    +0.091 C 
ATOM     12  C   UNL     1      36.636 -19.896 -20.633  0.00  0.00    +0.010 C 
ATOM     13  C   UNL     1      34.486 -20.152 -21.618  0.00  0.00    +0.106 C 
BRANCH  11  17
ATOM     14  F   UNL     1      35.088 -22.805 -20.029  0.00  0.00    -0.166 F 
ATOM     15  F   UNL     1      35.842 -21.476 -18.488  0.00  0.00    -0.166 F 
ATOM     16  F   UNL     1      33.762 -21.349 -19.109  0.00  0.00    -0.166 F 
ATOM     17  C   UNL     1      35.030 -21.511 -19.588  0.00  0.00    +0.420 C 
ENDBRANCH  11  17
ENDBRANCH   7   9
ENDBRANCH   4   7
BRANCH   1  18
ATOM     18  C   UNL     1      33.333 -14.158 -21.939  0.00  0.00    +0.027 C 
BRANCH  18  21
ATOM     19  O   UNL     1      31.753  -8.268 -21.057  0.00  0.00    -0.226 OA
ATOM     20  N   UNL     1      32.219 -10.046 -22.483  0.00  0.00    -0.246 N 
ATOM     21  C   UNL     1      32.626 -12.917 -22.478  0.00  0.00    +0.008 C 
ATOM     22  C   UNL     1      31.844 -12.204 -21.363  0.00  0.00    +0.022 C 
ATOM     23  C   UNL     1      33.632 -11.954 -23.128  0.00  0.00    +0.022 C 
ATOM     24  C   UNL     1      31.207 -10.912 -21.871  0.00  0.00    +0.097 C 
ATOM     25  C   UNL     1      32.945 -10.672 -23.596  0.00  0.00    +0.097 C 
ATOM     26  C   UNL     1      32.397  -8.750 -21.989  0.00  0.00    +0.402 C 
BRANCH  26  27
ATOM     27  O   UNL     1      33.359  -7.997 -22.595  0.00  0.00    -0.466 OA
ATOM     28  H   UNL     1      33.119  -7.232 -23.079  0.00  0.00    +0.297 HD
ENDBRANCH  26  27
ENDBRANCH  18  21
ENDBRANCH   1  18
TORSDOF 6
ENDMDL
MODEL 8
REMARK VINA RESULT:     -12.0      4.864      9.517
REMARK  Name = 25243828
REMARK  6 active torsions:
REMARK  status: ('A' for Active; 'I' for Inactive)
REMARK    1  A    between atoms: C_1  and  C_18
REMARK    2  A    between atoms: C_4  and  O_7
REMARK    3  A    between atoms: O_7  and  C_9
REMARK    4  A    between atoms: C_11  and  C_17
REMARK    5  A    between atoms: C_18  and  C_21
REMARK    6  A    between atoms: C_26  and  O_27
REMARK                            x       y       z     vdW  Elec       q    Type
REMARK                         _______ _______ _______ _____ _____    ______ ____
ROOT
ATOM      1  C   UNL     1      34.712 -20.203 -20.808  0.00  0.00    -0.019 C 
ATOM      2  C   UNL     1      34.209 -21.389 -20.276  0.00  0.00    +0.033 C 
ATOM      3  C   UNL     1      36.036 -19.836 -20.566  0.00  0.00    -0.004 C 
ATOM      4  C   UNL     1      35.029 -22.209 -19.500  0.00  0.00    +0.147 C 
ATOM      5  C   UNL     1      36.857 -20.656 -19.791  0.00  0.00    +0.003 C 
ATOM      6  C   UNL     1      36.353 -21.843 -19.258  0.00  0.00    +0.038 C 
ENDROOT
BRANCH   4   7
ATOM      7  O   UNL     1      34.538 -23.366 -18.978  0.00  0.00    -0.436 OA
BRANCH   7   9
ATOM      8  N   UNL     1      32.419 -22.969 -18.087  0.00  0.00    -0.210 NA
ATOM      9  C   UNL     1      33.718 -23.274 -17.866  0.00  0.00    +0.230 C 
ATOM     10  C   UNL     1      34.260 -23.497 -16.611  0.00  0.00    +0.058 C 
ATOM     11  C   UNL     1      32.073 -23.090 -15.698  0.00  0.00    +0.091 C 
ATOM     12  C   UNL     1      33.414 -23.402 -15.511  0.00  0.00    +0.010 C 
ATOM     13  C   UNL     1      31.628 -22.885 -16.994  0.00  0.00    +0.106 C 
BRANCH  11  17
ATOM     14  F   UNL     1      30.018 -22.249 -14.805  0.00  0.00    -0.166 F 
ATOM     15  F   UNL     1      30.683 -24.185 -14.087  0.00  0.00    -0.166 F 
ATOM     16  F   UNL     1      31.718 -22.380 -13.456  0.00  0.00    -0.166 F 
ATOM     17  C   UNL     1      31.144 -22.979 -14.540  0.00  0.00    +0.420 C 
ENDBRANCH  11  17
ENDBRANCH   7   9
ENDBRANCH   4   7
BRANCH   1  18
ATOM     18  C   UNL     1      33.829 -19.317 -21.642  0.00  0.00    +0.027 C 
BRANCH  18  21
ATOM     19  O   UNL     1      33.895 -15.641 -26.587  0.00  0.00    -0.226 OA
ATOM     20  N   UNL     1      34.800 -16.308 -24.550  0.00  0.00    -0.246 N 
ATOM     21  C   UNL     1      34.645 -18.433 -22.582  0.00  0.00    +0.008 C 
ATOM     22  C   UNL     1      34.216 -18.644 -24.043  0.00  0.00    +0.022 C 
ATOM     23  C   UNL     1      34.511 -16.951 -22.193  0.00  0.00    +0.022 C 
ATOM     24  C   UNL     1      34.963 -17.699 -24.983  0.00  0.00    +0.097 C 
ATOM     25  C   UNL     1      35.258 -16.053 -23.178  0.00  0.00    +0.097 C 
ATOM     26  C   UNL     1      34.256 -15.377 -25.440  0.00  0.00    +0.402 C 
BRANCH  26  27
ATOM     27  O   UNL     1      34.121 -14.101 -24.975  0.00  0.00    -0.466 OA
ATOM     28  H   UNL     1      34.699 -13.430 -25.279  0.00  0.00    +0.297 HD
ENDBRANCH  26  27
ENDBRANCH  18  21
ENDBRANCH   1  18
TORSDOF 6
ENDMDL
MODEL 9
REMARK VINA RESULT:     -11.9      5.303     10.751
REMARK  Name = 25243828
REMARK  6 active torsions:
REMARK  status: ('A' for Active; 'I' for Inactive)
REMARK    1  A    between atoms: C_1  and  C_18
REMARK    2  A    between atoms: C_4  and  O_7
REMARK    3  A    between atoms: O_7  and  C_9
REMARK    4  A    between atoms: C_11  and  C_17
REMARK    5  A    between atoms: C_18  and  C_21
REMARK    6  A    between atoms: C_26  and  O_27
REMARK                            x       y       z     vdW  Elec       q    Type
REMARK                         _______ _______ _______ _____ _____    ______ ____
ROOT
ATOM      1  C   UNL     1      31.885 -11.567 -22.040  0.00  0.00    -0.019 C 
ATOM      2  C   UNL     1      32.702 -12.041 -23.065  0.00  0.00    +0.033 C 
ATOM      3  C   UNL     1      31.768 -12.287 -20.851  0.00  0.00    -0.004 C 
ATOM      4  C   UNL     1      33.402 -13.237 -22.902  0.00  0.00    +0.147 C 
ATOM      5  C   UNL     1      32.467 -13.483 -20.688  0.00  0.00    +0.003 C 
ATOM      6  C   UNL     1      33.285 -13.958 -21.713  0.00  0.00    +0.038 C 
ENDROOT
BRANCH   4   7
ATOM      7  O   UNL     1      34.198 -13.702 -23.903  0.00  0.00    -0.436 OA
BRANCH   7   9
ATOM      8  N   UNL     1      35.215 -15.562 -22.930  0.00  0.00    -0.210 NA
ATOM      9  C   UNL     1      34.465 -15.061 -23.936  0.00  0.00    +0.230 C 
ATOM     10  C   UNL     1      33.956 -15.820 -24.977  0.00  0.00    +0.058 C 
ATOM     11  C   UNL     1      35.005 -17.735 -23.967  0.00  0.00    +0.091 C 
ATOM     12  C   UNL     1      34.235 -17.183 -24.986  0.00  0.00    +0.010 C 
ATOM     13  C   UNL     1      35.467 -16.890 -22.972  0.00  0.00    +0.106 C 
BRANCH  11  17
ATOM     14  F   UNL     1      34.721 -19.872 -22.929  0.00  0.00    -0.166 F 
ATOM     15  F   UNL     1      34.944 -19.848 -25.087  0.00  0.00    -0.166 F 
ATOM     16  F   UNL     1      36.658 -19.437 -23.814  0.00  0.00    -0.166 F 
ATOM     17  C   UNL     1      35.322 -19.189 -23.950  0.00  0.00    +0.420 C 
ENDBRANCH  11  17
ENDBRANCH   7   9
ENDBRANCH   4   7
BRANCH   1  18
ATOM     18  C   UNL     1      31.128 -10.279 -22.214  0.00  0.00    +0.027 C 
BRANCH  18  21
ATOM     19  O   UNL     1      31.934  -4.589 -24.438  0.00  0.00    -0.226 OA
ATOM     20  N   UNL     1      32.507  -6.277 -22.942  0.00  0.00    -0.246 N 
ATOM     21  C   UNL     1      32.071  -9.096 -22.422  0.00  0.00    +0.008 C 
ATOM     22  C   UNL     1      31.889  -8.490 -23.823  0.00  0.00    +0.022 C 
ATOM     23  C   UNL     1      31.850  -8.025 -21.341  0.00  0.00    +0.022 C 
ATOM     24  C   UNL     1      32.762  -7.250 -24.008  0.00  0.00    +0.097 C 
ATOM     25  C   UNL     1      32.732  -6.802 -21.589  0.00  0.00    +0.097 C 
ATOM     26  C   UNL     1      32.099  -4.983 -23.283  0.00  0.00    +0.402 C 
BRANCH  26  27
ATOM     27  O   UNL     1      31.869  -4.127 -22.247  0.00  0.00    -0.466 OA
ATOM     28  H   UNL     1      32.267  -4.284 -21.414  0.00  0.00    +0.297 HD
ENDBRANCH  26  27
ENDBRANCH  18  21
ENDBRANCH   1  18
TORSDOF 6
ENDMDL
