MODEL 1
REMARK VINA RESULT:     -14.0      0.000      0.000
REMARK  Name = 11610526
REMARK  3 active torsions:
REMARK  status: ('A' for Active; 'I' for Inactive)
REMARK    1  A    between atoms: C_2  and  C_21
REMARK    2  A    between atoms: C_9  and  C_14
REMARK    3  A    between atoms: C_21  and  C_23
REMARK                            x       y       z     vdW  Elec       q    Type
REMARK                         _______ _______ _______ _____ _____    ______ ____
ROOT
ATOM      1  N   UNL     1      35.143 -17.158 -22.139  0.00  0.00    -0.388 NA
ATOM      2  C   UNL     1      35.593 -18.375 -22.456  0.00  0.00    +0.167 C 
ATOM      3  C   UNL     1      35.556 -18.966 -23.689  0.00  0.00    +0.031 C 
ATOM      4  C   UNL     1      34.599 -16.466 -23.164  0.00  0.00    +0.167 C 
ATOM      5  C   UNL     1      34.990 -18.223 -24.719  0.00  0.00    -0.015 C 
ATOM      6  C   UNL     1      34.500 -16.947 -24.459  0.00  0.00    +0.101 C 
ATOM      7  O   UNL     1      33.305 -14.493 -25.015  0.00  0.00    -0.270 OA
ATOM      8  N   UNL     1      34.103 -15.180 -22.914  0.00  0.00    -0.259 N 
ATOM      9  C   UNL     1      33.506 -14.300 -23.820  0.00  0.00    +0.255 C 
ATOM     10  H   UNL     1      34.184 -14.859 -21.987  0.00  0.00    +0.157 HD
ENDROOT
BRANCH   9  14
ATOM     11  F   UNL     1      31.902 -14.087 -21.529  0.00  0.00    -0.204 F 
ATOM     12  F   UNL     1      34.304 -11.872 -24.977  0.00  0.00    -0.204 F 
ATOM     13  F   UNL     1      31.998  -9.360 -21.698  0.00  0.00    -0.204 F 
ATOM     14  C   UNL     1      33.105 -12.985 -23.255  0.00  0.00    +0.109 C 
ATOM     15  C   UNL     1      32.313 -12.959 -22.125  0.00  0.00    +0.149 C 
ATOM     16  C   UNL     1      33.536 -11.833 -23.879  0.00  0.00    +0.149 C 
ATOM     17  C   UNL     1      31.937 -11.725 -21.596  0.00  0.00    +0.060 C 
ATOM     18  C   UNL     1      33.158 -10.599 -23.349  0.00  0.00    +0.060 C 
ATOM     19  C   UNL     1      32.358 -10.545 -22.207  0.00  0.00    +0.145 C 
ENDBRANCH   9  14
BRANCH   2  21
ATOM     20  O   UNL     1      37.178 -18.684 -20.738  0.00  0.00    -0.289 OA
ATOM     21  C   UNL     1      36.188 -19.125 -21.315  0.00  0.00    +0.202 C 
BRANCH  21  23
ATOM     22  N   UNL     1      34.152 -21.906 -18.804  0.00  0.00    +0.386 N 
ATOM     23  C   UNL     1      35.562 -20.417 -20.888  0.00  0.00    +0.060 C 
ATOM     24  C   UNL     1      34.080 -20.192 -20.586  0.00  0.00    -0.015 C 
ATOM     25  C   UNL     1      36.277 -20.969 -19.656  0.00  0.00    -0.015 C 
ATOM     26  C   UNL     1      33.436 -21.452 -20.003  0.00  0.00    -0.077 C 
ATOM     27  C   UNL     1      35.559 -22.203 -19.106  0.00  0.00    -0.077 C 
ATOM     28  C   UNL     1      33.493 -23.079 -18.229  0.00  0.00    -0.101 C 
ATOM     29  H   UNL     1      34.130 -21.150 -18.119  0.00  0.00    -0.080 HD
ENDBRANCH  21  23
ENDBRANCH   2  21
TORSDOF 3
ENDMDL
MODEL 2
REMARK VINA RESULT:     -13.0      3.350      5.832
REMARK  Name = 11610526
REMARK  3 active torsions:
REMARK  status: ('A' for Active; 'I' for Inactive)
REMARK    1  A    between atoms: C_2  and  C_21
REMARK    2  A    between atoms: C_9  and  C_14
REMARK    3  A    between atoms: C_21  and  C_23
REMARK                            x       y       z     vdW  Elec       q    Type
REMARK                         _______ _______ _______ _____ _____    ______ ____
ROOT
ATOM      1  N   UNL     1      34.503 -21.303 -20.048  0.00  0.00    -0.388 NA
ATOM      2  C   UNL     1      34.916 -22.085 -19.047  0.00  0.00    +0.167 C 
ATOM      3  C   UNL     1      36.156 -22.090 -18.470  0.00  0.00    +0.031 C 
ATOM      4  C   UNL     1      35.430 -20.439 -20.518  0.00  0.00    +0.167 C 
ATOM      5  C   UNL     1      37.083 -21.187 -18.980  0.00  0.00    -0.015 C 
ATOM      6  C   UNL     1      36.721 -20.342 -20.023  0.00  0.00    +0.101 C 
ATOM      7  O   UNL     1      37.040 -18.350 -21.944  0.00  0.00    -0.270 OA
ATOM      8  N   UNL     1      35.075 -19.584 -21.568  0.00  0.00    -0.259 N 
ATOM      9  C   UNL     1      35.871 -18.624 -22.199  0.00  0.00    +0.255 C 
ATOM     10  H   UNL     1      34.154 -19.670 -21.903  0.00  0.00    +0.157 HD
ENDROOT
BRANCH   9  14
ATOM     11  F   UNL     1      35.275 -15.898 -21.916  0.00  0.00    -0.204 F 
ATOM     12  F   UNL     1      35.113 -19.789 -24.635  0.00  0.00    -0.204 F 
ATOM     13  F   UNL     1      33.336 -15.704 -26.227  0.00  0.00    -0.204 F 
ATOM     14  C   UNL     1      35.197 -17.846 -23.271  0.00  0.00    +0.109 C 
ATOM     15  C   UNL     1      34.935 -16.508 -23.059  0.00  0.00    +0.149 C 
ATOM     16  C   UNL     1      34.853 -18.488 -24.442  0.00  0.00    +0.149 C 
ATOM     17  C   UNL     1      34.302 -15.780 -24.066  0.00  0.00    +0.060 C 
ATOM     18  C   UNL     1      34.219 -17.758 -25.448  0.00  0.00    +0.060 C 
ATOM     19  C   UNL     1      33.943 -16.404 -25.260  0.00  0.00    +0.145 C 
ENDBRANCH   9  14
BRANCH   2  21
ATOM     20  O   UNL     1      33.525 -23.980 -19.237  0.00  0.00    -0.289 OA
ATOM     21  C   UNL     1      33.883 -23.032 -18.542  0.00  0.00    +0.202 C 
BRANCH  21  23
ATOM     22  N   UNL     1      31.821 -23.927 -14.919  0.00  0.00    +0.386 N 
ATOM     23  C   UNL     1      33.294 -22.809 -17.184  0.00  0.00    +0.060 C 
ATOM     24  C   UNL     1      33.942 -23.765 -16.182  0.00  0.00    -0.015 C 
ATOM     25  C   UNL     1      31.782 -23.025 -17.222  0.00  0.00    -0.015 C 
ATOM     26  C   UNL     1      33.264 -23.675 -14.813  0.00  0.00    -0.077 C 
ATOM     27  C   UNL     1      31.178 -22.960 -15.818  0.00  0.00    -0.077 C 
ATOM     28  C   UNL     1      31.197 -23.891 -13.596  0.00  0.00    -0.101 C 
ATOM     29  H   UNL     1      31.692 -24.859 -15.315  0.00  0.00    -0.080 HD
ENDBRANCH  21  23
ENDBRANCH   2  21
TORSDOF 3
ENDMDL
MODEL 3
REMARK VINA RESULT:     -12.9      3.293      5.745
REMARK  Name = 11610526
REMARK  3 active torsions:
REMARK  status: ('A' for Active; 'I' for Inactive)
REMARK    1  A    between atoms: C_2  and  C_21
REMARK    2  A    between atoms: C_9  and  C_14
REMARK    3  A    between atoms: C_21  and  C_23
REMARK                            x       y       z     vdW  Elec       q    Type
REMARK                         _______ _______ _______ _____ _____    ______ ____
ROOT
ATOM      1  N   UNL     1      34.497 -21.243 -20.109  0.00  0.00    -0.388 NA
ATOM      2  C   UNL     1      34.927 -22.033 -19.122  0.00  0.00    +0.167 C 
ATOM      3  C   UNL     1      36.175 -22.042 -18.563  0.00  0.00    +0.031 C 
ATOM      4  C   UNL     1      35.416 -20.374 -20.584  0.00  0.00    +0.167 C 
ATOM      5  C   UNL     1      37.093 -21.133 -19.078  0.00  0.00    -0.015 C 
ATOM      6  C   UNL     1      36.714 -20.279 -20.108  0.00  0.00    +0.101 C 
ATOM      7  O   UNL     1      37.002 -18.270 -22.015  0.00  0.00    -0.270 OA
ATOM      8  N   UNL     1      35.045 -19.509 -21.621  0.00  0.00    -0.259 N 
ATOM      9  C   UNL     1      35.830 -18.542 -22.255  0.00  0.00    +0.255 C 
ATOM     10  H   UNL     1      34.119 -19.594 -21.944  0.00  0.00    +0.157 HD
ENDROOT
BRANCH   9  14
ATOM     11  F   UNL     1      35.034 -19.687 -24.688  0.00  0.00    -0.204 F 
ATOM     12  F   UNL     1      35.238 -15.818 -21.940  0.00  0.00    -0.204 F 
ATOM     13  F   UNL     1      33.233 -15.589 -26.218  0.00  0.00    -0.204 F 
ATOM     14  C   UNL     1      35.139 -17.756 -23.310  0.00  0.00    +0.109 C 
ATOM     15  C   UNL     1      34.777 -18.388 -24.482  0.00  0.00    +0.149 C 
ATOM     16  C   UNL     1      34.881 -16.420 -23.083  0.00  0.00    +0.149 C 
ATOM     17  C   UNL     1      34.128 -17.650 -25.472  0.00  0.00    +0.060 C 
ATOM     18  C   UNL     1      34.233 -15.683 -24.074  0.00  0.00    +0.060 C 
ATOM     19  C   UNL     1      33.856 -16.297 -25.268  0.00  0.00    +0.145 C 
ENDBRANCH   9  14
BRANCH   2  21
ATOM     20  O   UNL     1      33.553 -23.943 -19.298  0.00  0.00    -0.289 OA
ATOM     21  C   UNL     1      33.902 -22.987 -18.610  0.00  0.00    +0.202 C 
BRANCH  21  23
ATOM     22  N   UNL     1      31.884 -23.887 -14.963  0.00  0.00    +0.386 N 
ATOM     23  C   UNL     1      33.311 -22.760 -17.253  0.00  0.00    +0.060 C 
ATOM     24  C   UNL     1      33.994 -23.676 -16.238  0.00  0.00    -0.015 C 
ATOM     25  C   UNL     1      31.807 -23.026 -17.281  0.00  0.00    -0.015 C 
ATOM     26  C   UNL     1      33.318 -23.585 -14.868  0.00  0.00    -0.077 C 
ATOM     27  C   UNL     1      31.206 -22.956 -15.876  0.00  0.00    -0.077 C 
ATOM     28  C   UNL     1      31.264 -23.847 -13.639  0.00  0.00    -0.101 C 
ATOM     29  H   UNL     1      31.784 -24.829 -15.343  0.00  0.00    -0.080 HD
ENDBRANCH  21  23
ENDBRANCH   2  21
TORSDOF 3
ENDMDL
MODEL 4
REMARK VINA RESULT:     -12.7      3.406      8.374
REMARK  Name = 11610526
REMARK  3 active torsions:
REMARK  status: ('A' for Active; 'I' for Inactive)
REMARK    1  A    between atoms: C_2  and  C_21
REMARK    2  A    between atoms: C_9  and  C_14
REMARK    3  A    between atoms: C_21  and  C_23
REMARK                            x       y       z     vdW  Elec       q    Type
REMARK                         _______ _______ _______ _____ _____    ______ ____
ROOT
ATOM      1  N   UNL     1      34.264 -14.844 -23.623  0.00  0.00    -0.388 NA
ATOM      2  C   UNL     1      33.789 -14.001 -24.544  0.00  0.00    +0.167 C 
ATOM      3  C   UNL     1      33.341 -14.322 -25.796  0.00  0.00    +0.031 C 
ATOM      4  C   UNL     1      34.293 -16.141 -23.999  0.00  0.00    +0.167 C 
ATOM      5  C   UNL     1      33.386 -15.667 -26.147  0.00  0.00    -0.015 C 
ATOM      6  C   UNL     1      33.870 -16.600 -25.236  0.00  0.00    +0.101 C 
ATOM      7  O   UNL     1      34.590 -19.113 -24.272  0.00  0.00    -0.270 OA
ATOM      8  N   UNL     1      34.777 -17.089 -23.090  0.00  0.00    -0.259 N 
ATOM      9  C   UNL     1      34.894 -18.471 -23.272  0.00  0.00    +0.255 C 
ATOM     10  H   UNL     1      35.072 -16.741 -22.218  0.00  0.00    +0.157 HD
ENDROOT
BRANCH   9  14
ATOM     11  F   UNL     1      37.587 -18.327 -22.500  0.00  0.00    -0.204 F 
ATOM     12  F   UNL     1      33.262 -20.120 -21.696  0.00  0.00    -0.204 F 
ATOM     13  F   UNL     1      36.878 -21.289 -18.879  0.00  0.00    -0.204 F 
ATOM     14  C   UNL     1      35.422 -19.221 -22.102  0.00  0.00    +0.109 C 
ATOM     15  C   UNL     1      36.759 -19.101 -21.783  0.00  0.00    +0.149 C 
ATOM     16  C   UNL     1      34.559 -20.012 -21.375  0.00  0.00    +0.149 C 
ATOM     17  C   UNL     1      37.254 -19.806 -20.686  0.00  0.00    +0.060 C 
ATOM     18  C   UNL     1      35.056 -20.717 -20.278  0.00  0.00    +0.060 C 
ATOM     19  C   UNL     1      36.403 -20.614 -19.933  0.00  0.00    +0.145 C 
ENDBRANCH   9  14
BRANCH   2  21
ATOM     20  O   UNL     1      34.615 -11.792 -24.531  0.00  0.00    -0.289 OA
ATOM     21  C   UNL     1      33.765 -12.574 -24.115  0.00  0.00    +0.202 C 
BRANCH  21  23
ATOM     22  N   UNL     1      32.016 -10.711 -20.701  0.00  0.00    +0.386 N 
ATOM     23  C   UNL     1      32.693 -12.116 -23.174  0.00  0.00    +0.060 C 
ATOM     24  C   UNL     1      32.724 -10.591 -23.068  0.00  0.00    -0.015 C 
ATOM     25  C   UNL     1      32.891 -12.748 -21.798  0.00  0.00    -0.015 C 
ATOM     26  C   UNL     1      31.746 -10.090 -22.004  0.00  0.00    -0.077 C 
ATOM     27  C   UNL     1      31.907 -12.175 -20.778  0.00  0.00    -0.077 C 
ATOM     28  C   UNL     1      31.107 -10.183 -19.684  0.00  0.00    -0.101 C 
ATOM     29  H   UNL     1      32.974 -10.481 -20.434  0.00  0.00    -0.080 HD
ENDBRANCH  21  23
ENDBRANCH   2  21
TORSDOF 3
ENDMDL
MODEL 5
REMARK VINA RESULT:     -12.3      3.198      5.712
REMARK  Name = 11610526
REMARK  3 active torsions:
REMARK  status: ('A' for Active; 'I' for Inactive)
REMARK    1  A    between atoms: C_2  and  C_21
REMARK    2  A    between atoms: C_9  and  C_14
REMARK    3  A    between atoms: C_21  and  C_23
REMARK                            x       y       z     vdW  Elec       q    Type
REMARK                         _______ _______ _______ _____ _____    ______ ____
ROOT
ATOM      1  N   UNL     1      33.419 -12.560 -23.629  0.00  0.00    -0.388 NA
ATOM      2  C   UNL     1      33.195 -13.754 -23.075  0.00  0.00    +0.167 C 
ATOM      3  C   UNL     1      32.560 -14.002 -21.890  0.00  0.00    +0.031 C 
ATOM      4  C   UNL     1      32.960 -11.507 -22.918  0.00  0.00    +0.167 C 
ATOM      5  C   UNL     1      32.100 -12.893 -21.187  0.00  0.00    -0.015 C 
ATOM      6  C   UNL     1      32.300 -11.618 -21.704  0.00  0.00    +0.101 C 
ATOM      7  O   UNL     1      32.172  -8.837 -21.803  0.00  0.00    -0.270 OA
ATOM      8  N   UNL     1      33.155 -10.219 -23.430  0.00  0.00    -0.259 N 
ATOM      9  C   UNL     1      32.765  -9.001 -22.864  0.00  0.00    +0.255 C 
ATOM     10  H   UNL     1      33.626 -10.163 -24.293  0.00  0.00    +0.157 HD
ENDROOT
BRANCH   9  14
ATOM     11  F   UNL     1      30.779  -7.304 -23.885  0.00  0.00    -0.204 F 
ATOM     12  F   UNL     1      35.409  -8.276 -23.457  0.00  0.00    -0.204 F 
ATOM     13  F   UNL     1      33.996  -4.469 -25.884  0.00  0.00    -0.204 F 
ATOM     14  C   UNL     1      33.093  -7.795 -23.668  0.00  0.00    +0.109 C 
ATOM     15  C   UNL     1      32.062  -7.007 -24.137  0.00  0.00    +0.149 C 
ATOM     16  C   UNL     1      34.417  -7.502 -23.919  0.00  0.00    +0.149 C 
ATOM     17  C   UNL     1      32.370  -5.875 -24.892  0.00  0.00    +0.060 C 
ATOM     18  C   UNL     1      34.724  -6.370 -24.674  0.00  0.00    +0.060 C 
ATOM     19  C   UNL     1      33.700  -5.556 -25.160  0.00  0.00    +0.145 C 
ENDBRANCH   9  14
BRANCH   2  21
ATOM     20  O   UNL     1      33.284 -15.108 -25.005  0.00  0.00    -0.289 OA
ATOM     21  C   UNL     1      33.709 -14.905 -23.870  0.00  0.00    +0.202 C 
BRANCH  21  23
ATOM     22  N   UNL     1      35.333 -18.310 -21.882  0.00  0.00    +0.386 N 
ATOM     23  C   UNL     1      34.744 -15.802 -23.266  0.00  0.00    +0.060 C 
ATOM     24  C   UNL     1      34.734 -17.152 -23.984  0.00  0.00    -0.015 C 
ATOM     25  C   UNL     1      34.474 -15.992 -21.775  0.00  0.00    -0.015 C 
ATOM     26  C   UNL     1      35.672 -18.150 -23.302  0.00  0.00    -0.077 C 
ATOM     27  C   UNL     1      35.421 -17.029 -21.168  0.00  0.00    -0.077 C 
ATOM     28  C   UNL     1      36.204 -19.306 -21.258  0.00  0.00    -0.101 C 
ATOM     29  H   UNL     1      34.368 -18.637 -21.824  0.00  0.00    -0.080 HD
ENDBRANCH  21  23
ENDBRANCH   2  21
TORSDOF 3
ENDMDL
MODEL 6
REMARK VINA RESULT:     -12.1      3.223      5.856
REMARK  Name = 11610526
REMARK  3 active torsions:
REMARK  status: ('A' for Active; 'I' for Inactive)
REMARK    1  A    between atoms: C_2  and  C_21
REMARK    2  A    between atoms: C_9  and  C_14
REMARK    3  A    between atoms: C_21  and  C_23
REMARK                            x       y       z     vdW  Elec       q    Type
REMARK                         _______ _______ _______ _____ _____    ______ ____
ROOT
ATOM      1  N   UNL     1      33.430 -12.504 -23.628  0.00  0.00    -0.388 NA
ATOM      2  C   UNL     1      33.206 -13.701 -23.080  0.00  0.00    +0.167 C 
ATOM      3  C   UNL     1      32.544 -13.956 -21.910  0.00  0.00    +0.031 C 
ATOM      4  C   UNL     1      32.939 -11.456 -22.930  0.00  0.00    +0.167 C 
ATOM      5  C   UNL     1      32.053 -12.852 -21.221  0.00  0.00    -0.015 C 
ATOM      6  C   UNL     1      32.250 -11.575 -21.734  0.00  0.00    +0.101 C 
ATOM      7  O   UNL     1      32.089  -8.796 -21.839  0.00  0.00    -0.270 OA
ATOM      8  N   UNL     1      33.131 -10.166 -23.439  0.00  0.00    -0.259 N 
ATOM      9  C   UNL     1      32.712  -8.954 -22.884  0.00  0.00    +0.255 C 
ATOM     10  H   UNL     1      33.623 -10.105 -24.289  0.00  0.00    +0.157 HD
ENDROOT
BRANCH   9  14
ATOM     11  F   UNL     1      35.358  -8.242 -23.481  0.00  0.00    -0.204 F 
ATOM     12  F   UNL     1      30.734  -7.235 -23.886  0.00  0.00    -0.204 F 
ATOM     13  F   UNL     1      33.962  -4.407 -25.875  0.00  0.00    -0.204 F 
ATOM     14  C   UNL     1      33.045  -7.744 -23.680  0.00  0.00    +0.109 C 
ATOM     15  C   UNL     1      34.370  -7.458 -23.934  0.00  0.00    +0.149 C 
ATOM     16  C   UNL     1      32.018  -6.946 -24.140  0.00  0.00    +0.149 C 
ATOM     17  C   UNL     1      34.682  -6.321 -24.681  0.00  0.00    +0.060 C 
ATOM     18  C   UNL     1      32.331  -5.809 -24.886  0.00  0.00    +0.060 C 
ATOM     19  C   UNL     1      33.663  -5.497 -25.157  0.00  0.00    +0.145 C 
ENDBRANCH   9  14
BRANCH   2  21
ATOM     20  O   UNL     1      33.930 -14.737 -25.071  0.00  0.00    -0.289 OA
ATOM     21  C   UNL     1      33.754 -14.845 -23.860  0.00  0.00    +0.202 C 
BRANCH  21  23
ATOM     22  N   UNL     1      36.157 -17.886 -22.080  0.00  0.00    +0.386 N 
ATOM     23  C   UNL     1      34.085 -16.120 -23.148  0.00  0.00    +0.060 C 
ATOM     24  C   UNL     1      34.839 -15.805 -21.856  0.00  0.00    -0.015 C 
ATOM     25  C   UNL     1      34.925 -17.026 -24.046  0.00  0.00    -0.015 C 
ATOM     26  C   UNL     1      35.327 -17.084 -21.172  0.00  0.00    -0.077 C 
ATOM     27  C   UNL     1      35.410 -18.263 -23.288  0.00  0.00    -0.077 C 
ATOM     28  C   UNL     1      36.658 -19.078 -21.396  0.00  0.00    -0.101 C 
ATOM     29  H   UNL     1      36.952 -17.315 -22.368  0.00  0.00    -0.080 HD
ENDBRANCH  21  23
ENDBRANCH   2  21
TORSDOF 3
ENDMDL
MODEL 7
REMARK VINA RESULT:     -12.0      5.660     10.998
REMARK  Name = 11610526
REMARK  3 active torsions:
REMARK  status: ('A' for Active; 'I' for Inactive)
REMARK    1  A    between atoms: C_2  and  C_21
REMARK    2  A    between atoms: C_9  and  C_14
REMARK    3  A    between atoms: C_21  and  C_23
REMARK                            x       y       z     vdW  Elec       q    Type
REMARK                         _______ _______ _______ _____ _____    ______ ____
ROOT
ATOM      1  N   UNL     1      35.753 -21.315 -19.111  0.00  0.00    -0.388 NA
ATOM      2  C   UNL     1      35.039 -20.732 -20.078  0.00  0.00    +0.167 C 
ATOM      3  C   UNL     1      33.700 -20.883 -20.312  0.00  0.00    +0.031 C 
ATOM      4  C   UNL     1      35.050 -22.134 -18.298  0.00  0.00    +0.167 C 
ATOM      5  C   UNL     1      33.011 -21.733 -19.454  0.00  0.00    -0.015 C 
ATOM      6  C   UNL     1      33.692 -22.374 -18.425  0.00  0.00    +0.101 C 
ATOM      7  O   UNL     1      34.033 -24.034 -16.214  0.00  0.00    -0.270 OA
ATOM      8  N   UNL     1      35.726 -22.784 -17.258  0.00  0.00    -0.259 N 
ATOM      9  C   UNL     1      35.198 -23.665 -16.311  0.00  0.00    +0.255 C 
ATOM     10  H   UNL     1      36.690 -22.599 -17.187  0.00  0.00    +0.157 HD
ENDROOT
BRANCH   9  14
ATOM     11  F   UNL     1      36.737 -21.945 -14.717  0.00  0.00    -0.204 F 
ATOM     12  F   UNL     1      35.612 -26.408 -15.891  0.00  0.00    -0.204 F 
ATOM     13  F   UNL     1      38.850 -25.578 -12.545  0.00  0.00    -0.204 F 
ATOM     14  C   UNL     1      36.170 -24.174 -15.308  0.00  0.00    +0.109 C 
ATOM     15  C   UNL     1      36.892 -23.267 -14.560  0.00  0.00    +0.149 C 
ATOM     16  C   UNL     1      36.319 -25.537 -15.158  0.00  0.00    +0.149 C 
ATOM     17  C   UNL     1      37.805 -23.746 -13.620  0.00  0.00    +0.060 C 
ATOM     18  C   UNL     1      37.233 -26.014 -14.217  0.00  0.00    +0.060 C 
ATOM     19  C   UNL     1      37.975 -25.119 -13.448  0.00  0.00    +0.145 C 
ENDBRANCH   9  14
BRANCH   2  21
ATOM     20  O   UNL     1      37.054 -19.805 -20.881  0.00  0.00    -0.289 OA
ATOM     21  C   UNL     1      35.829 -19.834 -20.966  0.00  0.00    +0.202 C 
BRANCH  21  23
ATOM     22  N   UNL     1      35.278 -17.239 -24.305  0.00  0.00    +0.386 N 
ATOM     23  C   UNL     1      35.107 -18.973 -21.957  0.00  0.00    +0.060 C 
ATOM     24  C   UNL     1      35.320 -19.527 -23.366  0.00  0.00    -0.015 C 
ATOM     25  C   UNL     1      35.610 -17.533 -21.871  0.00  0.00    -0.015 C 
ATOM     26  C   UNL     1      34.726 -18.594 -24.424  0.00  0.00    -0.077 C 
ATOM     27  C   UNL     1      35.005 -16.668 -22.978  0.00  0.00    -0.077 C 
ATOM     28  C   UNL     1      34.740 -16.373 -25.355  0.00  0.00    -0.101 C 
ATOM     29  H   UNL     1      36.291 -17.300 -24.418  0.00  0.00    -0.080 HD
ENDBRANCH  21  23
ENDBRANCH   2  21
TORSDOF 3
ENDMDL
MODEL 8
REMARK VINA RESULT:     -11.9      4.705     11.117
REMARK  Name = 11610526
REMARK  3 active torsions:
REMARK  status: ('A' for Active; 'I' for Inactive)
REMARK    1  A    between atoms: C_2  and  C_21
REMARK    2  A    between atoms: C_9  and  C_14
REMARK    3  A    between atoms: C_21  and  C_23
REMARK                            x       y       z     vdW  Elec       q    Type
REMARK                         _______ _______ _______ _____ _____    ______ ____
ROOT
ATOM      1  N   UNL     1      33.768  -9.601 -23.598  0.00  0.00    -0.388 NA
ATOM      2  C   UNL     1      33.373  -8.427 -23.099  0.00  0.00    +0.167 C 
ATOM      3  C   UNL     1      32.410  -8.223 -22.149  0.00  0.00    +0.031 C 
ATOM      4  C   UNL     1      33.130 -10.680 -23.093  0.00  0.00    +0.167 C 
ATOM      5  C   UNL     1      31.776  -9.358 -21.652  0.00  0.00    -0.015 C 
ATOM      6  C   UNL     1      32.138 -10.613 -22.129  0.00  0.00    +0.101 C 
ATOM      7  O   UNL     1      32.079 -13.389 -22.354  0.00  0.00    -0.270 OA
ATOM      8  N   UNL     1      33.488 -11.949 -23.565  0.00  0.00    -0.259 N 
ATOM      9  C   UNL     1      32.961 -13.186 -23.183  0.00  0.00    +0.255 C 
ATOM     10  H   UNL     1      34.194 -11.972 -24.250  0.00  0.00    +0.157 HD
ENDROOT
BRANCH   9  14
ATOM     11  F   UNL     1      34.737 -14.899 -21.850  0.00  0.00    -0.204 F 
ATOM     12  F   UNL     1      32.408 -13.844 -25.853  0.00  0.00    -0.204 F 
ATOM     13  F   UNL     1      35.250 -17.622 -25.685  0.00  0.00    -0.204 F 
ATOM     14  C   UNL     1      33.570 -14.367 -23.849  0.00  0.00    +0.109 C 
ATOM     15  C   UNL     1      34.436 -15.164 -23.129  0.00  0.00    +0.149 C 
ATOM     16  C   UNL     1      33.250 -14.627 -25.165  0.00  0.00    +0.149 C 
ATOM     17  C   UNL     1      35.008 -16.272 -23.755  0.00  0.00    +0.060 C 
ATOM     18  C   UNL     1      33.823 -15.735 -25.790  0.00  0.00    +0.060 C 
ATOM     19  C   UNL     1      34.702 -16.558 -25.085  0.00  0.00    +0.145 C 
ENDBRANCH   9  14
BRANCH   2  21
ATOM     20  O   UNL     1      35.237  -6.999 -23.322  0.00  0.00    -0.289 OA
ATOM     21  C   UNL     1      34.084  -7.248 -23.667  0.00  0.00    +0.202 C 
BRANCH  21  23
ATOM     22  N   UNL     1      32.987  -3.696 -25.756  0.00  0.00    +0.386 N 
ATOM     23  C   UNL     1      33.375  -6.379 -24.658  0.00  0.00    +0.060 C 
ATOM     24  C   UNL     1      34.397  -5.722 -25.587  0.00  0.00    -0.015 C 
ATOM     25  C   UNL     1      32.553  -5.313 -23.935  0.00  0.00    -0.015 C 
ATOM     26  C   UNL     1      33.728  -4.709 -26.519  0.00  0.00    -0.077 C 
ATOM     27  C   UNL     1      31.947  -4.315 -24.923  0.00  0.00    -0.077 C 
ATOM     28  C   UNL     1      32.398  -2.706 -26.658  0.00  0.00    -0.101 C 
ATOM     29  H   UNL     1      33.646  -3.223 -25.136  0.00  0.00    -0.080 HD
ENDBRANCH  21  23
ENDBRANCH   2  21
TORSDOF 3
ENDMDL
MODEL 9
REMARK VINA RESULT:     -11.9      4.691     11.201
REMARK  Name = 11610526
REMARK  3 active torsions:
REMARK  status: ('A' for Active; 'I' for Inactive)
REMARK    1  A    between atoms: C_2  and  C_21
REMARK    2  A    between atoms: C_9  and  C_14
REMARK    3  A    between atoms: C_21  and  C_23
REMARK                            x       y       z     vdW  Elec       q    Type
REMARK                         _______ _______ _______ _____ _____    ______ ____
ROOT
ATOM      1  N   UNL     1      33.626  -9.596 -23.610  0.00  0.00    -0.388 NA
ATOM      2  C   UNL     1      33.215  -8.430 -23.106  0.00  0.00    +0.167 C 
ATOM      3  C   UNL     1      32.286  -8.245 -22.119  0.00  0.00    +0.031 C 
ATOM      4  C   UNL     1      33.045 -10.689 -23.068  0.00  0.00    +0.167 C 
ATOM      5  C   UNL     1      31.710  -9.393 -21.585  0.00  0.00    -0.015 C 
ATOM      6  C   UNL     1      32.091 -10.642 -22.063  0.00  0.00    +0.101 C 
ATOM      7  O   UNL     1      32.112 -13.421 -22.258  0.00  0.00    -0.270 OA
ATOM      8  N   UNL     1      33.422 -11.951 -23.541  0.00  0.00    -0.259 N 
ATOM      9  C   UNL     1      32.951 -13.200 -23.125  0.00  0.00    +0.255 C 
ATOM     10  H   UNL     1      34.101 -11.960 -24.254  0.00  0.00    +0.157 HD
ENDROOT
BRANCH   9  14
ATOM     11  F   UNL     1      32.430 -13.813 -25.811  0.00  0.00    -0.204 F 
ATOM     12  F   UNL     1      34.714 -14.934 -21.800  0.00  0.00    -0.204 F 
ATOM     13  F   UNL     1      35.274 -17.591 -25.673  0.00  0.00    -0.204 F 
ATOM     14  C   UNL     1      33.570 -14.368 -23.803  0.00  0.00    +0.109 C 
ATOM     15  C   UNL     1      33.266 -14.607 -25.128  0.00  0.00    +0.149 C 
ATOM     16  C   UNL     1      34.427 -15.177 -23.087  0.00  0.00    +0.149 C 
ATOM     17  C   UNL     1      33.846 -15.705 -25.764  0.00  0.00    +0.060 C 
ATOM     18  C   UNL     1      35.007 -16.274 -23.724  0.00  0.00    +0.060 C 
ATOM     19  C   UNL     1      34.716 -16.538 -25.062  0.00  0.00    +0.145 C 
ENDBRANCH   9  14
BRANCH   2  21
ATOM     20  O   UNL     1      35.061  -7.025 -23.533  0.00  0.00    -0.289 OA
ATOM     21  C   UNL     1      33.864  -7.236 -23.716  0.00  0.00    +0.202 C 
BRANCH  21  23
ATOM     22  N   UNL     1      32.521  -3.553 -25.394  0.00  0.00    +0.386 N 
ATOM     23  C   UNL     1      33.039  -6.303 -24.547  0.00  0.00    +0.060 C 
ATOM     24  C   UNL     1      33.939  -5.574 -25.545  0.00  0.00    -0.015 C 
ATOM     25  C   UNL     1      32.313  -5.299 -23.654  0.00  0.00    -0.015 C 
ATOM     26  C   UNL     1      33.161  -4.502 -26.312  0.00  0.00    -0.077 C 
ATOM     27  C   UNL     1      31.591  -4.238 -24.485  0.00  0.00    -0.077 C 
ATOM     28  C   UNL     1      31.826  -2.506 -26.143  0.00  0.00    -0.101 C 
ATOM     29  H   UNL     1      33.251  -3.120 -24.827  0.00  0.00    -0.080 HD
ENDBRANCH  21  23
ENDBRANCH   2  21
TORSDOF 3
ENDMDL
