MODEL 1
REMARK VINA RESULT:     -14.2      0.000      0.000
REMARK  Name = 11167602
REMARK  6 active torsions:
REMARK  status: ('A' for Active; 'I' for Inactive)
REMARK    1  A    between atoms: C_2  and  N_10
REMARK    2  A    between atoms: C_3  and  O_25
REMARK    3  A    between atoms: N_9  and  C_15
REMARK    4  A    between atoms: C_16  and  C_24
REMARK    5  A    between atoms: O_25  and  C_27
REMARK    6  A    between atoms: C_29  and  C_34
REMARK                            x       y       z     vdW  Elec       q    Type
REMARK                         _______ _______ _______ _____ _____    ______ ____
ROOT
ATOM      1  F   UNL     1      37.100 -21.464 -17.804  0.00  0.00    -0.203 F 
ATOM      2  C   UNL     1      35.053 -21.928 -18.915  0.00  0.00    +0.079 C 
ATOM      3  C   UNL     1      34.239 -23.438 -16.741  0.00  0.00    +0.148 C 
ATOM      4  C   UNL     1      35.898 -22.056 -17.825  0.00  0.00    +0.157 C 
ATOM      5  C   UNL     1      33.809 -22.537 -18.940  0.00  0.00    +0.020 C 
ATOM      6  C   UNL     1      35.488 -22.817 -16.731  0.00  0.00    +0.068 C 
ATOM      7  C   UNL     1      33.400 -23.299 -17.846  0.00  0.00    +0.039 C 
ENDROOT
BRANCH   2  10
ATOM      8  O   UNL     1      33.537 -19.941 -20.552  0.00  0.00    -0.252 OA
ATOM      9  N   UNL     1      35.501 -19.677 -21.801  0.00  0.00    -0.268 N 
ATOM     10  N   UNL     1      35.465 -21.156 -20.027  0.00  0.00    -0.266 N 
ATOM     11  C   UNL     1      34.710 -20.231 -20.766  0.00  0.00    +0.308 C 
ATOM     12  H   UNL     1      36.428 -20.005 -21.852  0.00  0.00    +0.156 HD
ATOM     13  H   UNL     1      36.397 -21.283 -20.319  0.00  0.00    +0.156 HD
BRANCH   9  15
ATOM     14 CL   UNL     1      33.984 -15.681 -25.885  0.00  0.00    -0.082 Cl
ATOM     15  C   UNL     1      35.142 -18.727 -22.758  0.00  0.00    +0.052 C 
ATOM     16  C   UNL     1      34.599 -16.446 -23.342  0.00  0.00    +0.083 C 
ATOM     17  C   UNL     1      34.958 -17.396 -22.384  0.00  0.00    +0.019 C 
ATOM     18  C   UNL     1      34.968 -19.109 -24.088  0.00  0.00    +0.016 C 
ATOM     19  C   UNL     1      34.426 -16.829 -24.672  0.00  0.00    +0.062 C 
ATOM     20  C   UNL     1      34.609 -18.160 -25.045  0.00  0.00    +0.013 C 
BRANCH  16  24
ATOM     21  F   UNL     1      35.123 -14.132 -23.645  0.00  0.00    -0.166 F 
ATOM     22  F   UNL     1      33.119 -14.606 -22.964  0.00  0.00    -0.166 F 
ATOM     23  F   UNL     1      34.806 -14.831 -21.611  0.00  0.00    -0.166 F 
ATOM     24  C   UNL     1      34.414 -15.030 -22.902  0.00  0.00    +0.419 C 
ENDBRANCH  16  24
ENDBRANCH   9  15
ENDBRANCH   2  10
BRANCH   3  25
ATOM     25  O   UNL     1      33.839 -24.181 -15.672  0.00  0.00    -0.453 OA
BRANCH  25  27
ATOM     26  N   UNL     1      36.692 -25.126 -12.802  0.00  0.00    -0.239 NA
ATOM     27  C   UNL     1      34.789 -24.497 -14.716  0.00  0.00    +0.149 C 
ATOM     28  C   UNL     1      35.917 -25.194 -15.091  0.00  0.00    +0.061 C 
ATOM     29  C   UNL     1      36.839 -25.484 -14.098  0.00  0.00    +0.137 C 
ATOM     30  C   UNL     1      34.586 -24.105 -13.410  0.00  0.00    +0.058 C 
ATOM     31  C   UNL     1      35.566 -24.445 -12.492  0.00  0.00    +0.102 C 
BRANCH  29  34
ATOM     32  O   UNL     1      37.992 -27.366 -14.888  0.00  0.00    -0.268 OA
ATOM     33  N   UNL     1      39.269 -25.562 -14.188  0.00  0.00    -0.298 N 
ATOM     34  C   UNL     1      38.053 -26.216 -14.416  0.00  0.00    +0.264 C 
ATOM     35  C   UNL     1      40.559 -26.147 -14.474  0.00  0.00    +0.111 C 
ATOM     36  H   UNL     1      39.245 -24.653 -13.810  0.00  0.00    +0.150 HD
ENDBRANCH  29  34
ENDBRANCH  25  27
ENDBRANCH   3  25
TORSDOF 6
ENDMDL
MODEL 2
REMARK VINA RESULT:     -14.0      4.621     11.776
REMARK  Name = 11167602
REMARK  6 active torsions:
REMARK  status: ('A' for Active; 'I' for Inactive)
REMARK    1  A    between atoms: C_2  and  N_10
REMARK    2  A    between atoms: C_3  and  O_25
REMARK    3  A    between atoms: N_9  and  C_15
REMARK    4  A    between atoms: C_16  and  C_24
REMARK    5  A    between atoms: O_25  and  C_27
REMARK    6  A    between atoms: C_29  and  C_34
REMARK                            x       y       z     vdW  Elec       q    Type
REMARK                         _______ _______ _______ _____ _____    ______ ____
ROOT
ATOM      1  F   UNL     1      33.418 -21.139 -20.325  0.00  0.00    -0.203 F 
ATOM      2  C   UNL     1      35.741 -20.815 -19.958  0.00  0.00    +0.079 C 
ATOM      3  C   UNL     1      35.772 -18.907 -21.966  0.00  0.00    +0.148 C 
ATOM      4  C   UNL     1      34.567 -20.519 -20.629  0.00  0.00    +0.157 C 
ATOM      5  C   UNL     1      36.931 -20.176 -20.268  0.00  0.00    +0.020 C 
ATOM      6  C   UNL     1      34.582 -19.559 -21.640  0.00  0.00    +0.068 C 
ATOM      7  C   UNL     1      36.946 -19.216 -21.280  0.00  0.00    +0.039 C 
ENDROOT
BRANCH   2  10
ATOM      8  O   UNL     1      37.264 -20.928 -17.390  0.00  0.00    -0.252 OA
ATOM      9  N   UNL     1      36.161 -22.955 -16.984  0.00  0.00    -0.268 N 
ATOM     10  N   UNL     1      35.729 -21.788 -18.930  0.00  0.00    -0.266 N 
ATOM     11  C   UNL     1      36.468 -21.795 -17.737  0.00  0.00    +0.308 C 
ATOM     12  H   UNL     1      35.501 -23.563 -17.389  0.00  0.00    +0.156 HD
ATOM     13  H   UNL     1      35.128 -22.555 -19.071  0.00  0.00    +0.156 HD
BRANCH   9  15
ATOM     14 CL   UNL     1      38.281 -24.601 -11.718  0.00  0.00    -0.082 Cl
ATOM     15  C   UNL     1      36.668 -23.348 -15.746  0.00  0.00    +0.052 C 
ATOM     16  C   UNL     1      38.365 -24.466 -14.439  0.00  0.00    +0.083 C 
ATOM     17  C   UNL     1      37.858 -24.074 -15.678  0.00  0.00    +0.019 C 
ATOM     18  C   UNL     1      35.986 -23.017 -14.576  0.00  0.00    +0.016 C 
ATOM     19  C   UNL     1      37.683 -24.134 -13.269  0.00  0.00    +0.062 C 
ATOM     20  C   UNL     1      36.493 -23.409 -13.337  0.00  0.00    +0.013 C 
BRANCH  16  24
ATOM     21  F   UNL     1      40.210 -25.403 -15.639  0.00  0.00    -0.166 F 
ATOM     22  F   UNL     1      40.612 -24.660 -13.641  0.00  0.00    -0.166 F 
ATOM     23  F   UNL     1      39.480 -26.498 -13.908  0.00  0.00    -0.166 F 
ATOM     24  C   UNL     1      39.643 -25.240 -14.409  0.00  0.00    +0.419 C 
ENDBRANCH  16  24
ENDBRANCH   9  15
ENDBRANCH   2  10
BRANCH   3  25
ATOM     25  O   UNL     1      35.787 -17.970 -22.953  0.00  0.00    -0.453 OA
BRANCH  25  27
ATOM     26  N   UNL     1      34.122 -14.256 -22.111  0.00  0.00    -0.239 NA
ATOM     27  C   UNL     1      35.233 -16.732 -22.673  0.00  0.00    +0.149 C 
ATOM     28  C   UNL     1      34.939 -15.874 -23.710  0.00  0.00    +0.061 C 
ATOM     29  C   UNL     1      34.384 -14.648 -23.378  0.00  0.00    +0.137 C 
ATOM     30  C   UNL     1      34.987 -16.386 -21.361  0.00  0.00    +0.058 C 
ATOM     31  C   UNL     1      34.431 -15.138 -21.133  0.00  0.00    +0.102 C 
BRANCH  29  34
ATOM     32  O   UNL     1      34.155 -12.468 -24.209  0.00  0.00    -0.268 OA
ATOM     33  N   UNL     1      33.623 -14.208 -25.647  0.00  0.00    -0.298 N 
ATOM     34  C   UNL     1      34.047 -13.691 -24.417  0.00  0.00    +0.264 C 
ATOM     35  C   UNL     1      33.275 -13.386 -26.783  0.00  0.00    +0.111 C 
ATOM     36  H   UNL     1      33.558 -15.186 -25.743  0.00  0.00    +0.150 HD
ENDBRANCH  29  34
ENDBRANCH  25  27
ENDBRANCH   3  25
TORSDOF 6
ENDMDL
MODEL 3
REMARK VINA RESULT:     -13.8      5.859      9.753
REMARK  Name = 11167602
REMARK  6 active torsions:
REMARK  status: ('A' for Active; 'I' for Inactive)
REMARK    1  A    between atoms: C_2  and  N_10
REMARK    2  A    between atoms: C_3  and  O_25
REMARK    3  A    between atoms: N_9  and  C_15
REMARK    4  A    between atoms: C_16  and  C_24
REMARK    5  A    between atoms: O_25  and  C_27
REMARK    6  A    between atoms: C_29  and  C_34
REMARK                            x       y       z     vdW  Elec       q    Type
REMARK                         _______ _______ _______ _____ _____    ______ ____
ROOT
ATOM      1  F   UNL     1      32.673 -14.058 -25.135  0.00  0.00    -0.203 F 
ATOM      2  C   UNL     1      33.333 -14.101 -22.855  0.00  0.00    +0.079 C 
ATOM      3  C   UNL     1      34.811 -16.391 -23.347  0.00  0.00    +0.148 C 
ATOM      4  C   UNL     1      33.354 -14.632 -24.134  0.00  0.00    +0.157 C 
ATOM      5  C   UNL     1      34.037 -14.691 -21.817  0.00  0.00    +0.020 C 
ATOM      6  C   UNL     1      34.098 -15.785 -24.382  0.00  0.00    +0.068 C 
ATOM      7  C   UNL     1      34.780 -15.844 -22.065  0.00  0.00    +0.039 C 
ENDROOT
BRANCH   2  10
ATOM      8  O   UNL     1      33.952 -11.241 -23.452  0.00  0.00    -0.252 OA
ATOM      9  N   UNL     1      31.884 -10.732 -22.477  0.00  0.00    -0.268 N 
ATOM     10  N   UNL     1      32.580 -12.931 -22.600  0.00  0.00    -0.266 N 
ATOM     11  C   UNL     1      32.918 -11.602 -22.901  0.00  0.00    +0.308 C 
ATOM     12  H   UNL     1      31.111 -11.165 -22.049  0.00  0.00    +0.156 HD
ATOM     13  H   UNL     1      31.712 -13.065 -22.155  0.00  0.00    +0.156 HD
BRANCH   9  15
ATOM     14 CL   UNL     1      31.604  -4.848 -22.974  0.00  0.00    -0.082 Cl
ATOM     15  C   UNL     1      31.818  -9.342 -22.584  0.00  0.00    +0.052 C 
ATOM     16  C   UNL     1      31.770  -7.162 -21.544  0.00  0.00    +0.083 C 
ATOM     17  C   UNL     1      31.837  -8.552 -21.435  0.00  0.00    +0.019 C 
ATOM     18  C   UNL     1      31.732  -8.744 -23.841  0.00  0.00    +0.016 C 
ATOM     19  C   UNL     1      31.686  -6.565 -22.800  0.00  0.00    +0.062 C 
ATOM     20  C   UNL     1      31.666  -7.355 -23.949  0.00  0.00    +0.013 C 
BRANCH  16  24
ATOM     21  F   UNL     1      32.949  -5.641 -20.123  0.00  0.00    -0.166 F 
ATOM     22  F   UNL     1      30.792  -5.430 -20.215  0.00  0.00    -0.166 F 
ATOM     23  F   UNL     1      31.673  -7.120 -19.169  0.00  0.00    -0.166 F 
ATOM     24  C   UNL     1      31.796  -6.351 -20.289  0.00  0.00    +0.419 C 
ENDBRANCH  16  24
ENDBRANCH   9  15
ENDBRANCH   2  10
BRANCH   3  25
ATOM     25  O   UNL     1      35.538 -17.517 -23.589  0.00  0.00    -0.453 OA
BRANCH  25  27
ATOM     26  N   UNL     1      36.234 -20.092 -20.403  0.00  0.00    -0.239 NA
ATOM     27  C   UNL     1      35.769 -18.374 -22.527  0.00  0.00    +0.149 C 
ATOM     28  C   UNL     1      34.717 -19.087 -21.995  0.00  0.00    +0.061 C 
ATOM     29  C   UNL     1      35.001 -19.933 -20.934  0.00  0.00    +0.137 C 
ATOM     30  C   UNL     1      37.048 -18.496 -22.026  0.00  0.00    +0.058 C 
ATOM     31  C   UNL     1      37.228 -19.367 -20.964  0.00  0.00    +0.102 C 
BRANCH  29  34
ATOM     32  O   UNL     1      32.757 -20.548 -20.651  0.00  0.00    -0.268 OA
ATOM     33  N   UNL     1      34.330 -21.673 -19.371  0.00  0.00    -0.298 N 
ATOM     34  C   UNL     1      33.945 -20.718 -20.320  0.00  0.00    +0.264 C 
ATOM     35  C   UNL     1      33.401 -22.546 -18.691  0.00  0.00    +0.111 C 
ATOM     36  H   UNL     1      35.287 -21.754 -19.155  0.00  0.00    +0.150 HD
ENDBRANCH  29  34
ENDBRANCH  25  27
ENDBRANCH   3  25
TORSDOF 6
ENDMDL
MODEL 4
REMARK VINA RESULT:     -13.7      2.778      4.393
REMARK  Name = 11167602
REMARK  6 active torsions:
REMARK  status: ('A' for Active; 'I' for Inactive)
REMARK    1  A    between atoms: C_2  and  N_10
REMARK    2  A    between atoms: C_3  and  O_25
REMARK    3  A    between atoms: N_9  and  C_15
REMARK    4  A    between atoms: C_16  and  C_24
REMARK    5  A    between atoms: O_25  and  C_27
REMARK    6  A    between atoms: C_29  and  C_34
REMARK                            x       y       z     vdW  Elec       q    Type
REMARK                         _______ _______ _______ _____ _____    ______ ____
ROOT
ATOM      1  F   UNL     1      37.336 -20.934 -18.012  0.00  0.00    -0.203 F 
ATOM      2  C   UNL     1      35.388 -21.575 -19.208  0.00  0.00    +0.079 C 
ATOM      3  C   UNL     1      34.677 -23.244 -17.114  0.00  0.00    +0.148 C 
ATOM      4  C   UNL     1      36.208 -21.652 -18.094  0.00  0.00    +0.157 C 
ATOM      5  C   UNL     1      34.219 -22.315 -19.296  0.00  0.00    +0.020 C 
ATOM      6  C   UNL     1      35.850 -22.492 -17.040  0.00  0.00    +0.068 C 
ATOM      7  C   UNL     1      33.862 -23.156 -18.242  0.00  0.00    +0.039 C 
ENDROOT
BRANCH   2  10
ATOM      8  O   UNL     1      33.708 -19.735 -20.854  0.00  0.00    -0.252 OA
ATOM      9  N   UNL     1      35.674 -19.193 -22.007  0.00  0.00    -0.268 N 
ATOM     10  N   UNL     1      35.747 -20.723 -20.278  0.00  0.00    -0.266 N 
ATOM     11  C   UNL     1      34.915 -19.873 -21.024  0.00  0.00    +0.308 C 
ATOM     12  H   UNL     1      36.636 -19.404 -22.025  0.00  0.00    +0.156 HD
ATOM     13  H   UNL     1      36.699 -20.727 -20.531  0.00  0.00    +0.156 HD
BRANCH   9  15
ATOM     14 CL   UNL     1      33.843 -15.280 -26.041  0.00  0.00    -0.082 Cl
ATOM     15  C   UNL     1      35.241 -18.262 -22.952  0.00  0.00    +0.052 C 
ATOM     16  C   UNL     1      34.552 -16.016 -23.515  0.00  0.00    +0.083 C 
ATOM     17  C   UNL     1      34.986 -16.946 -22.569  0.00  0.00    +0.019 C 
ATOM     18  C   UNL     1      35.063 -18.650 -24.280  0.00  0.00    +0.016 C 
ATOM     19  C   UNL     1      34.376 -16.403 -24.843  0.00  0.00    +0.062 C 
ATOM     20  C   UNL     1      34.630 -17.720 -25.225  0.00  0.00    +0.013 C 
BRANCH  16  24
ATOM     21  F   UNL     1      34.897 -13.672 -23.843  0.00  0.00    -0.166 F 
ATOM     22  F   UNL     1      32.969 -14.282 -23.059  0.00  0.00    -0.166 F 
ATOM     23  F   UNL     1      34.737 -14.385 -21.796  0.00  0.00    -0.166 F 
ATOM     24  C   UNL     1      34.293 -14.615 -23.065  0.00  0.00    +0.419 C 
ENDBRANCH  16  24
ENDBRANCH   9  15
ENDBRANCH   2  10
BRANCH   3  25
ATOM     25  O   UNL     1      34.328 -24.065 -16.085  0.00  0.00    -0.453 OA
BRANCH  25  27
ATOM     26  N   UNL     1      30.742 -23.297 -14.131  0.00  0.00    -0.239 NA
ATOM     27  C   UNL     1      33.133 -23.808 -15.435  0.00  0.00    +0.149 C 
ATOM     28  C   UNL     1      32.033 -23.427 -16.171  0.00  0.00    +0.061 C 
ATOM     29  C   UNL     1      30.860 -23.183 -15.473  0.00  0.00    +0.137 C 
ATOM     30  C   UNL     1      33.072 -23.940 -14.064  0.00  0.00    +0.058 C 
ATOM     31  C   UNL     1      31.854 -23.673 -13.460  0.00  0.00    +0.102 C 
BRANCH  29  34
ATOM     32  O   UNL     1      29.708 -22.458 -17.382  0.00  0.00    -0.268 OA
ATOM     33  N   UNL     1      28.459 -22.787 -15.455  0.00  0.00    -0.298 N 
ATOM     34  C   UNL     1      29.658 -22.778 -16.180  0.00  0.00    +0.264 C 
ATOM     35  C   UNL     1      27.179 -22.433 -16.023  0.00  0.00    +0.111 C 
ATOM     36  H   UNL     1      28.491 -23.049 -14.507  0.00  0.00    +0.150 HD
ENDBRANCH  29  34
ENDBRANCH  25  27
ENDBRANCH   3  25
TORSDOF 6
ENDMDL
MODEL 5
REMARK VINA RESULT:     -13.5      4.298     11.461
REMARK  Name = 11167602
REMARK  6 active torsions:
REMARK  status: ('A' for Active; 'I' for Inactive)
REMARK    1  A    between atoms: C_2  and  N_10
REMARK    2  A    between atoms: C_3  and  O_25
REMARK    3  A    between atoms: N_9  and  C_15
REMARK    4  A    between atoms: C_16  and  C_24
REMARK    5  A    between atoms: O_25  and  C_27
REMARK    6  A    between atoms: C_29  and  C_34
REMARK                            x       y       z     vdW  Elec       q    Type
REMARK                         _______ _______ _______ _____ _____    ______ ____
ROOT
ATOM      1  F   UNL     1      38.372 -18.634 -20.724  0.00  0.00    -0.203 F 
ATOM      2  C   UNL     1      36.408 -19.944 -20.472  0.00  0.00    +0.079 C 
ATOM      3  C   UNL     1      35.530 -19.065 -22.948  0.00  0.00    +0.148 C 
ATOM      4  C   UNL     1      37.195 -19.065 -21.198  0.00  0.00    +0.157 C 
ATOM      5  C   UNL     1      35.191 -20.394 -20.959  0.00  0.00    +0.020 C 
ATOM      6  C   UNL     1      36.753 -18.623 -22.444  0.00  0.00    +0.068 C 
ATOM      7  C   UNL     1      34.748 -19.950 -22.205  0.00  0.00    +0.039 C 
ENDROOT
BRANCH   2  10
ATOM      8  O   UNL     1      35.634 -22.367 -18.907  0.00  0.00    -0.252 OA
ATOM      9  N   UNL     1      37.147 -21.631 -17.278  0.00  0.00    -0.268 N 
ATOM     10  N   UNL     1      36.854 -20.396 -19.208  0.00  0.00    -0.266 N 
ATOM     11  C   UNL     1      36.456 -21.548 -18.512  0.00  0.00    +0.308 C 
ATOM     12  H   UNL     1      37.780 -20.899 -17.094  0.00  0.00    +0.156 HD
ATOM     13  H   UNL     1      37.527 -19.832 -18.762  0.00  0.00    +0.156 HD
BRANCH   9  15
ATOM     14 CL   UNL     1      36.695 -25.769 -13.082  0.00  0.00    -0.082 Cl
ATOM     15  C   UNL     1      37.050 -22.610 -16.289  0.00  0.00    +0.052 C 
ATOM     16  C   UNL     1      38.067 -24.356 -14.965  0.00  0.00    +0.083 C 
ATOM     17  C   UNL     1      38.166 -23.376 -15.954  0.00  0.00    +0.019 C 
ATOM     18  C   UNL     1      35.835 -22.823 -15.637  0.00  0.00    +0.016 C 
ATOM     19  C   UNL     1      36.854 -24.568 -14.312  0.00  0.00    +0.062 C 
ATOM     20  C   UNL     1      35.738 -23.802 -14.648  0.00  0.00    +0.013 C 
BRANCH  16  24
ATOM     21  F   UNL     1      39.722 -24.976 -13.352  0.00  0.00    -0.166 F 
ATOM     22  F   UNL     1      39.111 -26.500 -14.770  0.00  0.00    -0.166 F 
ATOM     23  F   UNL     1      40.348 -24.837 -15.429  0.00  0.00    -0.166 F 
ATOM     24  C   UNL     1      39.287 -25.153 -14.633  0.00  0.00    +0.419 C 
ENDBRANCH  16  24
ENDBRANCH   9  15
ENDBRANCH   2  10
BRANCH   3  25
ATOM     25  O   UNL     1      35.098 -18.633 -24.165  0.00  0.00    -0.453 OA
BRANCH  25  27
ATOM     26  N   UNL     1      33.766 -14.708 -24.460  0.00  0.00    -0.239 NA
ATOM     27  C   UNL     1      34.653 -17.325 -24.262  0.00  0.00    +0.149 C 
ATOM     28  C   UNL     1      34.466 -16.589 -23.113  0.00  0.00    +0.061 C 
ATOM     29  C   UNL     1      34.022 -15.285 -23.264  0.00  0.00    +0.137 C 
ATOM     30  C   UNL     1      34.408 -16.789 -25.509  0.00  0.00    +0.058 C 
ATOM     31  C   UNL     1      33.966 -15.477 -25.553  0.00  0.00    +0.102 C 
BRANCH  29  34
ATOM     32  O   UNL     1      34.668 -14.360 -21.209  0.00  0.00    -0.268 OA
ATOM     33  N   UNL     1      32.597 -13.734 -22.045  0.00  0.00    -0.298 N 
ATOM     34  C   UNL     1      33.802 -14.445 -22.099  0.00  0.00    +0.264 C 
ATOM     35  C   UNL     1      32.243 -12.842 -20.965  0.00  0.00    +0.111 C 
ATOM     36  H   UNL     1      31.956 -13.849 -22.783  0.00  0.00    +0.150 HD
ENDBRANCH  29  34
ENDBRANCH  25  27
ENDBRANCH   3  25
TORSDOF 6
ENDMDL
MODEL 6
REMARK VINA RESULT:     -13.4      5.445      9.437
REMARK  Name = 11167602
REMARK  6 active torsions:
REMARK  status: ('A' for Active; 'I' for Inactive)
REMARK    1  A    between atoms: C_2  and  N_10
REMARK    2  A    between atoms: C_3  and  O_25
REMARK    3  A    between atoms: N_9  and  C_15
REMARK    4  A    between atoms: C_16  and  C_24
REMARK    5  A    between atoms: O_25  and  C_27
REMARK    6  A    between atoms: C_29  and  C_34
REMARK                            x       y       z     vdW  Elec       q    Type
REMARK                         _______ _______ _______ _____ _____    ______ ____
ROOT
ATOM      1  F   UNL     1      32.874 -14.387 -25.358  0.00  0.00    -0.203 F 
ATOM      2  C   UNL     1      33.581 -14.318 -23.092  0.00  0.00    +0.079 C 
ATOM      3  C   UNL     1      34.868 -16.745 -23.441  0.00  0.00    +0.148 C 
ATOM      4  C   UNL     1      33.532 -14.939 -24.329  0.00  0.00    +0.157 C 
ATOM      5  C   UNL     1      34.261 -14.884 -22.026  0.00  0.00    +0.020 C 
ATOM      6  C   UNL     1      34.180 -16.161 -24.505  0.00  0.00    +0.068 C 
ATOM      7  C   UNL     1      34.908 -16.107 -22.202  0.00  0.00    +0.039 C 
ENDROOT
BRANCH   2  10
ATOM      8  O   UNL     1      34.325 -11.586 -24.044  0.00  0.00    -0.252 OA
ATOM      9  N   UNL     1      32.380 -10.833 -22.977  0.00  0.00    -0.268 N 
ATOM     10  N   UNL     1      32.925 -13.077 -22.911  0.00  0.00    -0.266 N 
ATOM     11  C   UNL     1      33.319 -11.814 -23.381  0.00  0.00    +0.308 C 
ATOM     12  H   UNL     1      31.618 -11.164 -22.448  0.00  0.00    +0.156 HD
ATOM     13  H   UNL     1      32.090 -13.103 -22.390  0.00  0.00    +0.156 HD
BRANCH   9  15
ATOM     14 CL   UNL     1      32.385  -5.019 -24.044  0.00  0.00    -0.082 Cl
ATOM     15  C   UNL     1      32.391  -9.462 -23.230  0.00  0.00    +0.052 C 
ATOM     16  C   UNL     1      33.581  -7.463 -23.884  0.00  0.00    +0.083 C 
ATOM     17  C   UNL     1      33.571  -8.836 -23.631  0.00  0.00    +0.019 C 
ATOM     18  C   UNL     1      31.221  -8.716 -23.082  0.00  0.00    +0.016 C 
ATOM     19  C   UNL     1      32.411  -6.719 -23.738  0.00  0.00    +0.062 C 
ATOM     20  C   UNL     1      31.231  -7.345 -23.336  0.00  0.00    +0.013 C 
BRANCH  16  24
ATOM     21  F   UNL     1      34.713  -5.566 -24.801  0.00  0.00    -0.166 F 
ATOM     22  F   UNL     1      35.781  -6.722 -23.309  0.00  0.00    -0.166 F 
ATOM     23  F   UNL     1      35.485  -7.534 -25.305  0.00  0.00    -0.166 F 
ATOM     24  C   UNL     1      34.865  -6.831 -24.315  0.00  0.00    +0.419 C 
ENDBRANCH  16  24
ENDBRANCH   9  15
ENDBRANCH   2  10
BRANCH   3  25
ATOM     25  O   UNL     1      35.501 -17.938 -23.613  0.00  0.00    -0.453 OA
BRANCH  25  27
ATOM     26  N   UNL     1      36.280 -20.218 -20.227  0.00  0.00    -0.239 NA
ATOM     27  C   UNL     1      35.760 -18.697 -22.484  0.00  0.00    +0.149 C 
ATOM     28  C   UNL     1      34.748 -19.455 -21.935  0.00  0.00    +0.061 C 
ATOM     29  C   UNL     1      35.058 -20.198 -20.806  0.00  0.00    +0.137 C 
ATOM     30  C   UNL     1      37.025 -18.679 -21.936  0.00  0.00    +0.058 C 
ATOM     31  C   UNL     1      37.233 -19.456 -20.808  0.00  0.00    +0.102 C 
BRANCH  29  34
ATOM     32  O   UNL     1      32.848 -20.915 -20.495  0.00  0.00    -0.268 OA
ATOM     33  N   UNL     1      34.482 -21.941 -19.208  0.00  0.00    -0.298 N 
ATOM     34  C   UNL     1      34.045 -21.022 -20.170  0.00  0.00    +0.264 C 
ATOM     35  C   UNL     1      33.601 -22.844 -18.506  0.00  0.00    +0.111 C 
ATOM     36  H   UNL     1      35.443 -21.972 -18.998  0.00  0.00    +0.150 HD
ENDBRANCH  29  34
ENDBRANCH  25  27
ENDBRANCH   3  25
TORSDOF 6
ENDMDL
MODEL 7
REMARK VINA RESULT:     -13.2      4.221     11.579
REMARK  Name = 11167602
REMARK  6 active torsions:
REMARK  status: ('A' for Active; 'I' for Inactive)
REMARK    1  A    between atoms: C_2  and  N_10
REMARK    2  A    between atoms: C_3  and  O_25
REMARK    3  A    between atoms: N_9  and  C_15
REMARK    4  A    between atoms: C_16  and  C_24
REMARK    5  A    between atoms: O_25  and  C_27
REMARK    6  A    between atoms: C_29  and  C_34
REMARK                            x       y       z     vdW  Elec       q    Type
REMARK                         _______ _______ _______ _____ _____    ______ ____
ROOT
ATOM      1  F   UNL     1      35.706 -17.209 -21.424  0.00  0.00    -0.203 F 
ATOM      2  C   UNL     1      35.304 -19.093 -22.812  0.00  0.00    +0.079 C 
ATOM      3  C   UNL     1      34.632 -17.392 -24.892  0.00  0.00    +0.148 C 
ATOM      4  C   UNL     1      35.346 -17.724 -22.608  0.00  0.00    +0.157 C 
ATOM      5  C   UNL     1      34.933 -19.630 -24.035  0.00  0.00    +0.020 C 
ATOM      6  C   UNL     1      35.008 -16.867 -23.655  0.00  0.00    +0.068 C 
ATOM      7  C   UNL     1      34.594 -18.773 -25.081  0.00  0.00    +0.039 C 
ENDROOT
BRANCH   2  10
ATOM      8  O   UNL     1      33.626 -20.198 -20.601  0.00  0.00    -0.252 OA
ATOM      9  N   UNL     1      35.558 -21.303 -19.871  0.00  0.00    -0.268 N 
ATOM     10  N   UNL     1      35.648 -19.965 -21.752  0.00  0.00    -0.266 N 
ATOM     11  C   UNL     1      34.818 -20.457 -20.733  0.00  0.00    +0.308 C 
ATOM     12  H   UNL     1      36.508 -21.419 -20.101  0.00  0.00    +0.156 HD
ATOM     13  H   UNL     1      36.586 -20.263 -21.727  0.00  0.00    +0.156 HD
BRANCH   9  15
ATOM     14 CL   UNL     1      33.663 -24.226 -15.096  0.00  0.00    -0.082 Cl
ATOM     15  C   UNL     1      35.120 -21.993 -18.740  0.00  0.00    +0.052 C 
ATOM     16  C   UNL     1      35.556 -22.908 -16.547  0.00  0.00    +0.083 C 
ATOM     17  C   UNL     1      35.995 -22.218 -17.678  0.00  0.00    +0.019 C 
ATOM     18  C   UNL     1      33.807 -22.457 -18.673  0.00  0.00    +0.016 C 
ATOM     19  C   UNL     1      34.242 -23.371 -16.480  0.00  0.00    +0.062 C 
ATOM     20  C   UNL     1      33.368 -23.146 -17.542  0.00  0.00    +0.013 C 
BRANCH  16  24
ATOM     21  F   UNL     1      37.700 -22.454 -15.589  0.00  0.00    -0.166 F 
ATOM     22  F   UNL     1      36.047 -22.733 -14.212  0.00  0.00    -0.166 F 
ATOM     23  F   UNL     1      36.865 -24.438 -15.286  0.00  0.00    -0.166 F 
ATOM     24  C   UNL     1      36.523 -23.126 -15.429  0.00  0.00    +0.419 C 
ENDBRANCH  16  24
ENDBRANCH   9  15
ENDBRANCH   2  10
BRANCH   3  25
ATOM     25  O   UNL     1      34.301 -16.556 -25.914  0.00  0.00    -0.453 OA
BRANCH  25  27
ATOM     26  N   UNL     1      33.049 -12.715 -24.941  0.00  0.00    -0.239 NA
ATOM     27  C   UNL     1      33.883 -15.276 -25.590  0.00  0.00    +0.149 C 
ATOM     28  C   UNL     1      33.456 -15.012 -24.307  0.00  0.00    +0.061 C 
ATOM     29  C   UNL     1      33.049 -13.716 -24.032  0.00  0.00    +0.137 C 
ATOM     30  C   UNL     1      33.905 -14.295 -26.558  0.00  0.00    +0.058 C 
ATOM     31  C   UNL     1      33.478 -13.032 -26.183  0.00  0.00    +0.102 C 
BRANCH  29  34
ATOM     32  O   UNL     1      32.763 -14.132 -21.742  0.00  0.00    -0.268 OA
ATOM     33  N   UNL     1      31.961 -12.114 -22.557  0.00  0.00    -0.298 N 
ATOM     34  C   UNL     1      32.586 -13.359 -22.702  0.00  0.00    +0.264 C 
ATOM     35  C   UNL     1      31.468 -11.608 -21.297  0.00  0.00    +0.111 C 
ATOM     36  H   UNL     1      31.852 -11.553 -23.358  0.00  0.00    +0.150 HD
ENDBRANCH  29  34
ENDBRANCH  25  27
ENDBRANCH   3  25
TORSDOF 6
ENDMDL
MODEL 8
REMARK VINA RESULT:     -13.1      4.432      7.489
REMARK  Name = 11167602
REMARK  6 active torsions:
REMARK  status: ('A' for Active; 'I' for Inactive)
REMARK    1  A    between atoms: C_2  and  N_10
REMARK    2  A    between atoms: C_3  and  O_25
REMARK    3  A    between atoms: N_9  and  C_15
REMARK    4  A    between atoms: C_16  and  C_24
REMARK    5  A    between atoms: O_25  and  C_27
REMARK    6  A    between atoms: C_29  and  C_34
REMARK                            x       y       z     vdW  Elec       q    Type
REMARK                         _______ _______ _______ _____ _____    ______ ____
ROOT
ATOM      1  F   UNL     1      34.488 -16.920 -25.343  0.00  0.00    -0.203 F 
ATOM      2  C   UNL     1      34.628 -16.091 -23.122  0.00  0.00    +0.079 C 
ATOM      3  C   UNL     1      35.512 -18.575 -22.273  0.00  0.00    +0.148 C 
ATOM      4  C   UNL     1      34.770 -17.113 -24.047  0.00  0.00    +0.157 C 
ATOM      5  C   UNL     1      34.920 -16.285 -21.781  0.00  0.00    +0.020 C 
ATOM      6  C   UNL     1      35.215 -18.363 -23.619  0.00  0.00    +0.068 C 
ATOM      7  C   UNL     1      35.364 -17.536 -21.354  0.00  0.00    +0.039 C 
ENDROOT
BRANCH   2  10
ATOM      8  O   UNL     1      33.849 -13.682 -21.537  0.00  0.00    -0.252 OA
ATOM      9  N   UNL     1      33.426 -12.637 -23.591  0.00  0.00    -0.268 N 
ATOM     10  N   UNL     1      34.179 -14.821 -23.553  0.00  0.00    -0.266 N 
ATOM     11  C   UNL     1      33.822 -13.716 -22.763  0.00  0.00    +0.308 C 
ATOM     12  H   UNL     1      33.456 -12.809 -24.560  0.00  0.00    +0.156 HD
ATOM     13  H   UNL     1      34.106 -14.697 -24.527  0.00  0.00    +0.156 HD
BRANCH   9  15
ATOM     14 CL   UNL     1      31.583  -7.255 -21.986  0.00  0.00    -0.082 Cl
ATOM     15  C   UNL     1      32.999 -11.363 -23.216  0.00  0.00    +0.052 C 
ATOM     16  C   UNL     1      33.341  -8.972 -23.165  0.00  0.00    +0.083 C 
ATOM     17  C   UNL     1      33.769 -10.246 -23.541  0.00  0.00    +0.019 C 
ATOM     18  C   UNL     1      31.803 -11.207 -22.515  0.00  0.00    +0.016 C 
ATOM     19  C   UNL     1      32.144  -8.816 -22.466  0.00  0.00    +0.062 C 
ATOM     20  C   UNL     1      31.376  -9.933 -22.141  0.00  0.00    +0.013 C 
BRANCH  16  24
ATOM     21  F   UNL     1      33.574  -6.922 -24.376  0.00  0.00    -0.166 F 
ATOM     22  F   UNL     1      34.587  -7.055 -22.462  0.00  0.00    -0.166 F 
ATOM     23  F   UNL     1      35.341  -8.172 -24.169  0.00  0.00    -0.166 F 
ATOM     24  C   UNL     1      34.192  -7.801 -23.535  0.00  0.00    +0.419 C 
ENDBRANCH  16  24
ENDBRANCH   9  15
ENDBRANCH   2  10
BRANCH   3  25
ATOM     25  O   UNL     1      35.946 -19.796 -21.855  0.00  0.00    -0.453 OA
BRANCH  25  27
ATOM     26  N   UNL     1      33.698 -21.755 -18.960  0.00  0.00    -0.239 NA
ATOM     27  C   UNL     1      35.198 -20.450 -20.891  0.00  0.00    +0.149 C 
ATOM     28  C   UNL     1      35.843 -21.087 -19.854  0.00  0.00    +0.061 C 
ATOM     29  C   UNL     1      35.049 -21.725 -18.913  0.00  0.00    +0.137 C 
ATOM     30  C   UNL     1      33.822 -20.447 -20.990  0.00  0.00    +0.058 C 
ATOM     31  C   UNL     1      33.119 -21.114 -20.000  0.00  0.00    +0.102 C 
BRANCH  29  34
ATOM     32  O   UNL     1      35.046 -23.336 -17.210  0.00  0.00    -0.268 OA
ATOM     33  N   UNL     1      36.947 -22.024 -17.421  0.00  0.00    -0.298 N 
ATOM     34  C   UNL     1      35.656 -22.419 -17.791  0.00  0.00    +0.264 C 
ATOM     35  C   UNL     1      37.692 -22.632 -16.342  0.00  0.00    +0.111 C 
ATOM     36  H   UNL     1      37.371 -21.291 -17.922  0.00  0.00    +0.150 HD
ENDBRANCH  29  34
ENDBRANCH  25  27
ENDBRANCH   3  25
TORSDOF 6
ENDMDL
MODEL 9
REMARK VINA RESULT:     -13.1      3.325      4.927
REMARK  Name = 11167602
REMARK  6 active torsions:
REMARK  status: ('A' for Active; 'I' for Inactive)
REMARK    1  A    between atoms: C_2  and  N_10
REMARK    2  A    between atoms: C_3  and  O_25
REMARK    3  A    between atoms: N_9  and  C_15
REMARK    4  A    between atoms: C_16  and  C_24
REMARK    5  A    between atoms: O_25  and  C_27
REMARK    6  A    between atoms: C_29  and  C_34
REMARK                            x       y       z     vdW  Elec       q    Type
REMARK                         _______ _______ _______ _____ _____    ______ ____
ROOT
ATOM      1  F   UNL     1      32.714 -20.581 -20.741  0.00  0.00    -0.203 F 
ATOM      2  C   UNL     1      35.079 -20.362 -20.758  0.00  0.00    +0.079 C 
ATOM      3  C   UNL     1      35.243 -22.204 -18.696  0.00  0.00    +0.148 C 
ATOM      4  C   UNL     1      33.915 -20.918 -20.251  0.00  0.00    +0.157 C 
ATOM      5  C   UNL     1      36.323 -20.708 -20.255  0.00  0.00    +0.020 C 
ATOM      6  C   UNL     1      33.998 -21.845 -19.214  0.00  0.00    +0.068 C 
ATOM      7  C   UNL     1      36.405 -21.635 -19.216  0.00  0.00    +0.039 C 
ENDROOT
BRANCH   2  10
ATOM      8  O   UNL     1      34.552 -17.422 -20.684  0.00  0.00    -0.252 OA
ATOM      9  N   UNL     1      34.750 -17.467 -23.018  0.00  0.00    -0.268 N 
ATOM     10  N   UNL     1      34.998 -19.421 -21.812  0.00  0.00    -0.266 N 
ATOM     11  C   UNL     1      34.747 -18.043 -21.724  0.00  0.00    +0.308 C 
ATOM     12  H   UNL     1      34.922 -18.089 -23.761  0.00  0.00    +0.156 HD
ATOM     13  H   UNL     1      35.136 -19.778 -22.719  0.00  0.00    +0.156 HD
BRANCH   9  15
ATOM     14 CL   UNL     1      33.883 -11.813 -24.507  0.00  0.00    -0.082 Cl
ATOM     15  C   UNL     1      34.544 -16.135 -23.379  0.00  0.00    +0.052 C 
ATOM     16  C   UNL     1      33.890 -14.489 -25.021  0.00  0.00    +0.083 C 
ATOM     17  C   UNL     1      34.097 -15.821 -24.662  0.00  0.00    +0.019 C 
ATOM     18  C   UNL     1      34.784 -15.118 -22.455  0.00  0.00    +0.016 C 
ATOM     19  C   UNL     1      34.129 -13.472 -24.098  0.00  0.00    +0.062 C 
ATOM     20  C   UNL     1      34.577 -13.786 -22.815  0.00  0.00    +0.013 C 
BRANCH  16  24
ATOM     21  F   UNL     1      34.258 -13.404 -27.121  0.00  0.00    -0.166 F 
ATOM     22  F   UNL     1      33.228 -15.312 -27.168  0.00  0.00    -0.166 F 
ATOM     23  F   UNL     1      32.208 -13.546 -26.412  0.00  0.00    -0.166 F 
ATOM     24  C   UNL     1      33.408 -14.195 -26.405  0.00  0.00    +0.419 C 
ENDBRANCH  16  24
ENDBRANCH   9  15
ENDBRANCH   2  10
BRANCH   3  25
ATOM     25  O   UNL     1      35.324 -23.110 -17.682  0.00  0.00    -0.453 OA
BRANCH  25  27
ATOM     26  N   UNL     1      32.263 -23.145 -14.872  0.00  0.00    -0.239 NA
ATOM     27  C   UNL     1      34.304 -23.121 -16.747  0.00  0.00    +0.149 C 
ATOM     28  C   UNL     1      32.995 -23.145 -17.176  0.00  0.00    +0.061 C 
ATOM     29  C   UNL     1      32.010 -23.157 -16.200  0.00  0.00    +0.137 C 
ATOM     30  C   UNL     1      34.621 -23.107 -15.405  0.00  0.00    +0.058 C 
ATOM     31  C   UNL     1      33.565 -23.120 -14.508  0.00  0.00    +0.102 C 
BRANCH  29  34
ATOM     32  O   UNL     1      30.133 -22.300 -17.312  0.00  0.00    -0.268 OA
ATOM     33  N   UNL     1      29.838 -24.249 -16.090  0.00  0.00    -0.298 N 
ATOM     34  C   UNL     1      30.607 -23.184 -16.575  0.00  0.00    +0.264 C 
ATOM     35  C   UNL     1      28.437 -24.427 -16.393  0.00  0.00    +0.111 C 
ATOM     36  H   UNL     1      30.277 -24.913 -15.510  0.00  0.00    +0.150 HD
ENDBRANCH  29  34
ENDBRANCH  25  27
ENDBRANCH   3  25
TORSDOF 6
ENDMDL
