MODEL 1
REMARK VINA RESULT:     -14.0      0.000      0.000
REMARK  Name = 11282283
REMARK  4 active torsions:
REMARK  status: ('A' for Active; 'I' for Inactive)
REMARK    1  A    between atoms: N_3  and  C_21
REMARK    2  A    between atoms: C_21  and  N_22
REMARK    3  A    between atoms: N_22  and  C_24
REMARK    4  A    between atoms: C_24  and  C_27
REMARK                            x       y       z     vdW  Elec       q    Type
REMARK                         _______ _______ _______ _____ _____    ______ ____
ROOT
ATOM      1  O   UNL     1      34.290 -15.315 -22.509  0.00  0.00    -0.466 OA
ATOM      2  N   UNL     1      33.026 -12.898 -23.612  0.00  0.00    -0.290 N 
ATOM      3  N   UNL     1      32.279 -10.617 -22.023  0.00  0.00    -0.288 N 
ATOM      4  N   UNL     1      33.165 -14.023 -25.716  0.00  0.00    -0.230 NA
ATOM      5  N   UNL     1      34.128 -16.258 -25.920  0.00  0.00    -0.245 NA
ATOM      6  C   UNL     1      33.023 -11.549 -24.189  0.00  0.00    +0.113 C 
ATOM      7  C   UNL     1      32.639 -13.057 -22.206  0.00  0.00    +0.113 C 
ATOM      8  C   UNL     1      33.245 -10.497 -23.104  0.00  0.00    +0.114 C 
ATOM      9  C   UNL     1      31.704 -11.930 -21.772  0.00  0.00    +0.114 C 
ATOM     10  C   UNL     1      33.384 -14.003 -24.382  0.00  0.00    +0.152 C 
ATOM     11  C   UNL     1      33.976 -15.111 -23.815  0.00  0.00    +0.258 C 
ATOM     12  C   UNL     1      34.335 -16.211 -24.582  0.00  0.00    +0.106 C 
ATOM     13  C   UNL     1      34.908 -17.153 -23.689  0.00  0.00    +0.051 C 
ATOM     14  C   UNL     1      34.857 -16.555 -22.430  0.00  0.00    +0.141 C 
ATOM     15  C   UNL     1      33.545 -15.133 -26.393  0.00  0.00    +0.251 C 
ATOM     16  C   UNL     1      35.463 -18.439 -23.799  0.00  0.00    +0.004 C 
ATOM     17  C   UNL     1      35.325 -17.157 -21.263  0.00  0.00    +0.037 C 
ATOM     18  C   UNL     1      35.941 -19.068 -22.641  0.00  0.00    +0.000 C 
ATOM     19  C   UNL     1      35.872 -18.436 -21.397  0.00  0.00    +0.003 C 
ENDROOT
BRANCH   3  21
ATOM     20  S   UNL     1      31.810  -9.645 -19.609  0.00  0.00    -0.019 S 
ATOM     21  C   UNL     1      31.926  -9.541 -21.275  0.00  0.00    +0.135 C 
BRANCH  21  22
ATOM     22  N   UNL     1      31.670  -8.364 -21.933  0.00  0.00    -0.312 N 
ATOM     23  H   UNL     1      30.938  -8.370 -22.590  0.00  0.00    +0.149 HD
BRANCH  22  24
ATOM     24  C   UNL     1      32.378  -7.112 -21.747  0.00  0.00    +0.116 C 
BRANCH  24  27
ATOM     25  O   UNL     1      32.849  -4.692 -26.025  0.00  0.00    -0.435 OA
ATOM     26  O   UNL     1      35.082  -5.523 -26.382  0.00  0.00    -0.435 OA
ATOM     27  C   UNL     1      33.132  -6.705 -22.980  0.00  0.00    +0.001 C 
ATOM     28  C   UNL     1      32.530  -5.853 -23.901  0.00  0.00    +0.038 C 
ATOM     29  C   UNL     1      34.431  -7.192 -23.181  0.00  0.00    +0.001 C 
ATOM     30  C   UNL     1      33.263  -5.508 -25.018  0.00  0.00    +0.176 C 
ATOM     31  C   UNL     1      34.539  -5.982 -25.222  0.00  0.00    +0.176 C 
ATOM     32  C   UNL     1      35.152  -6.828 -24.320  0.00  0.00    +0.040 C 
ATOM     33  C   UNL     1      34.006  -4.705 -26.885  0.00  0.00    +0.429 C 
ENDBRANCH  24  27
ENDBRANCH  22  24
ENDBRANCH  21  22
ENDBRANCH   3  21
TORSDOF 4
ENDMDL
MODEL 2
REMARK VINA RESULT:     -13.7      3.527     10.998
REMARK  Name = 11282283
REMARK  4 active torsions:
REMARK  status: ('A' for Active; 'I' for Inactive)
REMARK    1  A    between atoms: N_3  and  C_21
REMARK    2  A    between atoms: C_21  and  N_22
REMARK    3  A    between atoms: N_22  and  C_24
REMARK    4  A    between atoms: C_24  and  C_27
REMARK                            x       y       z     vdW  Elec       q    Type
REMARK                         _______ _______ _______ _____ _____    ______ ____
ROOT
ATOM      1  O   UNL     1      34.105 -10.605 -23.412  0.00  0.00    -0.466 OA
ATOM      2  N   UNL     1      33.049 -13.195 -22.498  0.00  0.00    -0.290 N 
ATOM      3  N   UNL     1      34.361 -15.713 -22.969  0.00  0.00    -0.288 N 
ATOM      4  N   UNL     1      31.239 -11.918 -21.600  0.00  0.00    -0.230 NA
ATOM      5  N   UNL     1      31.141  -9.488 -21.824  0.00  0.00    -0.245 NA
ATOM      6  C   UNL     1      32.901 -14.307 -21.552  0.00  0.00    +0.113 C 
ATOM      7  C   UNL     1      33.881 -13.396 -23.689  0.00  0.00    +0.113 C 
ATOM      8  C   UNL     1      34.112 -15.235 -21.617  0.00  0.00    +0.114 C 
ATOM      9  C   UNL     1      33.925 -14.874 -24.074  0.00  0.00    +0.114 C 
ATOM     10  C   UNL     1      32.411 -11.977 -22.272  0.00  0.00    +0.152 C 
ATOM     11  C   UNL     1      32.950 -10.790 -22.721  0.00  0.00    +0.258 C 
ATOM     12  C   UNL     1      32.316  -9.577 -22.494  0.00  0.00    +0.106 C 
ATOM     13  C   UNL     1      33.135  -8.579 -23.084  0.00  0.00    +0.051 C 
ATOM     14  C   UNL     1      34.220  -9.263 -23.633  0.00  0.00    +0.141 C 
ATOM     15  C   UNL     1      30.685 -10.695 -21.420  0.00  0.00    +0.251 C 
ATOM     16  C   UNL     1      33.085  -7.181 -23.217  0.00  0.00    +0.004 C 
ATOM     17  C   UNL     1      35.268  -8.642 -24.312  0.00  0.00    +0.037 C 
ATOM     18  C   UNL     1      34.126  -6.532 -23.895  0.00  0.00    +0.000 C 
ATOM     19  C   UNL     1      35.196  -7.251 -24.432  0.00  0.00    +0.003 C 
ENDROOT
BRANCH   3  21
ATOM     20  S   UNL     1      35.003 -17.594 -24.712  0.00  0.00    -0.019 S 
ATOM     21  C   UNL     1      34.979 -16.901 -23.189  0.00  0.00    +0.135 C 
BRANCH  21  22
ATOM     22  N   UNL     1      35.584 -17.513 -22.121  0.00  0.00    -0.312 N 
ATOM     23  H   UNL     1      35.696 -16.977 -21.304  0.00  0.00    +0.149 HD
BRANCH  22  24
ATOM     24  C   UNL     1      36.073 -18.878 -22.085  0.00  0.00    +0.116 C 
BRANCH  24  27
ATOM     25  O   UNL     1      35.299 -22.451 -18.767  0.00  0.00    -0.435 OA
ATOM     26  O   UNL     1      32.904 -22.254 -18.941  0.00  0.00    -0.435 OA
ATOM     27  C   UNL     1      35.194 -19.768 -21.256  0.00  0.00    +0.001 C 
ATOM     28  C   UNL     1      35.773 -20.696 -20.396  0.00  0.00    +0.038 C 
ATOM     29  C   UNL     1      33.801 -19.647 -21.362  0.00  0.00    +0.001 C 
ATOM     30  C   UNL     1      34.924 -21.491 -19.655  0.00  0.00    +0.176 C 
ATOM     31  C   UNL     1      33.556 -21.378 -19.754  0.00  0.00    +0.176 C 
ATOM     32  C   UNL     1      32.963 -20.464 -20.601  0.00  0.00    +0.040 C 
ATOM     33  C   UNL     1      34.015 -22.929 -18.318  0.00  0.00    +0.429 C 
ENDBRANCH  24  27
ENDBRANCH  22  24
ENDBRANCH  21  22
ENDBRANCH   3  21
TORSDOF 4
ENDMDL
MODEL 3
REMARK VINA RESULT:     -12.7      2.890     10.666
REMARK  Name = 11282283
REMARK  4 active torsions:
REMARK  status: ('A' for Active; 'I' for Inactive)
REMARK    1  A    between atoms: N_3  and  C_21
REMARK    2  A    between atoms: C_21  and  N_22
REMARK    3  A    between atoms: N_22  and  C_24
REMARK    4  A    between atoms: C_24  and  C_27
REMARK                            x       y       z     vdW  Elec       q    Type
REMARK                         _______ _______ _______ _____ _____    ______ ____
ROOT
ATOM      1  O   UNL     1      32.764  -9.478 -22.929  0.00  0.00    -0.466 OA
ATOM      2  N   UNL     1      32.715 -12.246 -21.935  0.00  0.00    -0.290 N 
ATOM      3  N   UNL     1      33.610 -14.513 -23.467  0.00  0.00    -0.288 N 
ATOM      4  N   UNL     1      31.797 -11.306 -19.939  0.00  0.00    -0.230 NA
ATOM      5  N   UNL     1      31.405  -8.906 -19.708  0.00  0.00    -0.245 NA
ATOM      6  C   UNL     1      33.281 -13.426 -21.271  0.00  0.00    +0.113 C 
ATOM      7  C   UNL     1      32.618 -12.248 -23.398  0.00  0.00    +0.113 C 
ATOM      8  C   UNL     1      34.240 -14.163 -22.203  0.00  0.00    +0.114 C 
ATOM      9  C   UNL     1      32.514 -13.676 -23.931  0.00  0.00    +0.114 C 
ATOM     10  C   UNL     1      32.279 -11.151 -21.192  0.00  0.00    +0.152 C 
ATOM     11  C   UNL     1      32.325  -9.872 -21.706  0.00  0.00    +0.258 C 
ATOM     12  C   UNL     1      31.893  -8.780 -20.967  0.00  0.00    +0.106 C 
ATOM     13  C   UNL     1      32.078  -7.639 -21.789  0.00  0.00    +0.051 C 
ATOM     14  C   UNL     1      32.616  -8.122 -22.983  0.00  0.00    +0.141 C 
ATOM     15  C   UNL     1      31.396 -10.190 -19.284  0.00  0.00    +0.251 C 
ATOM     16  C   UNL     1      31.855  -6.258 -21.664  0.00  0.00    +0.004 C 
ATOM     17  C   UNL     1      32.949  -7.314 -24.069  0.00  0.00    +0.037 C 
ATOM     18  C   UNL     1      32.181  -5.422 -22.741  0.00  0.00    +0.000 C 
ATOM     19  C   UNL     1      32.718  -5.943 -23.921  0.00  0.00    +0.003 C 
ENDROOT
BRANCH   3  21
ATOM     20  S   UNL     1      33.456 -15.865 -25.734  0.00  0.00    -0.019 S 
ATOM     21  C   UNL     1      34.032 -15.582 -24.189  0.00  0.00    +0.135 C 
BRANCH  21  22
ATOM     22  N   UNL     1      34.948 -16.422 -23.607  0.00  0.00    -0.312 N 
ATOM     23  H   UNL     1      35.530 -16.037 -22.914  0.00  0.00    +0.149 HD
BRANCH  22  24
ATOM     24  C   UNL     1      35.136 -17.826 -23.919  0.00  0.00    +0.116 C 
BRANCH  24  27
ATOM     25  O   UNL     1      34.331 -21.091 -20.304  0.00  0.00    -0.435 OA
ATOM     26  O   UNL     1      36.558 -20.835 -19.419  0.00  0.00    -0.435 OA
ATOM     27  C   UNL     1      35.550 -18.618 -22.713  0.00  0.00    +0.001 C 
ATOM     28  C   UNL     1      34.642 -19.491 -22.121  0.00  0.00    +0.038 C 
ATOM     29  C   UNL     1      36.847 -18.464 -22.204  0.00  0.00    +0.001 C 
ATOM     30  C   UNL     1      35.070 -20.197 -21.016  0.00  0.00    +0.176 C 
ATOM     31  C   UNL     1      36.342 -20.051 -20.510  0.00  0.00    +0.176 C 
ATOM     32  C   UNL     1      37.256 -19.190 -21.083  0.00  0.00    +0.040 C 
ATOM     33  C   UNL     1      35.280 -21.492 -19.295  0.00  0.00    +0.429 C 
ENDBRANCH  24  27
ENDBRANCH  22  24
ENDBRANCH  21  22
ENDBRANCH   3  21
TORSDOF 4
ENDMDL
MODEL 4
REMARK VINA RESULT:     -12.5      7.312     11.358
REMARK  Name = 11282283
REMARK  4 active torsions:
REMARK  status: ('A' for Active; 'I' for Inactive)
REMARK    1  A    between atoms: N_3  and  C_21
REMARK    2  A    between atoms: C_21  and  N_22
REMARK    3  A    between atoms: N_22  and  C_24
REMARK    4  A    between atoms: C_24  and  C_27
REMARK                            x       y       z     vdW  Elec       q    Type
REMARK                         _______ _______ _______ _____ _____    ______ ____
ROOT
ATOM      1  O   UNL     1      33.063 -22.972 -16.623  0.00  0.00    -0.466 OA
ATOM      2  N   UNL     1      35.662 -22.355 -17.855  0.00  0.00    -0.290 N 
ATOM      3  N   UNL     1      35.982 -20.619 -20.129  0.00  0.00    -0.288 N 
ATOM      4  N   UNL     1      36.577 -23.793 -16.180  0.00  0.00    -0.230 NA
ATOM      5  N   UNL     1      35.165 -24.900 -14.522  0.00  0.00    -0.245 NA
ATOM      6  C   UNL     1      36.890 -21.574 -18.036  0.00  0.00    +0.113 C 
ATOM      7  C   UNL     1      34.600 -22.230 -18.859  0.00  0.00    +0.113 C 
ATOM      8  C   UNL     1      36.614 -20.314 -18.854  0.00  0.00    +0.114 C 
ATOM      9  C   UNL     1      35.182 -21.831 -20.214  0.00  0.00    +0.114 C 
ATOM     10  C   UNL     1      35.509 -23.198 -16.756  0.00  0.00    +0.152 C 
ATOM     11  C   UNL     1      34.265 -23.453 -16.215  0.00  0.00    +0.258 C 
ATOM     12  C   UNL     1      34.112 -24.290 -15.120  0.00  0.00    +0.106 C 
ATOM     13  C   UNL     1      32.723 -24.327 -14.834  0.00  0.00    +0.051 C 
ATOM     14  C   UNL     1      32.123 -23.502 -15.785  0.00  0.00    +0.141 C 
ATOM     15  C   UNL     1      36.343 -24.596 -15.114  0.00  0.00    +0.251 C 
ATOM     16  C   UNL     1      31.905 -24.961 -13.884  0.00  0.00    +0.004 C 
ATOM     17  C   UNL     1      30.752 -23.263 -15.853  0.00  0.00    +0.037 C 
ATOM     18  C   UNL     1      30.522 -24.739 -13.930  0.00  0.00    +0.000 C 
ATOM     19  C   UNL     1      29.958 -23.905 -14.898  0.00  0.00    +0.003 C 
ENDROOT
BRANCH   3  21
ATOM     20  S   UNL     1      37.554 -18.949 -21.443  0.00  0.00    -0.019 S 
ATOM     21  C   UNL     1      36.135 -19.801 -21.200  0.00  0.00    +0.135 C 
BRANCH  21  22
ATOM     22  N   UNL     1      35.086 -19.698 -22.079  0.00  0.00    -0.312 N 
ATOM     23  H   UNL     1      34.181 -19.804 -21.708  0.00  0.00    +0.149 HD
BRANCH  22  24
ATOM     24  C   UNL     1      35.188 -19.448 -23.503  0.00  0.00    +0.116 C 
BRANCH  24  27
ATOM     25  O   UNL     1      33.603 -15.930 -26.584  0.00  0.00    -0.435 OA
ATOM     26  O   UNL     1      33.852 -14.202 -24.924  0.00  0.00    -0.435 OA
ATOM     27  C   UNL     1      34.838 -18.030 -23.851  0.00  0.00    +0.001 C 
ATOM     28  C   UNL     1      34.375 -17.732 -25.129  0.00  0.00    +0.038 C 
ATOM     29  C   UNL     1      34.985 -17.030 -22.880  0.00  0.00    +0.001 C 
ATOM     30  C   UNL     1      34.066 -16.415 -25.400  0.00  0.00    +0.176 C 
ATOM     31  C   UNL     1      34.208 -15.428 -24.452  0.00  0.00    +0.176 C 
ATOM     32  C   UNL     1      34.666 -15.704 -23.179  0.00  0.00    +0.040 C 
ATOM     33  C   UNL     1      33.469 -14.528 -26.275  0.00  0.00    +0.429 C 
ENDBRANCH  24  27
ENDBRANCH  22  24
ENDBRANCH  21  22
ENDBRANCH   3  21
TORSDOF 4
ENDMDL
MODEL 5
REMARK VINA RESULT:     -12.3      5.574     12.299
REMARK  Name = 11282283
REMARK  4 active torsions:
REMARK  status: ('A' for Active; 'I' for Inactive)
REMARK    1  A    between atoms: N_3  and  C_21
REMARK    2  A    between atoms: C_21  and  N_22
REMARK    3  A    between atoms: N_22  and  C_24
REMARK    4  A    between atoms: C_24  and  C_27
REMARK                            x       y       z     vdW  Elec       q    Type
REMARK                         _______ _______ _______ _____ _____    ______ ____
ROOT
ATOM      1  O   UNL     1      33.421 -14.883 -21.894  0.00  0.00    -0.466 OA
ATOM      2  N   UNL     1      34.654 -17.400 -22.788  0.00  0.00    -0.290 N 
ATOM      3  N   UNL     1      35.118 -19.656 -21.062  0.00  0.00    -0.288 N 
ATOM      4  N   UNL     1      34.781 -16.348 -24.930  0.00  0.00    -0.230 NA
ATOM      5  N   UNL     1      33.965 -14.076 -25.300  0.00  0.00    -0.245 NA
ATOM      6  C   UNL     1      34.639 -18.767 -23.319  0.00  0.00    +0.113 C 
ATOM      7  C   UNL     1      34.910 -17.209 -21.357  0.00  0.00    +0.113 C 
ATOM      8  C   UNL     1      34.257 -19.766 -22.229  0.00  0.00    +0.114 C 
ATOM      9  C   UNL     1      35.736 -18.366 -20.796  0.00  0.00    +0.114 C 
ATOM     10  C   UNL     1      34.432 -16.308 -23.625  0.00  0.00    +0.152 C 
ATOM     11  C   UNL     1      33.848 -15.150 -23.154  0.00  0.00    +0.258 C 
ATOM     12  C   UNL     1      33.626 -14.063 -23.988  0.00  0.00    +0.106 C 
ATOM     13  C   UNL     1      33.020 -13.061 -23.186  0.00  0.00    +0.051 C 
ATOM     14  C   UNL     1      32.917 -13.614 -21.910  0.00  0.00    +0.141 C 
ATOM     15  C   UNL     1      34.530 -15.246 -25.677  0.00  0.00    +0.251 C 
ATOM     16  C   UNL     1      32.550 -11.753 -23.391  0.00  0.00    +0.004 C 
ATOM     17  C   UNL     1      32.370 -12.947 -20.815  0.00  0.00    +0.037 C 
ATOM     18  C   UNL     1      31.996 -11.059 -22.307  0.00  0.00    +0.000 C 
ATOM     19  C   UNL     1      31.909 -11.647 -21.043  0.00  0.00    +0.003 C 
ENDROOT
BRANCH   3  21
ATOM     20  S   UNL     1      36.891 -21.222 -19.881  0.00  0.00    -0.019 S 
ATOM     21  C   UNL     1      35.338 -20.720 -20.249  0.00  0.00    +0.135 C 
BRANCH  21  22
ATOM     22  N   UNL     1      34.242 -21.369 -19.738  0.00  0.00    -0.312 N 
ATOM     23  H   UNL     1      33.422 -20.838 -19.624  0.00  0.00    +0.149 HD
BRANCH  22  24
ATOM     24  C   UNL     1      34.181 -22.766 -19.353  0.00  0.00    +0.116 C 
BRANCH  24  27
ATOM     25  O   UNL     1      30.779 -23.149 -15.795  0.00  0.00    -0.435 OA
ATOM     26  O   UNL     1      32.444 -23.391 -14.069  0.00  0.00    -0.435 OA
ATOM     27  C   UNL     1      33.750 -22.936 -17.925  0.00  0.00    +0.001 C 
ATOM     28  C   UNL     1      32.393 -22.951 -17.616  0.00  0.00    +0.038 C 
ATOM     29  C   UNL     1      34.724 -23.076 -16.927  0.00  0.00    +0.001 C 
ATOM     30  C   UNL     1      32.046 -23.110 -16.290  0.00  0.00    +0.176 C 
ATOM     31  C   UNL     1      32.997 -23.249 -15.305  0.00  0.00    +0.176 C 
ATOM     32  C   UNL     1      34.347 -23.235 -15.592  0.00  0.00    +0.040 C 
ATOM     33  C   UNL     1      31.039 -23.328 -14.388  0.00  0.00    +0.429 C 
ENDBRANCH  24  27
ENDBRANCH  22  24
ENDBRANCH  21  22
ENDBRANCH   3  21
TORSDOF 4
ENDMDL
MODEL 6
REMARK VINA RESULT:     -12.1      5.298     12.222
REMARK  Name = 11282283
REMARK  4 active torsions:
REMARK  status: ('A' for Active; 'I' for Inactive)
REMARK    1  A    between atoms: N_3  and  C_21
REMARK    2  A    between atoms: C_21  and  N_22
REMARK    3  A    between atoms: N_22  and  C_24
REMARK    4  A    between atoms: C_24  and  C_27
REMARK                            x       y       z     vdW  Elec       q    Type
REMARK                         _______ _______ _______ _____ _____    ______ ____
ROOT
ATOM      1  O   UNL     1      33.379 -14.739 -21.872  0.00  0.00    -0.466 OA
ATOM      2  N   UNL     1      34.651 -17.172 -22.929  0.00  0.00    -0.290 N 
ATOM      3  N   UNL     1      35.333 -19.453 -21.311  0.00  0.00    -0.288 N 
ATOM      4  N   UNL     1      34.581 -16.055 -25.041  0.00  0.00    -0.230 NA
ATOM      5  N   UNL     1      33.644 -13.813 -25.282  0.00  0.00    -0.245 NA
ATOM      6  C   UNL     1      34.657 -18.523 -23.500  0.00  0.00    +0.113 C 
ATOM      7  C   UNL     1      35.000 -17.010 -21.514  0.00  0.00    +0.113 C 
ATOM      8  C   UNL     1      34.396 -19.569 -22.418  0.00  0.00    +0.114 C 
ATOM      9  C   UNL     1      35.912 -18.144 -21.049  0.00  0.00    +0.114 C 
ATOM     10  C   UNL     1      34.324 -16.068 -23.714  0.00  0.00    +0.152 C 
ATOM     11  C   UNL     1      33.726 -14.951 -23.168  0.00  0.00    +0.258 C 
ATOM     12  C   UNL     1      33.399 -13.852 -23.949  0.00  0.00    +0.106 C 
ATOM     13  C   UNL     1      32.810 -12.901 -23.076  0.00  0.00    +0.051 C 
ATOM     14  C   UNL     1      32.821 -13.494 -21.814  0.00  0.00    +0.141 C 
ATOM     15  C   UNL     1      34.230 -14.945 -25.733  0.00  0.00    +0.251 C 
ATOM     16  C   UNL     1      32.270 -11.610 -23.207  0.00  0.00    +0.004 C 
ATOM     17  C   UNL     1      32.326 -12.883 -20.663  0.00  0.00    +0.037 C 
ATOM     18  C   UNL     1      31.766 -10.972 -22.066  0.00  0.00    +0.000 C 
ATOM     19  C   UNL     1      31.795 -11.599 -20.818  0.00  0.00    +0.003 C 
ENDROOT
BRANCH   3  21
ATOM     20  S   UNL     1      37.144 -20.639 -19.793  0.00  0.00    -0.019 S 
ATOM     21  C   UNL     1      35.655 -20.529 -20.549  0.00  0.00    +0.135 C 
BRANCH  21  22
ATOM     22  N   UNL     1      34.717 -21.521 -20.419  0.00  0.00    -0.312 N 
ATOM     23  H   UNL     1      34.920 -22.386 -20.843  0.00  0.00    +0.149 HD
BRANCH  22  24
ATOM     24  C   UNL     1      33.455 -21.415 -19.713  0.00  0.00    +0.116 C 
BRANCH  24  27
ATOM     25  O   UNL     1      35.670 -23.952 -16.102  0.00  0.00    -0.435 OA
ATOM     26  O   UNL     1      33.584 -24.404 -14.983  0.00  0.00    -0.435 OA
ATOM     27  C   UNL     1      33.454 -22.214 -18.442  0.00  0.00    +0.001 C 
ATOM     28  C   UNL     1      34.658 -22.683 -17.926  0.00  0.00    +0.038 C 
ATOM     29  C   UNL     1      32.237 -22.473 -17.796  0.00  0.00    +0.001 C 
ATOM     30  C   UNL     1      34.606 -23.411 -16.755  0.00  0.00    +0.176 C 
ATOM     31  C   UNL     1      33.414 -23.670 -16.116  0.00  0.00    +0.176 C 
ATOM     32  C   UNL     1      32.210 -23.213 -16.613  0.00  0.00    +0.040 C 
ATOM     33  C   UNL     1      35.016 -24.578 -14.980  0.00  0.00    +0.429 C 
ENDBRANCH  24  27
ENDBRANCH  22  24
ENDBRANCH  21  22
ENDBRANCH   3  21
TORSDOF 4
ENDMDL
MODEL 7
REMARK VINA RESULT:     -11.9      7.438     11.517
REMARK  Name = 11282283
REMARK  4 active torsions:
REMARK  status: ('A' for Active; 'I' for Inactive)
REMARK    1  A    between atoms: N_3  and  C_21
REMARK    2  A    between atoms: C_21  and  N_22
REMARK    3  A    between atoms: N_22  and  C_24
REMARK    4  A    between atoms: C_24  and  C_27
REMARK                            x       y       z     vdW  Elec       q    Type
REMARK                         _______ _______ _______ _____ _____    ______ ____
ROOT
ATOM      1  O   UNL     1      37.704 -23.607 -16.298  0.00  0.00    -0.466 OA
ATOM      2  N   UNL     1      35.550 -22.218 -17.743  0.00  0.00    -0.290 N 
ATOM      3  N   UNL     1      35.979 -20.608 -20.091  0.00  0.00    -0.288 N 
ATOM      4  N   UNL     1      34.102 -23.157 -16.090  0.00  0.00    -0.230 NA
ATOM      5  N   UNL     1      34.949 -24.582 -14.296  0.00  0.00    -0.245 NA
ATOM      6  C   UNL     1      34.508 -22.093 -18.768  0.00  0.00    +0.113 C 
ATOM      7  C   UNL     1      36.816 -21.504 -17.943  0.00  0.00    +0.113 C 
ATOM      8  C   UNL     1      35.126 -21.786 -20.131  0.00  0.00    +0.114 C 
ATOM      9  C   UNL     1      36.609 -20.273 -18.823  0.00  0.00    +0.114 C 
ATOM     10  C   UNL     1      35.341 -22.995 -16.605  0.00  0.00    +0.152 C 
ATOM     11  C   UNL     1      36.388 -23.627 -15.966  0.00  0.00    +0.258 C 
ATOM     12  C   UNL     1      36.180 -24.402 -14.834  0.00  0.00    +0.106 C 
ATOM     13  C   UNL     1      37.453 -24.892 -14.444  0.00  0.00    +0.051 C 
ATOM     14  C   UNL     1      38.354 -24.376 -15.375  0.00  0.00    +0.141 C 
ATOM     15  C   UNL     1      33.984 -23.930 -14.983  0.00  0.00    +0.251 C 
ATOM     16  C   UNL     1      37.947 -25.711 -13.414  0.00  0.00    +0.004 C 
ATOM     17  C   UNL     1      39.726 -24.622 -15.350  0.00  0.00    +0.037 C 
ATOM     18  C   UNL     1      39.323 -25.975 -13.365  0.00  0.00    +0.000 C 
ATOM     19  C   UNL     1      40.194 -25.439 -14.317  0.00  0.00    +0.003 C 
ENDROOT
BRANCH   3  21
ATOM     20  S   UNL     1      37.621 -19.036 -21.439  0.00  0.00    -0.019 S 
ATOM     21  C   UNL     1      36.179 -19.849 -21.197  0.00  0.00    +0.135 C 
BRANCH  21  22
ATOM     22  N   UNL     1      35.159 -19.774 -22.112  0.00  0.00    -0.312 N 
ATOM     23  H   UNL     1      34.247 -19.938 -21.779  0.00  0.00    +0.149 HD
BRANCH  22  24
ATOM     24  C   UNL     1      35.299 -19.473 -23.523  0.00  0.00    +0.116 C 
BRANCH  24  27
ATOM     25  O   UNL     1      33.660 -15.937 -26.554  0.00  0.00    -0.435 OA
ATOM     26  O   UNL     1      33.757 -14.254 -24.832  0.00  0.00    -0.435 OA
ATOM     27  C   UNL     1      34.892 -18.063 -23.840  0.00  0.00    +0.001 C 
ATOM     28  C   UNL     1      34.464 -17.746 -25.126  0.00  0.00    +0.038 C 
ATOM     29  C   UNL     1      34.951 -17.090 -22.833  0.00  0.00    +0.001 C 
ATOM     30  C   UNL     1      34.100 -16.438 -25.368  0.00  0.00    +0.176 C 
ATOM     31  C   UNL     1      34.155 -15.476 -24.385  0.00  0.00    +0.176 C 
ATOM     32  C   UNL     1      34.578 -15.772 -23.104  0.00  0.00    +0.040 C 
ATOM     33  C   UNL     1      33.443 -14.554 -26.207  0.00  0.00    +0.429 C 
ENDBRANCH  24  27
ENDBRANCH  22  24
ENDBRANCH  21  22
ENDBRANCH   3  21
TORSDOF 4
ENDMDL
MODEL 8
REMARK VINA RESULT:     -11.7      2.340      9.762
REMARK  Name = 11282283
REMARK  4 active torsions:
REMARK  status: ('A' for Active; 'I' for Inactive)
REMARK    1  A    between atoms: N_3  and  C_21
REMARK    2  A    between atoms: C_21  and  N_22
REMARK    3  A    between atoms: N_22  and  C_24
REMARK    4  A    between atoms: C_24  and  C_27
REMARK                            x       y       z     vdW  Elec       q    Type
REMARK                         _______ _______ _______ _____ _____    ______ ____
ROOT
ATOM      1  O   UNL     1      33.878  -5.825 -25.274  0.00  0.00    -0.466 OA
ATOM      2  N   UNL     1      31.815  -6.535 -23.301  0.00  0.00    -0.290 N 
ATOM      3  N   UNL     1      31.870  -8.943 -21.725  0.00  0.00    -0.288 N 
ATOM      4  N   UNL     1      30.778  -4.477 -23.935  0.00  0.00    -0.230 NA
ATOM      5  N   UNL     1      31.755  -3.011 -25.626  0.00  0.00    -0.245 NA
ATOM      6  C   UNL     1      31.219  -6.569 -21.961  0.00  0.00    +0.113 C 
ATOM      7  C   UNL     1      32.441  -7.756 -23.819  0.00  0.00    +0.113 C 
ATOM      8  C   UNL     1      31.895  -7.632 -21.096  0.00  0.00    +0.114 C 
ATOM      9  C   UNL     1      31.819  -8.996 -23.178  0.00  0.00    +0.114 C 
ATOM     10  C   UNL     1      31.785  -5.370 -24.065  0.00  0.00    +0.152 C 
ATOM     11  C   UNL     1      32.780  -5.084 -24.976  0.00  0.00    +0.258 C 
ATOM     12  C   UNL     1      32.752  -3.923 -25.736  0.00  0.00    +0.106 C 
ATOM     13  C   UNL     1      33.910  -3.951 -26.555  0.00  0.00    +0.051 C 
ATOM     14  C   UNL     1      34.567  -5.138 -26.233  0.00  0.00    +0.141 C 
ATOM     15  C   UNL     1      30.825  -3.369 -24.713  0.00  0.00    +0.251 C 
ATOM     16  C   UNL     1      34.477  -3.112 -27.529  0.00  0.00    +0.004 C 
ATOM     17  C   UNL     1      35.762  -5.550 -26.821  0.00  0.00    +0.037 C 
ATOM     18  C   UNL     1      35.678  -3.502 -28.137  0.00  0.00    +0.000 C 
ATOM     19  C   UNL     1      36.307  -4.700 -27.788  0.00  0.00    +0.003 C 
ENDROOT
BRANCH   3  21
ATOM     20  S   UNL     1      31.867 -10.018 -19.310  0.00  0.00    -0.019 S 
ATOM     21  C   UNL     1      31.895 -10.078 -20.982  0.00  0.00    +0.135 C 
BRANCH  21  22
ATOM     22  N   UNL     1      31.941 -11.276 -21.649  0.00  0.00    -0.312 N 
ATOM     23  H   UNL     1      31.973 -11.239 -22.632  0.00  0.00    +0.149 HD
BRANCH  22  24
ATOM     24  C   UNL     1      31.949 -12.592 -21.039  0.00  0.00    +0.116 C 
BRANCH  24  27
ATOM     25  O   UNL     1      33.466 -14.755 -25.210  0.00  0.00    -0.435 OA
ATOM     26  O   UNL     1      35.022 -16.177 -24.043  0.00  0.00    -0.435 OA
ATOM     27  C   UNL     1      32.789 -13.565 -21.814  0.00  0.00    +0.001 C 
ATOM     28  C   UNL     1      32.658 -13.633 -23.198  0.00  0.00    +0.038 C 
ATOM     29  C   UNL     1      33.693 -14.389 -21.129  0.00  0.00    +0.001 C 
ATOM     30  C   UNL     1      33.452 -14.542 -23.866  0.00  0.00    +0.176 C 
ATOM     31  C   UNL     1      34.341 -15.354 -23.200  0.00  0.00    +0.176 C 
ATOM     32  C   UNL     1      34.485 -15.301 -21.828  0.00  0.00    +0.040 C 
ATOM     33  C   UNL     1      34.464 -15.791 -25.315  0.00  0.00    +0.429 C 
ENDBRANCH  24  27
ENDBRANCH  22  24
ENDBRANCH  21  22
ENDBRANCH   3  21
TORSDOF 4
ENDMDL
MODEL 9
REMARK VINA RESULT:     -11.7      5.930     12.837
REMARK  Name = 11282283
REMARK  4 active torsions:
REMARK  status: ('A' for Active; 'I' for Inactive)
REMARK    1  A    between atoms: N_3  and  C_21
REMARK    2  A    between atoms: C_21  and  N_22
REMARK    3  A    between atoms: N_22  and  C_24
REMARK    4  A    between atoms: C_24  and  C_27
REMARK                            x       y       z     vdW  Elec       q    Type
REMARK                         _______ _______ _______ _____ _____    ______ ____
ROOT
ATOM      1  O   UNL     1      33.678 -15.535 -21.741  0.00  0.00    -0.466 OA
ATOM      2  N   UNL     1      34.956 -18.056 -22.558  0.00  0.00    -0.290 N 
ATOM      3  N   UNL     1      35.432 -20.260 -20.769  0.00  0.00    -0.288 N 
ATOM      4  N   UNL     1      35.092 -17.057 -24.724  0.00  0.00    -0.230 NA
ATOM      5  N   UNL     1      34.248 -14.807 -25.161  0.00  0.00    -0.245 NA
ATOM      6  C   UNL     1      34.966 -19.436 -23.053  0.00  0.00    +0.113 C 
ATOM      7  C   UNL     1      35.193 -17.825 -21.129  0.00  0.00    +0.113 C 
ATOM      8  C   UNL     1      34.585 -20.412 -21.942  0.00  0.00    +0.114 C 
ATOM      9  C   UNL     1      36.029 -18.955 -20.530  0.00  0.00    +0.114 C 
ATOM     10  C   UNL     1      34.728 -16.989 -23.424  0.00  0.00    +0.152 C 
ATOM     11  C   UNL     1      34.123 -15.828 -22.990  0.00  0.00    +0.258 C 
ATOM     12  C   UNL     1      33.894 -14.766 -23.853  0.00  0.00    +0.106 C 
ATOM     13  C   UNL     1      33.266 -13.752 -23.084  0.00  0.00    +0.051 C 
ATOM     14  C   UNL     1      33.156 -14.274 -21.795  0.00  0.00    +0.141 C 
ATOM     15  C   UNL     1      34.833 -15.978 -25.501  0.00  0.00    +0.251 C 
ATOM     16  C   UNL     1      32.780 -12.457 -23.328  0.00  0.00    +0.004 C 
ATOM     17  C   UNL     1      32.589 -13.587 -20.724  0.00  0.00    +0.037 C 
ATOM     18  C   UNL     1      32.204 -11.743 -22.268  0.00  0.00    +0.000 C 
ATOM     19  C   UNL     1      32.112 -12.300 -20.990  0.00  0.00    +0.003 C 
ENDROOT
BRANCH   3  21
ATOM     20  S   UNL     1      34.516 -22.505 -19.714  0.00  0.00    -0.019 S 
ATOM     21  C   UNL     1      35.658 -21.300 -19.927  0.00  0.00    +0.135 C 
BRANCH  21  22
ATOM     22  N   UNL     1      36.856 -21.331 -19.258  0.00  0.00    -0.312 N 
ATOM     23  H   UNL     1      37.638 -21.657 -19.758  0.00  0.00    +0.149 HD
BRANCH  22  24
ATOM     24  C   UNL     1      37.075 -20.926 -17.883  0.00  0.00    +0.116 C 
BRANCH  24  27
ATOM     25  O   UNL     1      38.973 -24.404 -14.937  0.00  0.00    -0.435 OA
ATOM     26  O   UNL     1      36.796 -25.243 -14.332  0.00  0.00    -0.435 OA
ATOM     27  C   UNL     1      36.964 -22.083 -16.933  0.00  0.00    +0.001 C 
ATOM     28  C   UNL     1      38.121 -22.656 -16.413  0.00  0.00    +0.038 C 
ATOM     29  C   UNL     1      35.695 -22.565 -16.585  0.00  0.00    +0.001 C 
ATOM     30  C   UNL     1      37.968 -23.716 -15.543  0.00  0.00    +0.176 C 
ATOM     31  C   UNL     1      36.725 -24.195 -15.197  0.00  0.00    +0.176 C 
ATOM     32  C   UNL     1      35.566 -23.640 -15.703  0.00  0.00    +0.040 C 
ATOM     33  C   UNL     1      38.224 -25.369 -14.170  0.00  0.00    +0.429 C 
ENDBRANCH  24  27
ENDBRANCH  22  24
ENDBRANCH  21  22
ENDBRANCH   3  21
TORSDOF 4
ENDMDL
