MODEL 1
REMARK VINA RESULT:     -13.4      0.000      0.000
REMARK  Name = 25058128
REMARK  13 active torsions:
REMARK  status: ('A' for Active; 'I' for Inactive)
REMARK    1  A    between atoms: C_1  and  S_11
REMARK    2  A    between atoms: C_9  and  O_27
REMARK    3  A    between atoms: S_11  and  N_14
REMARK    4  A    between atoms: N_14  and  C_16
REMARK    5  A    between atoms: C_16  and  C_18
REMARK    6  A    between atoms: C_16  and  C_21
REMARK    7  A    between atoms: C_18  and  O_19
REMARK    8  A    between atoms: C_21  and  C_22
REMARK    9  A    between atoms: C_22  and  C_24
REMARK   10  A    between atoms: C_24  and  O_25
REMARK   11  A    between atoms: O_27  and  C_28
REMARK   12  A    between atoms: C_28  and  C_30
REMARK   13  A    between atoms: C_35  and  C_37
REMARK                            x       y       z     vdW  Elec       q    Type
REMARK                         _______ _______ _______ _____ _____    ______ ____
ROOT
ATOM      1  C   UNL     1      35.939 -23.317 -15.747  0.00  0.00    +0.122 C 
ATOM      2  C   UNL     1      34.845 -22.511 -17.764  0.00  0.00    +0.002 C 
ATOM      3  C   UNL     1      34.801 -23.208 -16.545  0.00  0.00    +0.020 C 
ATOM      4  C   UNL     1      36.061 -21.915 -18.177  0.00  0.00    +0.003 C 
ATOM      5  C   UNL     1      37.134 -22.731 -16.152  0.00  0.00    +0.020 C 
ATOM      6  C   UNL     1      37.197 -22.034 -17.359  0.00  0.00    +0.001 C 
ATOM      7  C   UNL     1      36.106 -21.217 -19.395  0.00  0.00    +0.037 C 
ATOM      8  C   UNL     1      33.710 -22.391 -18.582  0.00  0.00    +0.003 C 
ATOM      9  C   UNL     1      34.967 -21.109 -20.195  0.00  0.00    +0.139 C 
ATOM     10  C   UNL     1      33.772 -21.694 -19.789  0.00  0.00    +0.037 C 
ENDROOT
BRANCH   1  11
ATOM     11  S   UNL     1      35.862 -24.199 -14.216  0.00  0.00    +0.061 S 
ATOM     12  O   UNL     1      34.606 -23.871 -13.573  0.00  0.00    -0.153 OA
ATOM     13  O   UNL     1      36.194 -25.580 -14.508  0.00  0.00    -0.153 OA
BRANCH  11  14
ATOM     14  N   UNL     1      37.143 -23.499 -13.345  0.00  0.00    -0.170 NA
ATOM     15  H   UNL     1      36.783 -22.638 -12.932  0.00  0.00    +0.149 HD
BRANCH  14  16
ATOM     16  C   UNL     1      37.795 -24.255 -12.254  0.00  0.00    +0.174 C 
BRANCH  16  18
ATOM     17  O   UNL     1      36.458 -23.954 -10.245  0.00  0.00    -0.249 OA
ATOM     18  C   UNL     1      36.739 -24.615 -11.237  0.00  0.00    +0.330 C 
BRANCH  18  19
ATOM     19  O   UNL     1      36.098 -25.771 -11.551  0.00  0.00    -0.479 OA
ATOM     20  H   UNL     1      36.232 -26.169 -12.388  0.00  0.00    +0.295 HD
ENDBRANCH  18  19
ENDBRANCH  16  18
BRANCH  16  21
ATOM     21  C   UNL     1      38.570 -25.452 -12.819  0.00  0.00    +0.040 C 
BRANCH  21  22
ATOM     22  C   UNL     1      39.812 -25.126 -13.653  0.00  0.00    +0.111 C 
BRANCH  22  24
ATOM     23  O   UNL     1      40.938 -26.188 -15.508  0.00  0.00    -0.250 OA
ATOM     24  C   UNL     1      39.889 -25.882 -14.956  0.00  0.00    +0.314 C 
BRANCH  24  25
ATOM     25  O   UNL     1      38.667 -26.175 -15.467  0.00  0.00    -0.480 OA
ATOM     26  H   UNL     1      38.225 -26.958 -15.202  0.00  0.00    +0.295 HD
ENDBRANCH  24  25
ENDBRANCH  22  24
ENDBRANCH  21  22
ENDBRANCH  16  21
ENDBRANCH  14  16
ENDBRANCH  11  14
ENDBRANCH   1  11
BRANCH   9  27
ATOM     27  O   UNL     1      35.026 -20.428 -21.372  0.00  0.00    -0.471 OA
BRANCH  27  28
ATOM     28  C   UNL     1      35.841 -19.258 -21.406  0.00  0.00    +0.234 C 
BRANCH  28  30
ATOM     29  F   UNL     1      35.357 -16.486 -21.098  0.00  0.00    -0.204 F 
ATOM     30  C   UNL     1      35.387 -18.377 -22.532  0.00  0.00    +0.049 C 
ATOM     31  C   UNL     1      35.165 -17.017 -22.314  0.00  0.00    +0.140 C 
ATOM     32  C   UNL     1      35.186 -18.921 -23.801  0.00  0.00    +0.002 C 
ATOM     33  C   UNL     1      34.743 -16.202 -23.364  0.00  0.00    +0.040 C 
ATOM     34  C   UNL     1      34.763 -18.105 -24.851  0.00  0.00    +0.010 C 
ATOM     35  C   UNL     1      34.541 -16.746 -24.632  0.00  0.00    +0.071 C 
BRANCH  35  37
ATOM     36  N   UNL     1      33.759 -15.230 -26.580  0.00  0.00    -0.191 NA
ATOM     37  C   UNL     1      34.110 -15.910 -25.708  0.00  0.00    +0.100 C 
ENDBRANCH  35  37
ENDBRANCH  28  30
ENDBRANCH  27  28
ENDBRANCH   9  27
TORSDOF 13
ENDMDL
MODEL 2
REMARK VINA RESULT:     -13.2      1.338      3.149
REMARK  Name = 25058128
REMARK  13 active torsions:
REMARK  status: ('A' for Active; 'I' for Inactive)
REMARK    1  A    between atoms: C_1  and  S_11
REMARK    2  A    between atoms: C_9  and  O_27
REMARK    3  A    between atoms: S_11  and  N_14
REMARK    4  A    between atoms: N_14  and  C_16
REMARK    5  A    between atoms: C_16  and  C_18
REMARK    6  A    between atoms: C_16  and  C_21
REMARK    7  A    between atoms: C_18  and  O_19
REMARK    8  A    between atoms: C_21  and  C_22
REMARK    9  A    between atoms: C_22  and  C_24
REMARK   10  A    between atoms: C_24  and  O_25
REMARK   11  A    between atoms: O_27  and  C_28
REMARK   12  A    between atoms: C_28  and  C_30
REMARK   13  A    between atoms: C_35  and  C_37
REMARK                            x       y       z     vdW  Elec       q    Type
REMARK                         _______ _______ _______ _____ _____    ______ ____
ROOT
ATOM      1  C   UNL     1      34.853 -23.579 -16.575  0.00  0.00    +0.122 C 
ATOM      2  C   UNL     1      35.604 -22.094 -18.348  0.00  0.00    +0.002 C 
ATOM      3  C   UNL     1      35.875 -22.883 -17.218  0.00  0.00    +0.020 C 
ATOM      4  C   UNL     1      34.276 -22.012 -18.832  0.00  0.00    +0.003 C 
ATOM      5  C   UNL     1      33.548 -23.500 -17.051  0.00  0.00    +0.020 C 
ATOM      6  C   UNL     1      33.259 -22.721 -18.172  0.00  0.00    +0.001 C 
ATOM      7  C   UNL     1      34.004 -21.224 -19.963  0.00  0.00    +0.037 C 
ATOM      8  C   UNL     1      36.620 -21.385 -19.009  0.00  0.00    +0.003 C 
ATOM      9  C   UNL     1      35.027 -20.526 -20.606  0.00  0.00    +0.139 C 
ATOM     10  C   UNL     1      36.332 -20.606 -20.130  0.00  0.00    +0.037 C 
ENDROOT
BRANCH   1  11
ATOM     11  S   UNL     1      35.215 -24.567 -15.153  0.00  0.00    +0.061 S 
ATOM     12  O   UNL     1      34.223 -24.272 -14.139  0.00  0.00    -0.153 OA
ATOM     13  O   UNL     1      35.400 -25.927 -15.621  0.00  0.00    -0.153 OA
BRANCH  11  14
ATOM     14  N   UNL     1      36.720 -23.943 -14.670  0.00  0.00    -0.170 NA
ATOM     15  H   UNL     1      36.532 -23.078 -14.162  0.00  0.00    +0.149 HD
BRANCH  14  16
ATOM     16  C   UNL     1      37.616 -24.753 -13.815  0.00  0.00    +0.174 C 
BRANCH  16  18
ATOM     17  O   UNL     1      39.973 -24.695 -14.412  0.00  0.00    -0.249 OA
ATOM     18  C   UNL     1      38.840 -25.108 -14.625  0.00  0.00    +0.330 C 
BRANCH  18  19
ATOM     19  O   UNL     1      38.554 -25.974 -15.632  0.00  0.00    -0.479 OA
ATOM     20  H   UNL     1      38.945 -26.825 -15.643  0.00  0.00    +0.295 HD
ENDBRANCH  18  19
ENDBRANCH  16  18
BRANCH  16  21
ATOM     21  C   UNL     1      37.911 -24.019 -12.501  0.00  0.00    +0.040 C 
BRANCH  21  22
ATOM     22  C   UNL     1      36.717 -23.363 -11.804  0.00  0.00    +0.111 C 
BRANCH  22  24
ATOM     23  O   UNL     1      36.073 -24.358  -9.698  0.00  0.00    -0.250 OA
ATOM     24  C   UNL     1      35.939 -24.301 -10.915  0.00  0.00    +0.314 C 
BRANCH  24  25
ATOM     25  O   UNL     1      35.082 -25.092 -11.606  0.00  0.00    -0.480 OA
ATOM     26  H   UNL     1      34.162 -25.050 -11.430  0.00  0.00    +0.295 HD
ENDBRANCH  24  25
ENDBRANCH  22  24
ENDBRANCH  21  22
ENDBRANCH  16  21
ENDBRANCH  14  16
ENDBRANCH  11  14
ENDBRANCH   1  11
BRANCH   9  27
ATOM     27  O   UNL     1      34.748 -19.768 -21.701  0.00  0.00    -0.471 OA
BRANCH  27  28
ATOM     28  C   UNL     1      35.824 -19.020 -22.265  0.00  0.00    +0.234 C 
BRANCH  28  30
ATOM     29  F   UNL     1      34.762 -19.733 -24.790  0.00  0.00    -0.204 F 
ATOM     30  C   UNL     1      35.270 -18.016 -23.232  0.00  0.00    +0.049 C 
ATOM     31  C   UNL     1      34.762 -18.434 -24.462  0.00  0.00    +0.140 C 
ATOM     32  C   UNL     1      35.264 -16.661 -22.899  0.00  0.00    +0.002 C 
ATOM     33  C   UNL     1      34.248 -17.497 -25.359  0.00  0.00    +0.040 C 
ATOM     34  C   UNL     1      34.751 -15.725 -23.796  0.00  0.00    +0.010 C 
ATOM     35  C   UNL     1      34.242 -16.142 -25.026  0.00  0.00    +0.071 C 
BRANCH  35  37
ATOM     36  N   UNL     1      33.284 -14.404 -26.689  0.00  0.00    -0.191 NA
ATOM     37  C   UNL     1      33.714 -15.184 -25.944  0.00  0.00    +0.100 C 
ENDBRANCH  35  37
ENDBRANCH  28  30
ENDBRANCH  27  28
ENDBRANCH   9  27
TORSDOF 13
ENDMDL
MODEL 3
REMARK VINA RESULT:     -13.2      1.348      2.936
REMARK  Name = 25058128
REMARK  13 active torsions:
REMARK  status: ('A' for Active; 'I' for Inactive)
REMARK    1  A    between atoms: C_1  and  S_11
REMARK    2  A    between atoms: C_9  and  O_27
REMARK    3  A    between atoms: S_11  and  N_14
REMARK    4  A    between atoms: N_14  and  C_16
REMARK    5  A    between atoms: C_16  and  C_18
REMARK    6  A    between atoms: C_16  and  C_21
REMARK    7  A    between atoms: C_18  and  O_19
REMARK    8  A    between atoms: C_21  and  C_22
REMARK    9  A    between atoms: C_22  and  C_24
REMARK   10  A    between atoms: C_24  and  O_25
REMARK   11  A    between atoms: O_27  and  C_28
REMARK   12  A    between atoms: C_28  and  C_30
REMARK   13  A    between atoms: C_35  and  C_37
REMARK                            x       y       z     vdW  Elec       q    Type
REMARK                         _______ _______ _______ _____ _____    ______ ____
ROOT
ATOM      1  C   UNL     1      36.111 -22.933 -16.750  0.00  0.00    +0.122 C 
ATOM      2  C   UNL     1      34.701 -22.047 -18.522  0.00  0.00    +0.002 C 
ATOM      3  C   UNL     1      34.862 -22.817 -17.359  0.00  0.00    +0.020 C 
ATOM      4  C   UNL     1      35.824 -21.385 -19.075  0.00  0.00    +0.003 C 
ATOM      5  C   UNL     1      37.214 -22.282 -17.292  0.00  0.00    +0.020 C 
ATOM      6  C   UNL     1      37.073 -21.512 -18.447  0.00  0.00    +0.001 C 
ATOM      7  C   UNL     1      35.663 -20.614 -20.238  0.00  0.00    +0.037 C 
ATOM      8  C   UNL     1      33.451 -21.919 -19.150  0.00  0.00    +0.003 C 
ATOM      9  C   UNL     1      34.413 -20.498 -20.848  0.00  0.00    +0.139 C 
ATOM     10  C   UNL     1      33.310 -21.150 -20.306  0.00  0.00    +0.037 C 
ENDROOT
BRANCH   1  11
ATOM     11  S   UNL     1      36.292 -23.907 -15.285  0.00  0.00    +0.061 S 
ATOM     12  O   UNL     1      35.707 -23.171 -14.183  0.00  0.00    -0.153 OA
ATOM     13  O   UNL     1      35.820 -25.241 -15.605  0.00  0.00    -0.153 OA
BRANCH  11  14
ATOM     14  N   UNL     1      37.981 -23.951 -15.102  0.00  0.00    -0.170 NA
ATOM     15  H   UNL     1      38.237 -23.150 -14.524  0.00  0.00    +0.149 HD
BRANCH  14  16
ATOM     16  C   UNL     1      38.629 -25.137 -14.499  0.00  0.00    +0.174 C 
BRANCH  16  18
ATOM     17  O   UNL     1      41.021 -24.710 -14.412  0.00  0.00    -0.249 OA
ATOM     18  C   UNL     1      40.055 -25.192 -14.990  0.00  0.00    +0.330 C 
BRANCH  18  19
ATOM     19  O   UNL     1      40.168 -25.867 -16.163  0.00  0.00    -0.479 OA
ATOM     20  H   UNL     1      40.757 -25.563 -16.825  0.00  0.00    +0.295 HD
ENDBRANCH  18  19
ENDBRANCH  16  18
BRANCH  16  21
ATOM     21  C   UNL     1      38.479 -25.111 -12.973  0.00  0.00    +0.040 C 
BRANCH  21  22
ATOM     22  C   UNL     1      37.295 -25.887 -12.391  0.00  0.00    +0.111 C 
BRANCH  22  24
ATOM     23  O   UNL     1      36.730 -24.379 -10.591  0.00  0.00    -0.250 OA
ATOM     24  C   UNL     1      36.367 -25.046 -11.552  0.00  0.00    +0.314 C 
BRANCH  24  25
ATOM     25  O   UNL     1      35.076 -25.118 -11.961  0.00  0.00    -0.480 OA
ATOM     26  H   UNL     1      34.693 -25.951 -12.156  0.00  0.00    +0.295 HD
ENDBRANCH  24  25
ENDBRANCH  22  24
ENDBRANCH  21  22
ENDBRANCH  16  21
ENDBRANCH  14  16
ENDBRANCH  11  14
ENDBRANCH   1  11
BRANCH   9  27
ATOM     27  O   UNL     1      34.273 -19.747 -21.974  0.00  0.00    -0.471 OA
BRANCH  27  28
ATOM     28  C   UNL     1      35.425 -19.041 -22.431  0.00  0.00    +0.234 C 
BRANCH  28  30
ATOM     29  F   UNL     1      34.526 -19.542 -25.068  0.00  0.00    -0.204 F 
ATOM     30  C   UNL     1      34.993 -17.952 -23.369  0.00  0.00    +0.049 C 
ATOM     31  C   UNL     1      34.561 -18.267 -24.657  0.00  0.00    +0.140 C 
ATOM     32  C   UNL     1      35.024 -16.622 -22.949  0.00  0.00    +0.002 C 
ATOM     33  C   UNL     1      34.160 -17.252 -25.526  0.00  0.00    +0.040 C 
ATOM     34  C   UNL     1      34.624 -15.607 -23.819  0.00  0.00    +0.010 C 
ATOM     35  C   UNL     1      34.192 -15.922 -25.107  0.00  0.00    +0.071 C 
BRANCH  35  37
ATOM     36  N   UNL     1      33.444 -14.038 -26.718  0.00  0.00    -0.191 NA
ATOM     37  C   UNL     1      33.780 -14.882 -25.996  0.00  0.00    +0.100 C 
ENDBRANCH  35  37
ENDBRANCH  28  30
ENDBRANCH  27  28
ENDBRANCH   9  27
TORSDOF 13
ENDMDL
MODEL 4
REMARK VINA RESULT:     -13.0      1.340      2.053
REMARK  Name = 25058128
REMARK  13 active torsions:
REMARK  status: ('A' for Active; 'I' for Inactive)
REMARK    1  A    between atoms: C_1  and  S_11
REMARK    2  A    between atoms: C_9  and  O_27
REMARK    3  A    between atoms: S_11  and  N_14
REMARK    4  A    between atoms: N_14  and  C_16
REMARK    5  A    between atoms: C_16  and  C_18
REMARK    6  A    between atoms: C_16  and  C_21
REMARK    7  A    between atoms: C_18  and  O_19
REMARK    8  A    between atoms: C_21  and  C_22
REMARK    9  A    between atoms: C_22  and  C_24
REMARK   10  A    between atoms: C_24  and  O_25
REMARK   11  A    between atoms: O_27  and  C_28
REMARK   12  A    between atoms: C_28  and  C_30
REMARK   13  A    between atoms: C_35  and  C_37
REMARK                            x       y       z     vdW  Elec       q    Type
REMARK                         _______ _______ _______ _____ _____    ______ ____
ROOT
ATOM      1  C   UNL     1      34.651 -23.545 -16.485  0.00  0.00    +0.122 C 
ATOM      2  C   UNL     1      35.475 -22.133 -18.287  0.00  0.00    +0.002 C 
ATOM      3  C   UNL     1      35.705 -22.899 -17.132  0.00  0.00    +0.020 C 
ATOM      4  C   UNL     1      34.157 -22.021 -18.791  0.00  0.00    +0.003 C 
ATOM      5  C   UNL     1      33.356 -23.435 -16.982  0.00  0.00    +0.020 C 
ATOM      6  C   UNL     1      33.109 -22.678 -18.128  0.00  0.00    +0.001 C 
ATOM      7  C   UNL     1      33.927 -21.255 -19.946  0.00  0.00    +0.037 C 
ATOM      8  C   UNL     1      36.523 -21.475 -18.951  0.00  0.00    +0.003 C 
ATOM      9  C   UNL     1      34.981 -20.608 -20.593  0.00  0.00    +0.139 C 
ATOM     10  C   UNL     1      36.276 -20.718 -20.097  0.00  0.00    +0.037 C 
ENDROOT
BRANCH   1  11
ATOM     11  S   UNL     1      34.962 -24.505 -15.033  0.00  0.00    +0.061 S 
ATOM     12  O   UNL     1      33.763 -24.486 -14.220  0.00  0.00    -0.153 OA
ATOM     13  O   UNL     1      35.526 -25.766 -15.474  0.00  0.00    -0.153 OA
BRANCH  11  14
ATOM     14  N   UNL     1      36.178 -23.597 -14.269  0.00  0.00    -0.170 NA
ATOM     15  H   UNL     1      35.707 -22.907 -13.682  0.00  0.00    +0.149 HD
BRANCH  14  16
ATOM     16  C   UNL     1      37.178 -24.273 -13.413  0.00  0.00    +0.174 C 
BRANCH  16  18
ATOM     17  O   UNL     1      36.700 -26.056 -11.830  0.00  0.00    -0.249 OA
ATOM     18  C   UNL     1      36.444 -24.946 -12.278  0.00  0.00    +0.330 C 
BRANCH  18  19
ATOM     19  O   UNL     1      35.453 -24.165 -11.774  0.00  0.00    -0.479 OA
ATOM     20  H   UNL     1      34.559 -24.343 -11.992  0.00  0.00    +0.295 HD
ENDBRANCH  18  19
ENDBRANCH  16  18
BRANCH  16  21
ATOM     21  C   UNL     1      38.055 -25.211 -14.251  0.00  0.00    +0.040 C 
BRANCH  21  22
ATOM     22  C   UNL     1      39.532 -25.296 -13.858  0.00  0.00    +0.111 C 
BRANCH  22  24
ATOM     23  O   UNL     1      41.152 -26.949 -14.548  0.00  0.00    -0.250 OA
ATOM     24  C   UNL     1      40.386 -26.043 -14.851  0.00  0.00    +0.314 C 
BRANCH  24  25
ATOM     25  O   UNL     1      40.232 -25.594 -16.121  0.00  0.00    -0.480 OA
ATOM     26  H   UNL     1      39.810 -24.771 -16.278  0.00  0.00    +0.295 HD
ENDBRANCH  24  25
ENDBRANCH  22  24
ENDBRANCH  21  22
ENDBRANCH  16  21
ENDBRANCH  14  16
ENDBRANCH  11  14
ENDBRANCH   1  11
BRANCH   9  27
ATOM     27  O   UNL     1      34.742 -19.871 -21.712  0.00  0.00    -0.471 OA
BRANCH  27  28
ATOM     28  C   UNL     1      35.818 -19.078 -22.210  0.00  0.00    +0.234 C 
BRANCH  28  30
ATOM     29  F   UNL     1      34.816 -19.776 -24.764  0.00  0.00    -0.204 F 
ATOM     30  C   UNL     1      35.277 -18.069 -23.179  0.00  0.00    +0.049 C 
ATOM     31  C   UNL     1      34.799 -18.479 -24.423  0.00  0.00    +0.140 C 
ATOM     32  C   UNL     1      35.253 -16.718 -22.833  0.00  0.00    +0.002 C 
ATOM     33  C   UNL     1      34.296 -17.538 -25.322  0.00  0.00    +0.040 C 
ATOM     34  C   UNL     1      34.752 -15.777 -23.733  0.00  0.00    +0.010 C 
ATOM     35  C   UNL     1      34.273 -16.187 -24.977  0.00  0.00    +0.071 C 
BRANCH  35  37
ATOM     36  N   UNL     1      33.338 -14.440 -26.644  0.00  0.00    -0.191 NA
ATOM     37  C   UNL     1      33.757 -15.223 -25.897  0.00  0.00    +0.100 C 
ENDBRANCH  35  37
ENDBRANCH  28  30
ENDBRANCH  27  28
ENDBRANCH   9  27
TORSDOF 13
ENDMDL
MODEL 5
REMARK VINA RESULT:     -12.5      3.759     11.143
REMARK  Name = 25058128
REMARK  13 active torsions:
REMARK  status: ('A' for Active; 'I' for Inactive)
REMARK    1  A    between atoms: C_1  and  S_11
REMARK    2  A    between atoms: C_9  and  O_27
REMARK    3  A    between atoms: S_11  and  N_14
REMARK    4  A    between atoms: N_14  and  C_16
REMARK    5  A    between atoms: C_16  and  C_18
REMARK    6  A    between atoms: C_16  and  C_21
REMARK    7  A    between atoms: C_18  and  O_19
REMARK    8  A    between atoms: C_21  and  C_22
REMARK    9  A    between atoms: C_22  and  C_24
REMARK   10  A    between atoms: C_24  and  O_25
REMARK   11  A    between atoms: O_27  and  C_28
REMARK   12  A    between atoms: C_28  and  C_30
REMARK   13  A    between atoms: C_35  and  C_37
REMARK                            x       y       z     vdW  Elec       q    Type
REMARK                         _______ _______ _______ _____ _____    ______ ____
ROOT
ATOM      1  C   UNL     1      35.451 -19.562 -21.379  0.00  0.00    +0.122 C 
ATOM      2  C   UNL     1      34.242 -21.046 -19.878  0.00  0.00    +0.002 C 
ATOM      3  C   UNL     1      34.249 -20.088 -20.905  0.00  0.00    +0.020 C 
ATOM      4  C   UNL     1      35.472 -21.477 -19.325  0.00  0.00    +0.003 C 
ATOM      5  C   UNL     1      36.660 -19.986 -20.836  0.00  0.00    +0.020 C 
ATOM      6  C   UNL     1      36.672 -20.937 -19.816  0.00  0.00    +0.001 C 
ATOM      7  C   UNL     1      35.466 -22.435 -18.299  0.00  0.00    +0.037 C 
ATOM      8  C   UNL     1      33.042 -21.586 -19.387  0.00  0.00    +0.003 C 
ATOM      9  C   UNL     1      34.264 -22.961 -17.823  0.00  0.00    +0.139 C 
ATOM     10  C   UNL     1      33.055 -22.538 -18.366  0.00  0.00    +0.037 C 
ENDROOT
BRANCH   1  11
ATOM     11  S   UNL     1      35.437 -18.357 -22.673  0.00  0.00    +0.061 S 
ATOM     12  O   UNL     1      36.762 -18.316 -23.259  0.00  0.00    -0.153 OA
ATOM     13  O   UNL     1      34.281 -18.640 -23.501  0.00  0.00    -0.153 OA
BRANCH  11  14
ATOM     14  N   UNL     1      35.157 -16.921 -21.809  0.00  0.00    -0.170 NA
ATOM     15  H   UNL     1      36.065 -16.479 -21.668  0.00  0.00    +0.149 HD
BRANCH  14  16
ATOM     16  C   UNL     1      34.260 -15.885 -22.368  0.00  0.00    +0.174 C 
BRANCH  16  18
ATOM     17  O   UNL     1      34.802 -14.318 -20.589  0.00  0.00    -0.249 OA
ATOM     18  C   UNL     1      33.963 -14.885 -21.277  0.00  0.00    +0.330 C 
BRANCH  18  19
ATOM     19  O   UNL     1      32.631 -14.654 -21.143  0.00  0.00    -0.479 OA
ATOM     20  H   UNL     1      32.298 -13.780 -21.204  0.00  0.00    +0.295 HD
ENDBRANCH  18  19
ENDBRANCH  16  18
BRANCH  16  21
ATOM     21  C   UNL     1      34.867 -15.281 -23.640  0.00  0.00    +0.040 C 
BRANCH  21  22
ATOM     22  C   UNL     1      33.886 -14.927 -24.762  0.00  0.00    +0.111 C 
BRANCH  22  24
ATOM     23  O   UNL     1      32.783 -16.129 -26.544  0.00  0.00    -0.250 OA
ATOM     24  C   UNL     1      33.766 -15.989 -25.825  0.00  0.00    +0.314 C 
BRANCH  24  25
ATOM     25  O   UNL     1      34.858 -16.791 -25.895  0.00  0.00    -0.480 OA
ATOM     26  H   UNL     1      34.757 -17.701 -26.095  0.00  0.00    +0.295 HD
ENDBRANCH  24  25
ENDBRANCH  22  24
ENDBRANCH  21  22
ENDBRANCH  16  21
ENDBRANCH  14  16
ENDBRANCH  11  14
ENDBRANCH   1  11
BRANCH   9  27
ATOM     27  O   UNL     1      34.274 -23.890 -16.829  0.00  0.00    -0.471 OA
BRANCH  27  28
ATOM     28  C   UNL     1      34.810 -23.488 -15.569  0.00  0.00    +0.234 C 
BRANCH  28  30
ATOM     29  F   UNL     1      37.272 -22.090 -15.571  0.00  0.00    -0.204 F 
ATOM     30  C   UNL     1      36.134 -24.163 -15.362  0.00  0.00    +0.049 C 
ATOM     31  C   UNL     1      37.312 -23.416 -15.375  0.00  0.00    +0.140 C 
ATOM     32  C   UNL     1      36.185 -25.542 -15.156  0.00  0.00    +0.002 C 
ATOM     33  C   UNL     1      38.540 -24.048 -15.183  0.00  0.00    +0.040 C 
ATOM     34  C   UNL     1      37.414 -26.173 -14.964  0.00  0.00    +0.010 C 
ATOM     35  C   UNL     1      38.592 -25.426 -14.978  0.00  0.00    +0.071 C 
BRANCH  35  37
ATOM     36  N   UNL     1      40.873 -26.598 -14.618  0.00  0.00    -0.191 NA
ATOM     37  C   UNL     1      39.851 -26.073 -14.779  0.00  0.00    +0.100 C 
ENDBRANCH  35  37
ENDBRANCH  28  30
ENDBRANCH  27  28
ENDBRANCH   9  27
TORSDOF 13
ENDMDL
MODEL 6
REMARK VINA RESULT:     -12.5      4.028     11.369
REMARK  Name = 25058128
REMARK  13 active torsions:
REMARK  status: ('A' for Active; 'I' for Inactive)
REMARK    1  A    between atoms: C_1  and  S_11
REMARK    2  A    between atoms: C_9  and  O_27
REMARK    3  A    between atoms: S_11  and  N_14
REMARK    4  A    between atoms: N_14  and  C_16
REMARK    5  A    between atoms: C_16  and  C_18
REMARK    6  A    between atoms: C_16  and  C_21
REMARK    7  A    between atoms: C_18  and  O_19
REMARK    8  A    between atoms: C_21  and  C_22
REMARK    9  A    between atoms: C_22  and  C_24
REMARK   10  A    between atoms: C_24  and  O_25
REMARK   11  A    between atoms: O_27  and  C_28
REMARK   12  A    between atoms: C_28  and  C_30
REMARK   13  A    between atoms: C_35  and  C_37
REMARK                            x       y       z     vdW  Elec       q    Type
REMARK                         _______ _______ _______ _____ _____    ______ ____
ROOT
ATOM      1  C   UNL     1      35.272 -19.398 -21.587  0.00  0.00    +0.122 C 
ATOM      2  C   UNL     1      34.172 -20.915 -20.036  0.00  0.00    +0.002 C 
ATOM      3  C   UNL     1      34.108 -19.966 -21.070  0.00  0.00    +0.020 C 
ATOM      4  C   UNL     1      35.435 -21.291 -19.520  0.00  0.00    +0.003 C 
ATOM      5  C   UNL     1      36.514 -19.769 -21.080  0.00  0.00    +0.020 C 
ATOM      6  C   UNL     1      36.596 -20.710 -20.053  0.00  0.00    +0.001 C 
ATOM      7  C   UNL     1      35.499 -22.240 -18.487  0.00  0.00    +0.037 C 
ATOM      8  C   UNL     1      33.011 -21.497 -19.502  0.00  0.00    +0.003 C 
ATOM      9  C   UNL     1      34.335 -22.809 -17.969  0.00  0.00    +0.139 C 
ATOM     10  C   UNL     1      33.093 -22.438 -18.475  0.00  0.00    +0.037 C 
ENDROOT
BRANCH   1  11
ATOM     11  S   UNL     1      35.170 -18.206 -22.889  0.00  0.00    +0.061 S 
ATOM     12  O   UNL     1      36.512 -17.741 -23.177  0.00  0.00    -0.153 OA
ATOM     13  O   UNL     1      34.360 -18.795 -23.938  0.00  0.00    -0.153 OA
BRANCH  11  14
ATOM     14  N   UNL     1      34.286 -16.957 -22.150  0.00  0.00    -0.170 NA
ATOM     15  H   UNL     1      34.189 -17.206 -21.165  0.00  0.00    +0.149 HD
BRANCH  14  16
ATOM     16  C   UNL     1      34.795 -15.568 -22.190  0.00  0.00    +0.174 C 
BRANCH  16  18
ATOM     17  O   UNL     1      33.869 -15.570 -24.439  0.00  0.00    -0.249 OA
ATOM     18  C   UNL     1      34.416 -14.969 -23.523  0.00  0.00    +0.330 C 
BRANCH  18  19
ATOM     19  O   UNL     1      34.734 -13.650 -23.601  0.00  0.00    -0.479 OA
ATOM     20  H   UNL     1      35.555 -13.387 -23.966  0.00  0.00    +0.295 HD
ENDBRANCH  18  19
ENDBRANCH  16  18
BRANCH  16  21
ATOM     21  C   UNL     1      34.298 -14.779 -20.972  0.00  0.00    +0.040 C 
BRANCH  21  22
ATOM     22  C   UNL     1      32.782 -14.610 -20.841  0.00  0.00    +0.111 C 
BRANCH  22  24
ATOM     23  O   UNL     1      32.266 -12.298 -20.365  0.00  0.00    -0.250 OA
ATOM     24  C   UNL     1      32.292 -13.222 -21.170  0.00  0.00    +0.314 C 
BRANCH  24  25
ATOM     25  O   UNL     1      31.865 -13.104 -22.451  0.00  0.00    -0.480 OA
ATOM     26  H   UNL     1      31.504 -12.292 -22.751  0.00  0.00    +0.295 HD
ENDBRANCH  24  25
ENDBRANCH  22  24
ENDBRANCH  21  22
ENDBRANCH  16  21
ENDBRANCH  14  16
ENDBRANCH  11  14
ENDBRANCH   1  11
BRANCH   9  27
ATOM     27  O   UNL     1      34.413 -23.728 -16.968  0.00  0.00    -0.471 OA
BRANCH  27  28
ATOM     28  C   UNL     1      34.958 -23.289 -15.724  0.00  0.00    +0.234 C 
BRANCH  28  30
ATOM     29  F   UNL     1      37.477 -22.006 -15.860  0.00  0.00    -0.204 F 
ATOM     30  C   UNL     1      36.253 -24.003 -15.477  0.00  0.00    +0.049 C 
ATOM     31  C   UNL     1      37.462 -23.312 -15.561  0.00  0.00    +0.140 C 
ATOM     32  C   UNL     1      36.248 -25.362 -15.163  0.00  0.00    +0.002 C 
ATOM     33  C   UNL     1      38.665 -23.980 -15.330  0.00  0.00    +0.040 C 
ATOM     34  C   UNL     1      37.451 -26.030 -14.933  0.00  0.00    +0.010 C 
ATOM     35  C   UNL     1      38.660 -25.339 -15.017  0.00  0.00    +0.071 C 
BRANCH  35  37
ATOM     36  N   UNL     1      40.892 -26.578 -14.587  0.00  0.00    -0.191 NA
ATOM     37  C   UNL     1      39.892 -26.022 -14.780  0.00  0.00    +0.100 C 
ENDBRANCH  35  37
ENDBRANCH  28  30
ENDBRANCH  27  28
ENDBRANCH   9  27
TORSDOF 13
ENDMDL
MODEL 7
REMARK VINA RESULT:     -12.3      2.056      2.803
REMARK  Name = 25058128
REMARK  13 active torsions:
REMARK  status: ('A' for Active; 'I' for Inactive)
REMARK    1  A    between atoms: C_1  and  S_11
REMARK    2  A    between atoms: C_9  and  O_27
REMARK    3  A    between atoms: S_11  and  N_14
REMARK    4  A    between atoms: N_14  and  C_16
REMARK    5  A    between atoms: C_16  and  C_18
REMARK    6  A    between atoms: C_16  and  C_21
REMARK    7  A    between atoms: C_18  and  O_19
REMARK    8  A    between atoms: C_21  and  C_22
REMARK    9  A    between atoms: C_22  and  C_24
REMARK   10  A    between atoms: C_24  and  O_25
REMARK   11  A    between atoms: O_27  and  C_28
REMARK   12  A    between atoms: C_28  and  C_30
REMARK   13  A    between atoms: C_35  and  C_37
REMARK                            x       y       z     vdW  Elec       q    Type
REMARK                         _______ _______ _______ _____ _____    ______ ____
ROOT
ATOM      1  C   UNL     1      35.306 -22.459 -17.488  0.00  0.00    +0.122 C 
ATOM      2  C   UNL     1      34.406 -21.342 -19.452  0.00  0.00    +0.002 C 
ATOM      3  C   UNL     1      34.218 -22.088 -18.277  0.00  0.00    +0.020 C 
ATOM      4  C   UNL     1      35.717 -20.967 -19.831  0.00  0.00    +0.003 C 
ATOM      5  C   UNL     1      36.595 -22.090 -17.860  0.00  0.00    +0.020 C 
ATOM      6  C   UNL     1      36.801 -21.348 -19.024  0.00  0.00    +0.001 C 
ATOM      7  C   UNL     1      35.906 -20.220 -21.005  0.00  0.00    +0.037 C 
ATOM      8  C   UNL     1      33.322 -20.960 -20.260  0.00  0.00    +0.003 C 
ATOM      9  C   UNL     1      34.817 -19.849 -21.795  0.00  0.00    +0.139 C 
ATOM     10  C   UNL     1      33.528 -20.218 -21.423  0.00  0.00    +0.037 C 
ENDROOT
BRANCH   1  11
ATOM     11  S   UNL     1      35.048 -23.399 -16.013  0.00  0.00    +0.061 S 
ATOM     12  O   UNL     1      35.335 -22.541 -14.880  0.00  0.00    -0.153 OA
ATOM     13  O   UNL     1      33.749 -24.032 -16.138  0.00  0.00    -0.153 OA
BRANCH  11  14
ATOM     14  N   UNL     1      36.255 -24.589 -16.141  0.00  0.00    -0.170 NA
ATOM     15  H   UNL     1      37.033 -24.166 -16.647  0.00  0.00    +0.149 HD
BRANCH  14  16
ATOM     16  C   UNL     1      36.822 -25.201 -14.919  0.00  0.00    +0.174 C 
BRANCH  16  18
ATOM     17  O   UNL     1      36.897 -27.286 -16.168  0.00  0.00    -0.249 OA
ATOM     18  C   UNL     1      36.806 -26.700 -15.097  0.00  0.00    +0.330 C 
BRANCH  18  19
ATOM     19  O   UNL     1      36.698 -27.355 -13.912  0.00  0.00    -0.479 OA
ATOM     20  H   UNL     1      36.027 -27.116 -13.303  0.00  0.00    +0.295 HD
ENDBRANCH  18  19
ENDBRANCH  16  18
BRANCH  16  21
ATOM     21  C   UNL     1      38.203 -24.609 -14.614  0.00  0.00    +0.040 C 
BRANCH  21  22
ATOM     22  C   UNL     1      39.160 -25.492 -13.809  0.00  0.00    +0.111 C 
BRANCH  22  24
ATOM     23  O   UNL     1      40.971 -26.863 -14.632  0.00  0.00    -0.250 OA
ATOM     24  C   UNL     1      40.476 -25.750 -14.497  0.00  0.00    +0.314 C 
BRANCH  24  25
ATOM     25  O   UNL     1      41.071 -24.614 -14.941  0.00  0.00    -0.480 OA
ATOM     26  H   UNL     1      41.377 -24.562 -15.826  0.00  0.00    +0.295 HD
ENDBRANCH  24  25
ENDBRANCH  22  24
ENDBRANCH  21  22
ENDBRANCH  16  21
ENDBRANCH  14  16
ENDBRANCH  11  14
ENDBRANCH   1  11
BRANCH   9  27
ATOM     27  O   UNL     1      35.015 -19.124 -22.930  0.00  0.00    -0.471 OA
BRANCH  27  28
ATOM     28  C   UNL     1      35.891 -18.001 -22.839  0.00  0.00    +0.234 C 
BRANCH  28  30
ATOM     29  F   UNL     1      35.230 -16.797 -20.364  0.00  0.00    -0.204 F 
ATOM     30  C   UNL     1      35.072 -16.749 -22.732  0.00  0.00    +0.049 C 
ATOM     31  C   UNL     1      34.781 -16.207 -21.480  0.00  0.00    +0.140 C 
ATOM     32  C   UNL     1      34.601 -16.126 -23.888  0.00  0.00    +0.002 C 
ATOM     33  C   UNL     1      34.019 -15.042 -21.385  0.00  0.00    +0.040 C 
ATOM     34  C   UNL     1      33.839 -14.962 -23.792  0.00  0.00    +0.010 C 
ATOM     35  C   UNL     1      33.547 -14.419 -22.541  0.00  0.00    +0.071 C 
BRANCH  35  37
ATOM     36  N   UNL     1      32.137 -12.255 -22.363  0.00  0.00    -0.191 NA
ATOM     37  C   UNL     1      32.769 -13.226 -22.442  0.00  0.00    +0.100 C 
ENDBRANCH  35  37
ENDBRANCH  28  30
ENDBRANCH  27  28
ENDBRANCH   9  27
TORSDOF 13
ENDMDL
MODEL 8
REMARK VINA RESULT:     -12.3      2.757      4.772
REMARK  Name = 25058128
REMARK  13 active torsions:
REMARK  status: ('A' for Active; 'I' for Inactive)
REMARK    1  A    between atoms: C_1  and  S_11
REMARK    2  A    between atoms: C_9  and  O_27
REMARK    3  A    between atoms: S_11  and  N_14
REMARK    4  A    between atoms: N_14  and  C_16
REMARK    5  A    between atoms: C_16  and  C_18
REMARK    6  A    between atoms: C_16  and  C_21
REMARK    7  A    between atoms: C_18  and  O_19
REMARK    8  A    between atoms: C_21  and  C_22
REMARK    9  A    between atoms: C_22  and  C_24
REMARK   10  A    between atoms: C_24  and  O_25
REMARK   11  A    between atoms: O_27  and  C_28
REMARK   12  A    between atoms: C_28  and  C_30
REMARK   13  A    between atoms: C_35  and  C_37
REMARK                            x       y       z     vdW  Elec       q    Type
REMARK                         _______ _______ _______ _____ _____    ______ ____
ROOT
ATOM      1  C   UNL     1      35.291 -23.136 -16.274  0.00  0.00    +0.122 C 
ATOM      2  C   UNL     1      34.694 -22.097 -18.391  0.00  0.00    +0.002 C 
ATOM      3  C   UNL     1      34.340 -22.833 -17.248  0.00  0.00    +0.020 C 
ATOM      4  C   UNL     1      36.032 -21.663 -18.547  0.00  0.00    +0.003 C 
ATOM      5  C   UNL     1      36.606 -22.709 -16.427  0.00  0.00    +0.020 C 
ATOM      6  C   UNL     1      36.976 -21.976 -17.556  0.00  0.00    +0.001 C 
ATOM      7  C   UNL     1      36.387 -20.926 -19.689  0.00  0.00    +0.037 C 
ATOM      8  C   UNL     1      33.750 -21.783 -19.383  0.00  0.00    +0.003 C 
ATOM      9  C   UNL     1      35.436 -20.623 -20.664  0.00  0.00    +0.139 C 
ATOM     10  C   UNL     1      34.120 -21.050 -20.511  0.00  0.00    +0.037 C 
ENDROOT
BRANCH   1  11
ATOM     11  S   UNL     1      34.824 -24.064 -14.843  0.00  0.00    +0.061 S 
ATOM     12  O   UNL     1      34.703 -25.455 -15.231  0.00  0.00    -0.153 OA
ATOM     13  O   UNL     1      35.730 -23.679 -13.777  0.00  0.00    -0.153 OA
BRANCH  11  14
ATOM     14  N   UNL     1      33.282 -23.435 -14.507  0.00  0.00    -0.170 NA
ATOM     15  H   UNL     1      33.231 -22.521 -14.958  0.00  0.00    +0.149 HD
BRANCH  14  16
ATOM     16  C   UNL     1      32.073 -24.182 -14.919  0.00  0.00    +0.174 C 
BRANCH  16  18
ATOM     17  O   UNL     1      31.219 -23.664 -12.702  0.00  0.00    -0.249 OA
ATOM     18  C   UNL     1      31.203 -24.373 -13.700  0.00  0.00    +0.330 C 
BRANCH  18  19
ATOM     19  O   UNL     1      30.360 -25.430 -13.833  0.00  0.00    -0.479 OA
ATOM     20  H   UNL     1      29.439 -25.288 -13.921  0.00  0.00    +0.295 HD
ENDBRANCH  18  19
ENDBRANCH  16  18
BRANCH  16  21
ATOM     21  C   UNL     1      31.381 -23.478 -16.093  0.00  0.00    +0.040 C 
BRANCH  21  22
ATOM     22  C   UNL     1      30.170 -22.608 -15.748  0.00  0.00    +0.111 C 
BRANCH  22  24
ATOM     23  O   UNL     1      28.201 -24.007 -15.696  0.00  0.00    -0.250 OA
ATOM     24  C   UNL     1      28.862 -23.148 -16.268  0.00  0.00    +0.314 C 
BRANCH  24  25
ATOM     25  O   UNL     1      28.496 -22.593 -17.450  0.00  0.00    -0.480 OA
ATOM     26  H   UNL     1      29.049 -21.956 -17.859  0.00  0.00    +0.295 HD
ENDBRANCH  24  25
ENDBRANCH  22  24
ENDBRANCH  21  22
ENDBRANCH  16  21
ENDBRANCH  14  16
ENDBRANCH  11  14
ENDBRANCH   1  11
BRANCH   9  27
ATOM     27  O   UNL     1      35.794 -19.908 -21.765  0.00  0.00    -0.471 OA
BRANCH  27  28
ATOM     28  C   UNL     1      36.057 -18.518 -21.579  0.00  0.00    +0.234 C 
BRANCH  28  30
ATOM     29  F   UNL     1      35.215 -15.823 -21.370  0.00  0.00    -0.204 F 
ATOM     30  C   UNL     1      35.474 -17.751 -22.730  0.00  0.00    +0.049 C 
ATOM     31  C   UNL     1      35.078 -16.425 -22.560  0.00  0.00    +0.140 C 
ATOM     32  C   UNL     1      35.329 -18.369 -23.972  0.00  0.00    +0.002 C 
ATOM     33  C   UNL     1      34.536 -15.716 -23.632  0.00  0.00    +0.040 C 
ATOM     34  C   UNL     1      34.786 -17.659 -25.044  0.00  0.00    +0.010 C 
ATOM     35  C   UNL     1      34.390 -16.333 -24.874  0.00  0.00    +0.071 C 
BRANCH  35  37
ATOM     36  N   UNL     1      33.387 -15.014 -26.864  0.00  0.00    -0.191 NA
ATOM     37  C   UNL     1      33.837 -15.606 -25.973  0.00  0.00    +0.100 C 
ENDBRANCH  35  37
ENDBRANCH  28  30
ENDBRANCH  27  28
ENDBRANCH   9  27
TORSDOF 13
ENDMDL
MODEL 9
REMARK VINA RESULT:     -12.2      2.236      3.337
REMARK  Name = 25058128
REMARK  13 active torsions:
REMARK  status: ('A' for Active; 'I' for Inactive)
REMARK    1  A    between atoms: C_1  and  S_11
REMARK    2  A    between atoms: C_9  and  O_27
REMARK    3  A    between atoms: S_11  and  N_14
REMARK    4  A    between atoms: N_14  and  C_16
REMARK    5  A    between atoms: C_16  and  C_18
REMARK    6  A    between atoms: C_16  and  C_21
REMARK    7  A    between atoms: C_18  and  O_19
REMARK    8  A    between atoms: C_21  and  C_22
REMARK    9  A    between atoms: C_22  and  C_24
REMARK   10  A    between atoms: C_24  and  O_25
REMARK   11  A    between atoms: O_27  and  C_28
REMARK   12  A    between atoms: C_28  and  C_30
REMARK   13  A    between atoms: C_35  and  C_37
REMARK                            x       y       z     vdW  Elec       q    Type
REMARK                         _______ _______ _______ _____ _____    ______ ____
ROOT
ATOM      1  C   UNL     1      34.966 -22.642 -17.522  0.00  0.00    +0.122 C 
ATOM      2  C   UNL     1      34.289 -21.386 -19.491  0.00  0.00    +0.002 C 
ATOM      3  C   UNL     1      33.968 -22.180 -18.378  0.00  0.00    +0.020 C 
ATOM      4  C   UNL     1      35.644 -21.056 -19.737  0.00  0.00    +0.003 C 
ATOM      5  C   UNL     1      36.298 -22.317 -17.763  0.00  0.00    +0.020 C 
ATOM      6  C   UNL     1      36.636 -21.529 -18.863  0.00  0.00    +0.001 C 
ATOM      7  C   UNL     1      35.966 -20.261 -20.849  0.00  0.00    +0.037 C 
ATOM      8  C   UNL     1      33.298 -20.912 -20.366  0.00  0.00    +0.003 C 
ATOM      9  C   UNL     1      34.967 -19.799 -21.707  0.00  0.00    +0.139 C 
ATOM     10  C   UNL     1      33.636 -20.124 -21.466  0.00  0.00    +0.037 C 
ENDROOT
BRANCH   1  11
ATOM     11  S   UNL     1      34.540 -23.641 -16.126  0.00  0.00    +0.061 S 
ATOM     12  O   UNL     1      34.316 -22.760 -14.997  0.00  0.00    -0.153 OA
ATOM     13  O   UNL     1      33.497 -24.551 -16.561  0.00  0.00    -0.153 OA
BRANCH  11  14
ATOM     14  N   UNL     1      35.971 -24.524 -15.879  0.00  0.00    -0.170 NA
ATOM     15  H   UNL     1      36.676 -23.860 -15.558  0.00  0.00    +0.149 HD
BRANCH  14  16
ATOM     16  C   UNL     1      35.986 -25.655 -14.925  0.00  0.00    +0.174 C 
BRANCH  16  18
ATOM     17  O   UNL     1      38.121 -26.806 -14.751  0.00  0.00    -0.249 OA
ATOM     18  C   UNL     1      37.072 -26.613 -15.352  0.00  0.00    +0.330 C 
BRANCH  18  19
ATOM     19  O   UNL     1      36.752 -27.274 -16.495  0.00  0.00    -0.479 OA
ATOM     20  H   UNL     1      36.408 -28.145 -16.452  0.00  0.00    +0.295 HD
ENDBRANCH  18  19
ENDBRANCH  16  18
BRANCH  16  21
ATOM     21  C   UNL     1      36.117 -25.142 -13.486  0.00  0.00    +0.040 C 
BRANCH  21  22
ATOM     22  C   UNL     1      37.083 -23.974 -13.264  0.00  0.00    +0.111 C 
BRANCH  22  24
ATOM     23  O   UNL     1      38.864 -23.378 -11.746  0.00  0.00    -0.250 OA
ATOM     24  C   UNL     1      38.132 -24.240 -12.214  0.00  0.00    +0.314 C 
BRANCH  24  25
ATOM     25  O   UNL     1      38.194 -25.546 -11.851  0.00  0.00    -0.480 OA
ATOM     26  H   UNL     1      38.141 -26.216 -12.504  0.00  0.00    +0.295 HD
ENDBRANCH  24  25
ENDBRANCH  22  24
ENDBRANCH  21  22
ENDBRANCH  16  21
ENDBRANCH  14  16
ENDBRANCH  11  14
ENDBRANCH   1  11
BRANCH   9  27
ATOM     27  O   UNL     1      35.295 -19.028 -22.780  0.00  0.00    -0.471 OA
BRANCH  27  28
ATOM     28  C   UNL     1      36.080 -17.864 -22.529  0.00  0.00    +0.234 C 
BRANCH  28  30
ATOM     29  F   UNL     1      34.994 -16.279 -24.607  0.00  0.00    -0.204 F 
ATOM     30  C   UNL     1      35.167 -16.702 -22.277  0.00  0.00    +0.049 C 
ATOM     31  C   UNL     1      34.666 -15.959 -23.347  0.00  0.00    +0.140 C 
ATOM     32  C   UNL     1      34.819 -16.363 -20.970  0.00  0.00    +0.002 C 
ATOM     33  C   UNL     1      33.817 -14.878 -23.109  0.00  0.00    +0.040 C 
ATOM     34  C   UNL     1      33.970 -15.281 -20.732  0.00  0.00    +0.010 C 
ATOM     35  C   UNL     1      33.469 -14.539 -21.801  0.00  0.00    +0.071 C 
BRANCH  35  37
ATOM     36  N   UNL     1      31.891 -12.534 -21.359  0.00  0.00    -0.191 NA
ATOM     37  C   UNL     1      32.598 -13.432 -21.558  0.00  0.00    +0.100 C 
ENDBRANCH  35  37
ENDBRANCH  28  30
ENDBRANCH  27  28
ENDBRANCH   9  27
TORSDOF 13
ENDMDL
