MODEL 1
REMARK VINA RESULT:     -12.8      0.000      0.000
REMARK  Name = 6918151
REMARK  4 active torsions:
REMARK  status: ('A' for Active; 'I' for Inactive)
REMARK    1  A    between atoms: C_2  and  C_11
REMARK    2  A    between atoms: C_7  and  C_18
REMARK    3  A    between atoms: C_11  and  C_12
REMARK    4  A    between atoms: C_18  and  C_23
REMARK                            x       y       z     vdW  Elec       q    Type
REMARK                         _______ _______ _______ _____ _____    ______ ____
ROOT
ATOM      1  O   UNL     1      34.258 -16.291 -22.832  0.00  0.00    -0.479 OA
ATOM      2  C   UNL     1      34.848 -16.350 -24.139  0.00  0.00    +0.171 C 
ATOM      3  C   UNL     1      33.861 -15.901 -25.215  0.00  0.00    +0.049 C 
ATOM      4  C   UNL     1      33.493 -14.441 -24.976  0.00  0.00    +0.033 C 
ATOM      5  C   UNL     1      33.190 -14.207 -23.525  0.00  0.00    +0.012 C 
ATOM      6  C   UNL     1      33.594 -15.125 -22.547  0.00  0.00    +0.134 C 
ATOM      7  C   UNL     1      32.228 -12.814 -21.785  0.00  0.00    -0.021 C 
ATOM      8  C   UNL     1      32.517 -13.042 -23.131  0.00  0.00    -0.006 C 
ATOM      9  C   UNL     1      33.294 -14.901 -21.201  0.00  0.00    +0.036 C 
ATOM     10  C   UNL     1      32.614 -13.744 -20.821  0.00  0.00    -0.001 C 
ENDROOT
BRANCH   2  11
ATOM     11  C   UNL     1      35.284 -17.791 -24.373  0.00  0.00    +0.070 C 
BRANCH  11  12
ATOM     12  C   UNL     1      35.583 -18.500 -23.079  0.00  0.00    -0.019 C 
ATOM     13  C   UNL     1      34.622 -19.331 -22.517  0.00  0.00    -0.004 C 
ATOM     14  C   UNL     1      36.813 -18.313 -22.464  0.00  0.00    -0.004 C 
ATOM     15  C   UNL     1      34.898 -19.987 -21.318  0.00  0.00    -0.000 C 
ATOM     16  C   UNL     1      37.089 -18.971 -21.265  0.00  0.00    -0.000 C 
ATOM     17  C   UNL     1      36.131 -19.807 -20.692  0.00  0.00    -0.000 C 
ENDBRANCH  11  12
ENDBRANCH   2  11
BRANCH   7  18
ATOM     18  C   UNL     1      31.506 -11.575 -21.378  0.00  0.00    +0.047 C 
BRANCH  18  23
ATOM     19  S   UNL     1      32.334  -9.726 -19.503  0.00  0.00    -0.048 S 
ATOM     20  O   UNL     1      32.016  -9.346 -23.330  0.00  0.00    -0.274 OA
ATOM     21  O   UNL     1      31.743  -7.175 -19.263  0.00  0.00    -0.263 OA
ATOM     22  N   UNL     1      31.846  -8.085 -21.399  0.00  0.00    -0.246 N 
ATOM     23  C   UNL     1      32.449 -10.388 -21.192  0.00  0.00    +0.137 C 
ATOM     24  C   UNL     1      32.084  -9.243 -22.110  0.00  0.00    +0.239 C 
ATOM     25  C   UNL     1      31.926  -8.108 -20.031  0.00  0.00    +0.279 C 
ATOM     26  H   UNL     1      31.621  -7.250 -21.870  0.00  0.00    +0.158 HD
ENDBRANCH  18  23
ENDBRANCH   7  18
TORSDOF 4
ENDMDL
MODEL 2
REMARK VINA RESULT:     -12.7      6.616     10.319
REMARK  Name = 6918151
REMARK  4 active torsions:
REMARK  status: ('A' for Active; 'I' for Inactive)
REMARK    1  A    between atoms: C_2  and  C_11
REMARK    2  A    between atoms: C_7  and  C_18
REMARK    3  A    between atoms: C_11  and  C_12
REMARK    4  A    between atoms: C_18  and  C_23
REMARK                            x       y       z     vdW  Elec       q    Type
REMARK                         _______ _______ _______ _____ _____    ______ ____
ROOT
ATOM      1  O   UNL     1      36.043 -20.113 -20.537  0.00  0.00    -0.479 OA
ATOM      2  C   UNL     1      35.278 -19.123 -21.241  0.00  0.00    +0.171 C 
ATOM      3  C   UNL     1      34.074 -19.747 -21.945  0.00  0.00    +0.049 C 
ATOM      4  C   UNL     1      33.141 -20.347 -20.900  0.00  0.00    +0.033 C 
ATOM      5  C   UNL     1      33.921 -21.137 -19.890  0.00  0.00    +0.012 C 
ATOM      6  C   UNL     1      35.306 -20.970 -19.759  0.00  0.00    +0.134 C 
ATOM      7  C   UNL     1      33.975 -22.779 -18.103  0.00  0.00    -0.021 C 
ATOM      8  C   UNL     1      33.260 -22.038 -19.045  0.00  0.00    -0.006 C 
ATOM      9  C   UNL     1      36.022 -21.721 -18.824  0.00  0.00    +0.036 C 
ATOM     10  C   UNL     1      35.355 -22.623 -17.995  0.00  0.00    -0.001 C 
ENDROOT
BRANCH   2  11
ATOM     11  C   UNL     1      36.212 -18.464 -22.249  0.00  0.00    +0.070 C 
BRANCH  11  12
ATOM     12  C   UNL     1      35.481 -17.484 -23.127  0.00  0.00    -0.019 C 
ATOM     13  C   UNL     1      35.115 -16.247 -22.613  0.00  0.00    -0.004 C 
ATOM     14  C   UNL     1      35.184 -17.830 -24.438  0.00  0.00    -0.004 C 
ATOM     15  C   UNL     1      34.438 -15.339 -23.427  0.00  0.00    -0.000 C 
ATOM     16  C   UNL     1      34.507 -16.921 -25.251  0.00  0.00    -0.000 C 
ATOM     17  C   UNL     1      34.134 -15.676 -24.746  0.00  0.00    -0.000 C 
ENDBRANCH  11  12
ENDBRANCH   2  11
BRANCH   7  18
ATOM     18  C   UNL     1      33.261 -23.739 -17.213  0.00  0.00    +0.047 C 
BRANCH  18  23
ATOM     19  S   UNL     1      33.005 -23.862 -14.467  0.00  0.00    -0.048 S 
ATOM     20  O   UNL     1      30.445 -22.691 -17.107  0.00  0.00    -0.274 OA
ATOM     21  O   UNL     1      31.001 -24.706 -12.989  0.00  0.00    -0.263 OA
ATOM     22  N   UNL     1      30.518 -23.704 -15.029  0.00  0.00    -0.246 N 
ATOM     23  C   UNL     1      32.583 -23.043 -16.035  0.00  0.00    +0.137 C 
ATOM     24  C   UNL     1      31.076 -23.113 -16.144  0.00  0.00    +0.239 C 
ATOM     25  C   UNL     1      31.337 -24.163 -14.030  0.00  0.00    +0.279 C 
ATOM     26  H   UNL     1      29.541 -23.795 -14.952  0.00  0.00    +0.158 HD
ENDBRANCH  18  23
ENDBRANCH   7  18
TORSDOF 4
ENDMDL
MODEL 3
REMARK VINA RESULT:     -12.5      1.224      2.153
REMARK  Name = 6918151
REMARK  4 active torsions:
REMARK  status: ('A' for Active; 'I' for Inactive)
REMARK    1  A    between atoms: C_2  and  C_11
REMARK    2  A    between atoms: C_7  and  C_18
REMARK    3  A    between atoms: C_11  and  C_12
REMARK    4  A    between atoms: C_18  and  C_23
REMARK                            x       y       z     vdW  Elec       q    Type
REMARK                         _______ _______ _______ _____ _____    ______ ____
ROOT
ATOM      1  O   UNL     1      34.751 -15.298 -23.211  0.00  0.00    -0.479 OA
ATOM      2  C   UNL     1      34.595 -16.465 -22.390  0.00  0.00    +0.171 C 
ATOM      3  C   UNL     1      34.627 -16.107 -20.905  0.00  0.00    +0.049 C 
ATOM      4  C   UNL     1      33.447 -15.197 -20.586  0.00  0.00    +0.033 C 
ATOM      5  C   UNL     1      33.320 -14.119 -21.622  0.00  0.00    +0.012 C 
ATOM      6  C   UNL     1      33.959 -14.234 -22.863  0.00  0.00    +0.134 C 
ATOM      7  C   UNL     1      32.405 -11.981 -22.318  0.00  0.00    -0.021 C 
ATOM      8  C   UNL     1      32.530 -12.990 -21.363  0.00  0.00    -0.006 C 
ATOM      9  C   UNL     1      33.843 -13.216 -23.813  0.00  0.00    +0.036 C 
ATOM     10  C   UNL     1      33.064 -12.092 -23.541  0.00  0.00    -0.001 C 
ENDROOT
BRANCH   2  11
ATOM     11  C   UNL     1      35.731 -17.419 -22.741  0.00  0.00    +0.070 C 
BRANCH  11  12
ATOM     12  C   UNL     1      35.745 -18.624 -21.839  0.00  0.00    -0.019 C 
ATOM     13  C   UNL     1      36.920 -18.977 -21.189  0.00  0.00    -0.004 C 
ATOM     14  C   UNL     1      34.584 -19.365 -21.669  0.00  0.00    -0.004 C 
ATOM     15  C   UNL     1      36.934 -20.093 -20.353  0.00  0.00    -0.000 C 
ATOM     16  C   UNL     1      34.598 -20.481 -20.832  0.00  0.00    -0.000 C 
ATOM     17  C   UNL     1      35.772 -20.845 -20.174  0.00  0.00    -0.000 C 
ENDBRANCH  11  12
ENDBRANCH   2  11
BRANCH   7  18
ATOM     18  C   UNL     1      31.568 -10.781 -22.029  0.00  0.00    +0.047 C 
BRANCH  18  23
ATOM     19  S   UNL     1      32.454  -8.871 -20.245  0.00  0.00    -0.048 S 
ATOM     20  O   UNL     1      31.553  -8.492 -23.978  0.00  0.00    -0.274 OA
ATOM     21  O   UNL     1      31.635  -6.403 -19.861  0.00  0.00    -0.263 OA
ATOM     22  N   UNL     1      31.528  -7.275 -22.012  0.00  0.00    -0.246 N 
ATOM     23  C   UNL     1      32.396  -9.501 -21.950  0.00  0.00    +0.137 C 
ATOM     24  C   UNL     1      31.784  -8.394 -22.778  0.00  0.00    +0.239 C 
ATOM     25  C   UNL     1      31.804  -7.302 -20.669  0.00  0.00    +0.279 C 
ATOM     26  H   UNL     1      31.150  -6.466 -22.425  0.00  0.00    +0.158 HD
ENDBRANCH  18  23
ENDBRANCH   7  18
TORSDOF 4
ENDMDL
MODEL 4
REMARK VINA RESULT:     -12.3      5.200      8.583
REMARK  Name = 6918151
REMARK  4 active torsions:
REMARK  status: ('A' for Active; 'I' for Inactive)
REMARK    1  A    between atoms: C_2  and  C_11
REMARK    2  A    between atoms: C_7  and  C_18
REMARK    3  A    between atoms: C_11  and  C_12
REMARK    4  A    between atoms: C_18  and  C_23
REMARK                            x       y       z     vdW  Elec       q    Type
REMARK                         _______ _______ _______ _____ _____    ______ ____
ROOT
ATOM      1  O   UNL     1      35.128 -22.406 -18.512  0.00  0.00    -0.479 OA
ATOM      2  C   UNL     1      33.820 -22.996 -18.464  0.00  0.00    +0.171 C 
ATOM      3  C   UNL     1      32.727 -21.929 -18.498  0.00  0.00    +0.049 C 
ATOM      4  C   UNL     1      32.809 -21.175 -19.820  0.00  0.00    +0.033 C 
ATOM      5  C   UNL     1      34.232 -20.813 -20.132  0.00  0.00    +0.012 C 
ATOM      6  C   UNL     1      35.296 -21.448 -19.479  0.00  0.00    +0.134 C 
ATOM      7  C   UNL     1      35.828 -19.500 -21.405  0.00  0.00    -0.021 C 
ATOM      8  C   UNL     1      34.509 -19.846 -21.107  0.00  0.00    -0.006 C 
ATOM      9  C   UNL     1      36.615 -21.092 -19.769  0.00  0.00    +0.036 C 
ATOM     10  C   UNL     1      36.880 -20.120 -20.734  0.00  0.00    -0.001 C 
ENDROOT
BRANCH   2  11
ATOM     11  C   UNL     1      33.740 -23.811 -17.178  0.00  0.00    +0.070 C 
BRANCH  11  12
ATOM     12  C   UNL     1      32.512 -23.469 -16.378  0.00  0.00    -0.019 C 
ATOM     13  C   UNL     1      32.651 -22.998 -15.079  0.00  0.00    -0.004 C 
ATOM     14  C   UNL     1      31.257 -23.629 -16.949  0.00  0.00    -0.004 C 
ATOM     15  C   UNL     1      31.513 -22.681 -14.337  0.00  0.00    -0.000 C 
ATOM     16  C   UNL     1      30.119 -23.311 -16.207  0.00  0.00    -0.000 C 
ATOM     17  C   UNL     1      30.247 -22.838 -14.901  0.00  0.00    -0.000 C 
ENDBRANCH  11  12
ENDBRANCH   2  11
BRANCH   7  18
ATOM     18  C   UNL     1      36.111 -18.465 -22.440  0.00  0.00    +0.047 C 
BRANCH  18  23
ATOM     19  S   UNL     1      34.656 -18.063 -24.751  0.00  0.00    -0.048 S 
ATOM     20  O   UNL     1      35.034 -15.764 -21.674  0.00  0.00    -0.274 OA
ATOM     21  O   UNL     1      34.413 -15.915 -26.248  0.00  0.00    -0.263 OA
ATOM     22  N   UNL     1      34.706 -15.634 -23.960  0.00  0.00    -0.246 N 
ATOM     23  C   UNL     1      34.838 -17.801 -22.961  0.00  0.00    +0.137 C 
ATOM     24  C   UNL     1      34.876 -16.303 -22.765  0.00  0.00    +0.239 C 
ATOM     25  C   UNL     1      34.568 -16.354 -25.118  0.00  0.00    +0.279 C 
ATOM     26  H   UNL     1      34.684 -14.650 -23.980  0.00  0.00    +0.158 HD
ENDBRANCH  18  23
ENDBRANCH   7  18
TORSDOF 4
ENDMDL
MODEL 5
REMARK VINA RESULT:     -12.2      1.700      2.858
REMARK  Name = 6918151
REMARK  4 active torsions:
REMARK  status: ('A' for Active; 'I' for Inactive)
REMARK    1  A    between atoms: C_2  and  C_11
REMARK    2  A    between atoms: C_7  and  C_18
REMARK    3  A    between atoms: C_11  and  C_12
REMARK    4  A    between atoms: C_18  and  C_23
REMARK                            x       y       z     vdW  Elec       q    Type
REMARK                         _______ _______ _______ _____ _____    ______ ____
ROOT
ATOM      1  O   UNL     1      35.452 -17.361 -20.951  0.00  0.00    -0.479 OA
ATOM      2  C   UNL     1      36.370 -17.965 -21.875  0.00  0.00    +0.171 C 
ATOM      3  C   UNL     1      35.689 -18.289 -23.203  0.00  0.00    +0.049 C 
ATOM      4  C   UNL     1      35.219 -16.992 -23.852  0.00  0.00    +0.033 C 
ATOM      5  C   UNL     1      34.533 -16.118 -22.842  0.00  0.00    +0.012 C 
ATOM      6  C   UNL     1      34.696 -16.340 -21.469  0.00  0.00    +0.134 C 
ATOM      7  C   UNL     1      33.096 -14.227 -22.342  0.00  0.00    -0.021 C 
ATOM      8  C   UNL     1      33.739 -15.046 -23.271  0.00  0.00    -0.006 C 
ATOM      9  C   UNL     1      34.041 -15.528 -20.540  0.00  0.00    +0.036 C 
ATOM     10  C   UNL     1      33.244 -14.470 -20.978  0.00  0.00    -0.001 C 
ENDROOT
BRANCH   2  11
ATOM     11  C   UNL     1      36.903 -19.233 -21.217  0.00  0.00    +0.070 C 
BRANCH  11  12
ATOM     12  C   UNL     1      35.791 -20.086 -20.669  0.00  0.00    -0.019 C 
ATOM     13  C   UNL     1      36.093 -21.131 -19.806  0.00  0.00    -0.004 C 
ATOM     14  C   UNL     1      34.479 -19.816 -21.033  0.00  0.00    -0.004 C 
ATOM     15  C   UNL     1      35.062 -21.922 -19.298  0.00  0.00    -0.000 C 
ATOM     16  C   UNL     1      33.448 -20.607 -20.524  0.00  0.00    -0.000 C 
ATOM     17  C   UNL     1      33.740 -21.660 -19.657  0.00  0.00    -0.000 C 
ENDBRANCH  11  12
ENDBRANCH   2  11
BRANCH   7  18
ATOM     18  C   UNL     1      32.248 -13.093 -22.809  0.00  0.00    +0.047 C 
BRANCH  18  23
ATOM     19  S   UNL     1      31.414 -10.707 -21.701  0.00  0.00    -0.048 S 
ATOM     20  O   UNL     1      34.326 -11.377 -24.143  0.00  0.00    -0.274 OA
ATOM     21  O   UNL     1      31.115  -8.339 -22.804  0.00  0.00    -0.263 OA
ATOM     22  N   UNL     1      32.800  -9.724 -23.608  0.00  0.00    -0.246 N 
ATOM     23  C   UNL     1      32.771 -11.741 -22.328  0.00  0.00    +0.137 C 
ATOM     24  C   UNL     1      33.399 -10.957 -23.458  0.00  0.00    +0.239 C 
ATOM     25  C   UNL     1      31.749  -9.384 -22.796  0.00  0.00    +0.279 C 
ATOM     26  H   UNL     1      33.123  -9.094 -24.293  0.00  0.00    +0.158 HD
ENDBRANCH  18  23
ENDBRANCH   7  18
TORSDOF 4
ENDMDL
MODEL 6
REMARK VINA RESULT:     -12.2      3.738      9.079
REMARK  Name = 6918151
REMARK  4 active torsions:
REMARK  status: ('A' for Active; 'I' for Inactive)
REMARK    1  A    between atoms: C_2  and  C_11
REMARK    2  A    between atoms: C_7  and  C_18
REMARK    3  A    between atoms: C_11  and  C_12
REMARK    4  A    between atoms: C_18  and  C_23
REMARK                            x       y       z     vdW  Elec       q    Type
REMARK                         _______ _______ _______ _____ _____    ______ ____
ROOT
ATOM      1  O   UNL     1      32.815 -10.993 -23.348  0.00  0.00    -0.479 OA
ATOM      2  C   UNL     1      32.182 -10.106 -22.414  0.00  0.00    +0.171 C 
ATOM      3  C   UNL     1      31.027 -10.794 -21.689  0.00  0.00    +0.049 C 
ATOM      4  C   UNL     1      31.574 -11.958 -20.871  0.00  0.00    +0.033 C 
ATOM      5  C   UNL     1      32.543 -12.764 -21.687  0.00  0.00    +0.012 C 
ATOM      6  C   UNL     1      33.111 -12.239 -22.856  0.00  0.00    +0.134 C 
ATOM      7  C   UNL     1      33.811 -14.807 -22.017  0.00  0.00    -0.021 C 
ATOM      8  C   UNL     1      32.911 -14.049 -21.267  0.00  0.00    -0.006 C 
ATOM      9  C   UNL     1      34.001 -13.005 -23.613  0.00  0.00    +0.036 C 
ATOM     10  C   UNL     1      34.352 -14.287 -23.191  0.00  0.00    -0.001 C 
ENDROOT
BRANCH   2  11
ATOM     11  C   UNL     1      31.685  -8.901 -23.202  0.00  0.00    +0.070 C 
BRANCH  11  12
ATOM     12  C   UNL     1      32.820  -8.015 -23.641  0.00  0.00    -0.019 C 
ATOM     13  C   UNL     1      32.544  -6.838 -24.324  0.00  0.00    -0.004 C 
ATOM     14  C   UNL     1      34.127  -8.387 -23.357  0.00  0.00    -0.004 C 
ATOM     15  C   UNL     1      33.596  -6.017 -24.731  0.00  0.00    -0.000 C 
ATOM     16  C   UNL     1      35.178  -7.565 -23.764  0.00  0.00    -0.000 C 
ATOM     17  C   UNL     1      34.913  -6.381 -24.450  0.00  0.00    -0.000 C 
ENDBRANCH  11  12
ENDBRANCH   2  11
BRANCH   7  18
ATOM     18  C   UNL     1      34.191 -16.176 -21.564  0.00  0.00    +0.047 C 
BRANCH  18  23
ATOM     19  S   UNL     1      34.633 -17.288 -24.051  0.00  0.00    -0.048 S 
ATOM     20  O   UNL     1      36.333 -18.092 -20.681  0.00  0.00    -0.274 OA
ATOM     21  O   UNL     1      34.968 -19.800 -24.748  0.00  0.00    -0.263 OA
ATOM     22  N   UNL     1      35.736 -19.126 -22.662  0.00  0.00    -0.246 N 
ATOM     23  C   UNL     1      35.289 -16.790 -22.430  0.00  0.00    +0.137 C 
ATOM     24  C   UNL     1      35.846 -18.049 -21.805  0.00  0.00    +0.239 C 
ATOM     25  C   UNL     1      35.141 -18.954 -23.885  0.00  0.00    +0.279 C 
ATOM     26  H   UNL     1      36.081 -20.009 -22.396  0.00  0.00    +0.158 HD
ENDBRANCH  18  23
ENDBRANCH   7  18
TORSDOF 4
ENDMDL
MODEL 7
REMARK VINA RESULT:     -12.2      6.348     10.103
REMARK  Name = 6918151
REMARK  4 active torsions:
REMARK  status: ('A' for Active; 'I' for Inactive)
REMARK    1  A    between atoms: C_2  and  C_11
REMARK    2  A    between atoms: C_7  and  C_18
REMARK    3  A    between atoms: C_11  and  C_12
REMARK    4  A    between atoms: C_18  and  C_23
REMARK                            x       y       z     vdW  Elec       q    Type
REMARK                         _______ _______ _______ _____ _____    ______ ____
ROOT
ATOM      1  O   UNL     1      34.814 -23.123 -17.122  0.00  0.00    -0.479 OA
ATOM      2  C   UNL     1      35.578 -23.037 -15.910  0.00  0.00    +0.171 C 
ATOM      3  C   UNL     1      37.078 -23.084 -16.194  0.00  0.00    +0.049 C 
ATOM      4  C   UNL     1      37.465 -21.871 -17.031  0.00  0.00    +0.033 C 
ATOM      5  C   UNL     1      36.488 -21.673 -18.153  0.00  0.00    +0.012 C 
ATOM      6  C   UNL     1      35.231 -22.292 -18.131  0.00  0.00    +0.134 C 
ATOM      7  C   UNL     1      35.919 -20.649 -20.279  0.00  0.00    -0.021 C 
ATOM      8  C   UNL     1      36.819 -20.839 -19.230  0.00  0.00    -0.006 C 
ATOM      9  C   UNL     1      34.336 -22.110 -19.188  0.00  0.00    +0.036 C 
ATOM     10  C   UNL     1      34.680 -21.286 -20.260  0.00  0.00    -0.001 C 
ENDROOT
BRANCH   2  11
ATOM     11  C   UNL     1      35.158 -24.207 -15.028  0.00  0.00    +0.070 C 
BRANCH  11  12
ATOM     12  C   UNL     1      36.181 -24.497 -13.963  0.00  0.00    -0.019 C 
ATOM     13  C   UNL     1      36.857 -25.711 -13.977  0.00  0.00    -0.004 C 
ATOM     14  C   UNL     1      36.435 -23.549 -12.982  0.00  0.00    -0.004 C 
ATOM     15  C   UNL     1      37.805 -25.980 -12.991  0.00  0.00    -0.000 C 
ATOM     16  C   UNL     1      37.384 -23.819 -11.996  0.00  0.00    -0.000 C 
ATOM     17  C   UNL     1      38.068 -25.034 -12.000  0.00  0.00    -0.000 C 
ENDBRANCH  11  12
ENDBRANCH   2  11
BRANCH   7  18
ATOM     18  C   UNL     1      36.284 -19.764 -21.423  0.00  0.00    +0.047 C 
BRANCH  18  23
ATOM     19  S   UNL     1      34.942 -19.410 -23.809  0.00  0.00    -0.048 S 
ATOM     20  O   UNL     1      35.319 -16.978 -20.836  0.00  0.00    -0.274 OA
ATOM     21  O   UNL     1      34.868 -17.333 -25.418  0.00  0.00    -0.263 OA
ATOM     22  N   UNL     1      35.087 -16.950 -23.137  0.00  0.00    -0.246 N 
ATOM     23  C   UNL     1      35.068 -19.066 -22.027  0.00  0.00    +0.137 C 
ATOM     24  C   UNL     1      35.175 -17.563 -21.904  0.00  0.00    +0.239 C 
ATOM     25  C   UNL     1      34.957 -17.720 -24.263  0.00  0.00    +0.279 C 
ATOM     26  H   UNL     1      35.117 -15.968 -23.206  0.00  0.00    +0.158 HD
ENDBRANCH  18  23
ENDBRANCH   7  18
TORSDOF 4
ENDMDL
MODEL 8
REMARK VINA RESULT:     -12.0      1.589      2.898
REMARK  Name = 6918151
REMARK  4 active torsions:
REMARK  status: ('A' for Active; 'I' for Inactive)
REMARK    1  A    between atoms: C_2  and  C_11
REMARK    2  A    between atoms: C_7  and  C_18
REMARK    3  A    between atoms: C_11  and  C_12
REMARK    4  A    between atoms: C_18  and  C_23
REMARK                            x       y       z     vdW  Elec       q    Type
REMARK                         _______ _______ _______ _____ _____    ______ ____
ROOT
ATOM      1  O   UNL     1      34.534 -14.153 -22.721  0.00  0.00    -0.479 OA
ATOM      2  C   UNL     1      34.006 -15.292 -22.026  0.00  0.00    +0.171 C 
ATOM      3  C   UNL     1      33.503 -14.911 -20.634  0.00  0.00    +0.049 C 
ATOM      4  C   UNL     1      32.350 -13.924 -20.775  0.00  0.00    +0.033 C 
ATOM      5  C   UNL     1      32.690 -12.858 -21.776  0.00  0.00    +0.012 C 
ATOM      6  C   UNL     1      33.739 -13.035 -22.688  0.00  0.00    +0.134 C 
ATOM      7  C   UNL     1      32.243 -10.680 -22.750  0.00  0.00    -0.021 C 
ATOM      8  C   UNL     1      31.935 -11.678 -21.824  0.00  0.00    -0.006 C 
ATOM      9  C   UNL     1      34.053 -12.029 -23.605  0.00  0.00    +0.036 C 
ATOM     10  C   UNL     1      33.303 -10.854 -23.638  0.00  0.00    -0.001 C 
ENDROOT
BRANCH   2  11
ATOM     11  C   UNL     1      35.127 -16.322 -21.932  0.00  0.00    +0.070 C 
BRANCH  11  12
ATOM     12  C   UNL     1      34.989 -17.392 -22.981  0.00  0.00    -0.019 C 
ATOM     13  C   UNL     1      35.231 -18.717 -22.642  0.00  0.00    -0.004 C 
ATOM     14  C   UNL     1      34.622 -17.041 -24.273  0.00  0.00    -0.004 C 
ATOM     15  C   UNL     1      35.103 -19.709 -23.613  0.00  0.00    -0.000 C 
ATOM     16  C   UNL     1      34.494 -18.034 -25.244  0.00  0.00    -0.000 C 
ATOM     17  C   UNL     1      34.735 -19.367 -24.915  0.00  0.00    -0.000 C 
ENDBRANCH  11  12
ENDBRANCH   2  11
BRANCH   7  18
ATOM     18  C   UNL     1      31.437  -9.426 -22.788  0.00  0.00    +0.047 C 
BRANCH  18  23
ATOM     19  S   UNL     1      32.814  -8.266 -20.696  0.00  0.00    -0.048 S 
ATOM     20  O   UNL     1      30.882  -6.579 -23.581  0.00  0.00    -0.274 OA
ATOM     21  O   UNL     1      32.160  -6.238 -19.156  0.00  0.00    -0.263 OA
ATOM     22  N   UNL     1      31.433  -6.223 -21.363  0.00  0.00    -0.246 N 
ATOM     23  C   UNL     1      32.264  -8.194 -22.428  0.00  0.00    +0.137 C 
ATOM     24  C   UNL     1      31.449  -6.926 -22.549  0.00  0.00    +0.239 C 
ATOM     25  C   UNL     1      32.083  -6.734 -20.269  0.00  0.00    +0.279 C 
ATOM     26  H   UNL     1      30.959  -5.362 -21.302  0.00  0.00    +0.158 HD
ENDBRANCH  18  23
ENDBRANCH   7  18
TORSDOF 4
ENDMDL
MODEL 9
REMARK VINA RESULT:     -11.9      6.044      9.839
REMARK  Name = 6918151
REMARK  4 active torsions:
REMARK  status: ('A' for Active; 'I' for Inactive)
REMARK    1  A    between atoms: C_2  and  C_11
REMARK    2  A    between atoms: C_7  and  C_18
REMARK    3  A    between atoms: C_11  and  C_12
REMARK    4  A    between atoms: C_18  and  C_23
REMARK                            x       y       z     vdW  Elec       q    Type
REMARK                         _______ _______ _______ _____ _____    ______ ____
ROOT
ATOM      1  O   UNL     1      34.482 -23.118 -17.370  0.00  0.00    -0.479 OA
ATOM      2  C   UNL     1      35.198 -23.055 -16.127  0.00  0.00    +0.171 C 
ATOM      3  C   UNL     1      36.707 -23.118 -16.352  0.00  0.00    +0.049 C 
ATOM      4  C   UNL     1      37.142 -21.901 -17.159  0.00  0.00    +0.033 C 
ATOM      5  C   UNL     1      36.213 -21.678 -18.317  0.00  0.00    +0.012 C 
ATOM      6  C   UNL     1      34.948 -22.280 -18.351  0.00  0.00    +0.134 C 
ATOM      7  C   UNL     1      35.742 -20.623 -20.451  0.00  0.00    -0.021 C 
ATOM      8  C   UNL     1      36.597 -20.836 -19.369  0.00  0.00    -0.006 C 
ATOM      9  C   UNL     1      34.099 -22.075 -19.441  0.00  0.00    +0.036 C 
ATOM     10  C   UNL     1      34.495 -21.244 -20.488  0.00  0.00    -0.001 C 
ENDROOT
BRANCH   2  11
ATOM     11  C   UNL     1      34.728 -24.229 -15.276  0.00  0.00    +0.070 C 
BRANCH  11  12
ATOM     12  C   UNL     1      33.297 -24.065 -14.841  0.00  0.00    -0.019 C 
ATOM     13  C   UNL     1      32.604 -22.913 -15.193  0.00  0.00    -0.004 C 
ATOM     14  C   UNL     1      32.689 -25.065 -14.095  0.00  0.00    -0.004 C 
ATOM     15  C   UNL     1      31.277 -22.760 -14.790  0.00  0.00    -0.000 C 
ATOM     16  C   UNL     1      31.362 -24.912 -13.693  0.00  0.00    -0.000 C 
ATOM     17  C   UNL     1      30.656 -23.760 -14.040  0.00  0.00    -0.000 C 
ENDBRANCH  11  12
ENDBRANCH   2  11
BRANCH   7  18
ATOM     18  C   UNL     1      36.163 -19.730 -21.569  0.00  0.00    +0.047 C 
BRANCH  18  23
ATOM     19  S   UNL     1      34.910 -19.406 -24.007  0.00  0.00    -0.048 S 
ATOM     20  O   UNL     1      35.215 -16.921 -21.070  0.00  0.00    -0.274 OA
ATOM     21  O   UNL     1      34.921 -17.360 -25.658  0.00  0.00    -0.263 OA
ATOM     22  N   UNL     1      35.064 -16.935 -23.378  0.00  0.00    -0.246 N 
ATOM     23  C   UNL     1      34.979 -19.029 -22.229  0.00  0.00    +0.137 C 
ATOM     24  C   UNL     1      35.101 -17.525 -22.131  0.00  0.00    +0.239 C 
ATOM     25  C   UNL     1      34.963 -17.726 -24.493  0.00  0.00    +0.279 C 
ATOM     26  H   UNL     1      35.109 -15.956 -23.465  0.00  0.00    +0.158 HD
ENDBRANCH  18  23
ENDBRANCH   7  18
TORSDOF 4
ENDMDL
