MODEL 1
REMARK VINA RESULT:     -13.0      0.000      0.000
REMARK  Name = 9810927
REMARK  6 active torsions:
REMARK  status: ('A' for Active; 'I' for Inactive)
REMARK    1  A    between atoms: N_1  and  C_13
REMARK    2  A    between atoms: C_11  and  O_24
REMARK    3  A    between atoms: C_12  and  O_26
REMARK    4  A    between atoms: C_14  and  C_18
REMARK    5  A    between atoms: C_19  and  C_20
REMARK    6  A    between atoms: N_28  and  C_32
REMARK                            x       y       z     vdW  Elec       q    Type
REMARK                         _______ _______ _______ _____ _____    ______ ____
ROOT
ATOM      1  N   UNL     1      34.754 -16.718 -24.562  0.00  0.00    -0.247 N 
ATOM      2  N   UNL     1      34.556 -18.924 -24.295  0.00  0.00    -0.242 NA
ATOM      3  N   UNL     1      35.047 -16.045 -22.246  0.00  0.00    -0.228 NA
ATOM      4  N   UNL     1      34.999 -17.972 -20.749  0.00  0.00    -0.228 NA
ATOM      5  C   UNL     1      34.860 -16.950 -23.219  0.00  0.00    +0.152 C 
ATOM      6  C   UNL     1      34.571 -17.935 -25.165  0.00  0.00    +0.223 C 
ATOM      7  C   UNL     1      34.737 -18.322 -23.076  0.00  0.00    +0.140 C 
ATOM      8  C   UNL     1      34.812 -18.829 -21.782  0.00  0.00    +0.150 C 
ATOM      9  C   UNL     1      35.103 -16.652 -21.041  0.00  0.00    +0.253 C 
ATOM     10  N   UNL     1      34.697 -20.209 -21.543  0.00  0.00    -0.295 N 
ATOM     11  H   UNL     1      34.565 -20.741 -22.361  0.00  0.00    +0.154 HD
ENDROOT
BRANCH  10  14
ATOM     12 CL   UNL     1      34.843 -23.464 -16.600  0.00  0.00    -0.082 Cl
ATOM     13  F   UNL     1      37.091 -20.731 -20.222  0.00  0.00    -0.203 F 
ATOM     14  C   UNL     1      34.734 -20.984 -20.364  0.00  0.00    +0.077 C 
ATOM     15  C   UNL     1      35.949 -21.228 -19.725  0.00  0.00    +0.154 C 
ATOM     16  C   UNL     1      33.552 -21.507 -19.841  0.00  0.00    +0.018 C 
ATOM     17  C   UNL     1      35.983 -21.995 -18.561  0.00  0.00    +0.042 C 
ATOM     18  C   UNL     1      33.586 -22.275 -18.677  0.00  0.00    +0.013 C 
ATOM     19  C   UNL     1      34.800 -22.518 -18.036  0.00  0.00    +0.060 C 
ENDBRANCH  10  14
BRANCH   1  23
ATOM     20  O   UNL     1      34.681 -14.357 -24.275  0.00  0.00    -0.326 OA
ATOM     21  C   UNL     1      33.730 -15.219 -26.287  0.00  0.00    +0.187 C 
ATOM     22  C   UNL     1      32.701 -14.395 -25.536  0.00  0.00    +0.178 C 
ATOM     23  C   UNL     1      34.818 -15.420 -25.239  0.00  0.00    +0.225 C 
ATOM     24  C   UNL     1      33.575 -13.509 -24.658  0.00  0.00    +0.223 C 
BRANCH  24  28
ATOM     25  O   UNL     1      32.731 -11.625 -23.351  0.00  0.00    -0.421 OA
ATOM     26  N   UNL     1      32.612 -13.594 -22.298  0.00  0.00    -0.109 NA
ATOM     27  N   UNL     1      32.107 -12.625 -21.450  0.00  0.00    -0.112 NA
ATOM     28  C   UNL     1      32.960 -12.962 -23.387  0.00  0.00    +0.255 A 
ATOM     29  C   UNL     1      32.197 -11.493 -22.106  0.00  0.00    +0.225 A 
BRANCH  29  30
ATOM     30  C   UNL     1      31.806 -10.139 -21.693  0.00  0.00    +0.070 C 
ATOM     31  C   UNL     1      31.303 -10.084 -20.204  0.00  0.00    +0.009 C 
ATOM     32  C   UNL     1      30.647  -9.548 -22.577  0.00  0.00    +0.009 C 
ATOM     33  C   UNL     1      32.940  -9.043 -21.759  0.00  0.00    +0.009 C 
ENDBRANCH  29  30
ENDBRANCH  24  28
BRANCH  21  34
ATOM     34  O   UNL     1      34.290 -14.464 -27.361  0.00  0.00    -0.378 OA
ATOM     35  H   UNL     1      34.684 -13.649 -27.011  0.00  0.00    +0.211 HD
ENDBRANCH  21  34
BRANCH  22  36
ATOM     36  O   UNL     1      31.876 -13.640 -26.400  0.00  0.00    -0.379 OA
ATOM     37  H   UNL     1      32.007 -12.693 -26.227  0.00  0.00    +0.211 HD
ENDBRANCH  22  36
ENDBRANCH   1  23
TORSDOF 6
ENDMDL
MODEL 2
REMARK VINA RESULT:     -12.8      4.466      7.424
REMARK  Name = 9810927
REMARK  6 active torsions:
REMARK  status: ('A' for Active; 'I' for Inactive)
REMARK    1  A    between atoms: N_1  and  C_13
REMARK    2  A    between atoms: C_11  and  O_24
REMARK    3  A    between atoms: C_12  and  O_26
REMARK    4  A    between atoms: C_14  and  C_18
REMARK    5  A    between atoms: C_19  and  C_20
REMARK    6  A    between atoms: N_28  and  C_32
REMARK                            x       y       z     vdW  Elec       q    Type
REMARK                         _______ _______ _______ _____ _____    ______ ____
ROOT
ATOM      1  N   UNL     1      32.328 -10.425 -22.247  0.00  0.00    -0.247 N 
ATOM      2  N   UNL     1      33.408 -11.423 -23.925  0.00  0.00    -0.242 NA
ATOM      3  N   UNL     1      31.927 -12.346 -20.814  0.00  0.00    -0.228 NA
ATOM      4  N   UNL     1      32.834 -14.390 -21.792  0.00  0.00    -0.228 NA
ATOM      5  C   UNL     1      32.402 -11.751 -21.918  0.00  0.00    +0.152 C 
ATOM      6  C   UNL     1      32.945 -10.280 -23.462  0.00  0.00    +0.223 C 
ATOM      7  C   UNL     1      33.075 -12.350 -22.970  0.00  0.00    +0.140 C 
ATOM      8  C   UNL     1      33.287 -13.722 -22.881  0.00  0.00    +0.150 C 
ATOM      9  C   UNL     1      32.190 -13.670 -20.841  0.00  0.00    +0.253 C 
ATOM     10  N   UNL     1      33.963 -14.412 -23.903  0.00  0.00    -0.295 N 
ATOM     11  H   UNL     1      34.251 -13.834 -24.646  0.00  0.00    +0.154 HD
ENDROOT
BRANCH  10  14
ATOM     12 CL   UNL     1      35.425 -20.104 -24.618  0.00  0.00    -0.082 Cl
ATOM     13  F   UNL     1      33.212 -15.826 -26.180  0.00  0.00    -0.203 F 
ATOM     14  C   UNL     1      34.310 -15.769 -24.075  0.00  0.00    +0.077 C 
ATOM     15  C   UNL     1      33.920 -16.450 -25.227  0.00  0.00    +0.154 C 
ATOM     16  C   UNL     1      35.045 -16.428 -23.090  0.00  0.00    +0.018 C 
ATOM     17  C   UNL     1      34.264 -17.791 -25.395  0.00  0.00    +0.042 C 
ATOM     18  C   UNL     1      35.389 -17.768 -23.257  0.00  0.00    +0.013 C 
ATOM     19  C   UNL     1      35.000 -18.450 -24.410  0.00  0.00    +0.060 C 
ENDBRANCH  10  14
BRANCH   1  23
ATOM     20  O   UNL     1      31.405  -8.233 -22.312  0.00  0.00    -0.326 OA
ATOM     21  C   UNL     1      32.586  -8.839 -20.327  0.00  0.00    +0.187 C 
ATOM     22  C   UNL     1      33.188  -7.583 -20.929  0.00  0.00    +0.178 C 
ATOM     23  C   UNL     1      31.707  -9.357 -21.460  0.00  0.00    +0.225 C 
ATOM     24  C   UNL     1      32.043  -7.050 -21.779  0.00  0.00    +0.223 C 
BRANCH  24  28
ATOM     25  O   UNL     1      31.807  -4.938 -22.984  0.00  0.00    -0.421 OA
ATOM     26  N   UNL     1      33.201  -6.393 -23.954  0.00  0.00    -0.109 NA
ATOM     27  N   UNL     1      33.162  -5.253 -24.736  0.00  0.00    -0.112 NA
ATOM     28  C   UNL     1      32.398  -6.159 -22.950  0.00  0.00    +0.255 A 
ATOM     29  C   UNL     1      32.336  -4.432 -24.131  0.00  0.00    +0.225 A 
BRANCH  29  30
ATOM     30  C   UNL     1      31.918  -3.076 -24.512  0.00  0.00    +0.070 C 
ATOM     31  C   UNL     1      32.781  -2.487 -25.688  0.00  0.00    +0.009 C 
ATOM     32  C   UNL     1      32.027  -2.053 -23.322  0.00  0.00    +0.009 C 
ATOM     33  C   UNL     1      30.429  -2.928 -25.014  0.00  0.00    +0.009 C 
ENDBRANCH  29  30
ENDBRANCH  24  28
BRANCH  21  34
ATOM     34  O   UNL     1      31.736  -8.510 -19.229  0.00  0.00    -0.378 OA
ATOM     35  H   UNL     1      31.547  -9.312 -18.716  0.00  0.00    +0.211 HD
ENDBRANCH  21  34
BRANCH  22  36
ATOM     36  O   UNL     1      33.599  -6.654 -19.946  0.00  0.00    -0.379 OA
ATOM     37  H   UNL     1      33.787  -5.800 -20.367  0.00  0.00    +0.211 HD
ENDBRANCH  22  36
ENDBRANCH   1  23
TORSDOF 6
ENDMDL
MODEL 3
REMARK VINA RESULT:     -12.7      7.380     11.450
REMARK  Name = 9810927
REMARK  6 active torsions:
REMARK  status: ('A' for Active; 'I' for Inactive)
REMARK    1  A    between atoms: N_1  and  C_13
REMARK    2  A    between atoms: C_11  and  O_24
REMARK    3  A    between atoms: C_12  and  O_26
REMARK    4  A    between atoms: C_14  and  C_18
REMARK    5  A    between atoms: C_19  and  C_20
REMARK    6  A    between atoms: N_28  and  C_32
REMARK                            x       y       z     vdW  Elec       q    Type
REMARK                         _______ _______ _______ _____ _____    ______ ____
ROOT
ATOM      1  N   UNL     1      36.310 -23.421 -16.109  0.00  0.00    -0.247 N 
ATOM      2  N   UNL     1      37.423 -21.811 -17.180  0.00  0.00    -0.242 NA
ATOM      3  N   UNL     1      34.356 -23.595 -17.542  0.00  0.00    -0.228 NA
ATOM      4  N   UNL     1      34.477 -22.024 -19.405  0.00  0.00    -0.228 NA
ATOM      5  C   UNL     1      35.541 -23.078 -17.187  0.00  0.00    +0.152 C 
ATOM      6  C   UNL     1      37.429 -22.631 -16.149  0.00  0.00    +0.223 C 
ATOM      7  C   UNL     1      36.250 -22.080 -17.837  0.00  0.00    +0.140 C 
ATOM      8  C   UNL     1      35.675 -21.549 -18.987  0.00  0.00    +0.150 C 
ATOM      9  C   UNL     1      33.900 -23.003 -18.667  0.00  0.00    +0.253 C 
ATOM     10  N   UNL     1      36.324 -20.533 -19.711  0.00  0.00    -0.295 N 
ATOM     11  H   UNL     1      37.188 -20.262 -19.322  0.00  0.00    +0.154 HD
ENDROOT
BRANCH  10  14
ATOM     12 CL   UNL     1      34.893 -17.564 -24.629  0.00  0.00    -0.082 Cl
ATOM     13  F   UNL     1      38.073 -18.694 -20.853  0.00  0.00    -0.203 F 
ATOM     14  C   UNL     1      35.985 -19.825 -20.883  0.00  0.00    +0.077 C 
ATOM     15  C   UNL     1      36.883 -18.909 -21.431  0.00  0.00    +0.154 C 
ATOM     16  C   UNL     1      34.750 -20.041 -21.491  0.00  0.00    +0.018 C 
ATOM     17  C   UNL     1      36.545 -18.210 -22.590  0.00  0.00    +0.042 C 
ATOM     18  C   UNL     1      34.411 -19.342 -22.649  0.00  0.00    +0.013 C 
ATOM     19  C   UNL     1      35.309 -18.427 -23.200  0.00  0.00    +0.060 C 
ENDBRANCH  10  14
BRANCH   1  23
ATOM     20  O   UNL     1      34.582 -24.661 -15.044  0.00  0.00    -0.326 OA
ATOM     21  C   UNL     1      36.454 -24.057 -13.692  0.00  0.00    +0.187 C 
ATOM     22  C   UNL     1      35.172 -23.537 -13.069  0.00  0.00    +0.178 C 
ATOM     23  C   UNL     1      36.005 -24.436 -15.098  0.00  0.00    +0.225 C 
ATOM     24  C   UNL     1      34.119 -24.444 -13.691  0.00  0.00    +0.223 C 
BRANCH  24  28
ATOM     25  O   UNL     1      32.092 -24.008 -14.984  0.00  0.00    -0.421 OA
ATOM     26  N   UNL     1      31.966 -23.371 -12.844  0.00  0.00    -0.109 NA
ATOM     27  N   UNL     1      30.762 -23.066 -13.452  0.00  0.00    -0.112 NA
ATOM     28  C   UNL     1      32.703 -23.915 -13.776  0.00  0.00    +0.255 A 
ATOM     29  C   UNL     1      30.881 -23.455 -14.699  0.00  0.00    +0.225 A 
BRANCH  29  30
ATOM     30  C   UNL     1      29.911 -23.381 -15.799  0.00  0.00    +0.070 C 
ATOM     31  C   UNL     1      29.282 -24.781 -16.144  0.00  0.00    +0.009 C 
ATOM     32  C   UNL     1      30.548 -22.837 -17.131  0.00  0.00    +0.009 C 
ATOM     33  C   UNL     1      28.663 -22.445 -15.557  0.00  0.00    +0.009 C 
ENDBRANCH  29  30
ENDBRANCH  24  28
BRANCH  21  34
ATOM     34  O   UNL     1      36.885 -25.247 -13.034  0.00  0.00    -0.378 OA
ATOM     35  H   UNL     1      36.119 -25.820 -12.869  0.00  0.00    +0.211 HD
ENDBRANCH  21  34
BRANCH  22  36
ATOM     36  O   UNL     1      35.181 -23.623 -11.658  0.00  0.00    -0.379 OA
ATOM     37  H   UNL     1      34.409 -24.130 -11.360  0.00  0.00    +0.211 HD
ENDBRANCH  22  36
ENDBRANCH   1  23
TORSDOF 6
ENDMDL
MODEL 4
REMARK VINA RESULT:     -12.2      4.831      7.951
REMARK  Name = 9810927
REMARK  6 active torsions:
REMARK  status: ('A' for Active; 'I' for Inactive)
REMARK    1  A    between atoms: N_1  and  C_13
REMARK    2  A    between atoms: C_11  and  O_24
REMARK    3  A    between atoms: C_12  and  O_26
REMARK    4  A    between atoms: C_14  and  C_18
REMARK    5  A    between atoms: C_19  and  C_20
REMARK    6  A    between atoms: N_28  and  C_32
REMARK                            x       y       z     vdW  Elec       q    Type
REMARK                         _______ _______ _______ _____ _____    ______ ____
ROOT
ATOM      1  N   UNL     1      32.232  -9.589 -22.335  0.00  0.00    -0.247 N 
ATOM      2  N   UNL     1      33.426 -10.583 -23.936  0.00  0.00    -0.242 NA
ATOM      3  N   UNL     1      31.662 -11.524 -20.981  0.00  0.00    -0.228 NA
ATOM      4  N   UNL     1      32.598 -13.573 -21.922  0.00  0.00    -0.228 NA
ATOM      5  C   UNL     1      32.245 -10.921 -22.029  0.00  0.00    +0.152 C 
ATOM      6  C   UNL     1      32.954  -9.437 -23.490  0.00  0.00    +0.223 C 
ATOM      7  C   UNL     1      32.990 -11.519 -23.032  0.00  0.00    +0.140 C 
ATOM      8  C   UNL     1      33.160 -12.897 -22.954  0.00  0.00    +0.150 C 
ATOM      9  C   UNL     1      31.894 -12.854 -21.013  0.00  0.00    +0.253 C 
ATOM     10  N   UNL     1      33.902 -13.587 -23.929  0.00  0.00    -0.295 N 
ATOM     11  H   UNL     1      34.267 -13.002 -24.633  0.00  0.00    +0.154 HD
ENDROOT
BRANCH  10  14
ATOM     12 CL   UNL     1      35.279 -19.301 -24.635  0.00  0.00    -0.082 Cl
ATOM     13  F   UNL     1      33.198 -14.972 -26.238  0.00  0.00    -0.203 F 
ATOM     14  C   UNL     1      34.230 -14.948 -24.099  0.00  0.00    +0.077 C 
ATOM     15  C   UNL     1      33.863 -15.615 -25.267  0.00  0.00    +0.154 C 
ATOM     16  C   UNL     1      34.920 -15.627 -23.095  0.00  0.00    +0.018 C 
ATOM     17  C   UNL     1      34.187 -16.961 -25.433  0.00  0.00    +0.042 C 
ATOM     18  C   UNL     1      35.244 -16.973 -23.260  0.00  0.00    +0.013 C 
ATOM     19  C   UNL     1      34.879 -17.640 -24.429  0.00  0.00    +0.060 C 
ENDBRANCH  10  14
BRANCH   1  23
ATOM     20  O   UNL     1      31.026  -7.544 -22.492  0.00  0.00    -0.326 OA
ATOM     21  C   UNL     1      32.504  -7.774 -20.632  0.00  0.00    +0.187 C 
ATOM     22  C   UNL     1      32.859  -6.533 -21.429  0.00  0.00    +0.178 C 
ATOM     23  C   UNL     1      31.573  -8.519 -21.582  0.00  0.00    +0.225 C 
ATOM     24  C   UNL     1      31.560  -6.240 -22.167  0.00  0.00    +0.223 C 
BRANCH  24  28
ATOM     25  O   UNL     1      32.790  -5.605 -24.181  0.00  0.00    -0.421 OA
ATOM     26  N   UNL     1      30.785  -4.632 -23.989  0.00  0.00    -0.109 NA
ATOM     27  N   UNL     1      31.366  -4.185 -25.162  0.00  0.00    -0.112 NA
ATOM     28  C   UNL     1      31.652  -5.452 -23.457  0.00  0.00    +0.255 A 
ATOM     29  C   UNL     1      32.534  -4.779 -25.232  0.00  0.00    +0.225 A 
BRANCH  29  30
ATOM     30  C   UNL     1      33.574  -4.680 -26.265  0.00  0.00    +0.070 C 
ATOM     31  C   UNL     1      33.039  -5.050 -27.697  0.00  0.00    +0.009 C 
ATOM     32  C   UNL     1      34.796  -5.630 -25.986  0.00  0.00    +0.009 C 
ATOM     33  C   UNL     1      34.226  -3.255 -26.452  0.00  0.00    +0.009 C 
ENDBRANCH  29  30
ENDBRANCH  24  28
BRANCH  21  34
ATOM     34  O   UNL     1      31.755  -7.426 -19.469  0.00  0.00    -0.378 OA
ATOM     35  H   UNL     1      31.798  -8.153 -18.827  0.00  0.00    +0.211 HD
ENDBRANCH  21  34
BRANCH  22  36
ATOM     36  O   UNL     1      33.257  -5.455 -20.605  0.00  0.00    -0.379 OA
ATOM     37  H   UNL     1      34.009  -4.997 -21.013  0.00  0.00    +0.211 HD
ENDBRANCH  22  36
ENDBRANCH   1  23
TORSDOF 6
ENDMDL
MODEL 5
REMARK VINA RESULT:     -12.1      4.556      9.816
REMARK  Name = 9810927
REMARK  6 active torsions:
REMARK  status: ('A' for Active; 'I' for Inactive)
REMARK    1  A    between atoms: N_1  and  C_13
REMARK    2  A    between atoms: C_11  and  O_24
REMARK    3  A    between atoms: C_12  and  O_26
REMARK    4  A    between atoms: C_14  and  C_18
REMARK    5  A    between atoms: C_19  and  C_20
REMARK    6  A    between atoms: N_28  and  C_32
REMARK                            x       y       z     vdW  Elec       q    Type
REMARK                         _______ _______ _______ _____ _____    ______ ____
ROOT
ATOM      1  N   UNL     1      34.943 -16.551 -22.371  0.00  0.00    -0.247 N 
ATOM      2  N   UNL     1      34.149 -14.939 -21.049  0.00  0.00    -0.242 NA
ATOM      3  N   UNL     1      34.597 -15.515 -24.541  0.00  0.00    -0.228 NA
ATOM      4  N   UNL     1      33.594 -13.301 -24.319  0.00  0.00    -0.228 NA
ATOM      5  C   UNL     1      34.537 -15.543 -23.201  0.00  0.00    +0.152 C 
ATOM      6  C   UNL     1      34.688 -16.140 -21.089  0.00  0.00    +0.223 C 
ATOM      7  C   UNL     1      34.049 -14.554 -22.362  0.00  0.00    +0.140 C 
ATOM      8  C   UNL     1      33.565 -13.399 -22.967  0.00  0.00    +0.150 C 
ATOM      9  C   UNL     1      34.101 -14.350 -25.011  0.00  0.00    +0.253 C 
ATOM     10  N   UNL     1      33.052 -12.343 -22.193  0.00  0.00    -0.295 N 
ATOM     11  H   UNL     1      33.079 -12.516 -21.224  0.00  0.00    +0.154 HD
ENDROOT
BRANCH  10  14
ATOM     12 CL   UNL     1      30.774  -7.064 -23.604  0.00  0.00    -0.082 Cl
ATOM     13  F   UNL     1      30.527 -11.572 -21.311  0.00  0.00    -0.203 F 
ATOM     14  C   UNL     1      32.508 -11.086 -22.528  0.00  0.00    +0.077 C 
ATOM     15  C   UNL     1      31.240 -10.728 -22.071  0.00  0.00    +0.154 C 
ATOM     16  C   UNL     1      33.240 -10.201 -23.319  0.00  0.00    +0.018 C 
ATOM     17  C   UNL     1      30.704  -9.485 -22.404  0.00  0.00    +0.042 C 
ATOM     18  C   UNL     1      32.704  -8.957 -23.652  0.00  0.00    +0.013 C 
ATOM     19  C   UNL     1      31.436  -8.598 -23.194  0.00  0.00    +0.060 C 
ENDBRANCH  10  14
BRANCH   1  23
ATOM     20  O   UNL     1      34.644 -18.910 -22.427  0.00  0.00    -0.326 OA
ATOM     21  C   UNL     1      36.872 -18.123 -22.089  0.00  0.00    +0.187 C 
ATOM     22  C   UNL     1      36.468 -19.046 -20.955  0.00  0.00    +0.178 C 
ATOM     23  C   UNL     1      35.537 -17.831 -22.765  0.00  0.00    +0.225 C 
ATOM     24  C   UNL     1      35.340 -19.855 -21.581  0.00  0.00    +0.223 C 
BRANCH  24  28
ATOM     25  O   UNL     1      34.756 -21.470 -19.844  0.00  0.00    -0.421 OA
ATOM     26  N   UNL     1      33.054 -20.174 -20.497  0.00  0.00    -0.109 NA
ATOM     27  N   UNL     1      32.586 -21.034 -19.521  0.00  0.00    -0.112 NA
ATOM     28  C   UNL     1      34.318 -20.468 -20.648  0.00  0.00    +0.255 A 
ATOM     29  C   UNL     1      33.613 -21.771 -19.170  0.00  0.00    +0.225 A 
BRANCH  29  30
ATOM     30  C   UNL     1      33.696 -22.846 -18.172  0.00  0.00    +0.070 C 
ATOM     31  C   UNL     1      33.879 -24.264 -18.827  0.00  0.00    +0.009 C 
ATOM     32  C   UNL     1      32.410 -22.934 -17.270  0.00  0.00    +0.009 C 
ATOM     33  C   UNL     1      34.886 -22.740 -17.141  0.00  0.00    +0.009 C 
ENDBRANCH  29  30
ENDBRANCH  24  28
BRANCH  21  34
ATOM     34  O   UNL     1      37.696 -18.812 -23.028  0.00  0.00    -0.378 OA
ATOM     35  H   UNL     1      37.286 -18.774 -23.907  0.00  0.00    +0.211 HD
ENDBRANCH  21  34
BRANCH  22  36
ATOM     36  O   UNL     1      37.533 -19.867 -20.519  0.00  0.00    -0.379 OA
ATOM     37  H   UNL     1      38.352 -19.347 -20.490  0.00  0.00    +0.211 HD
ENDBRANCH  22  36
ENDBRANCH   1  23
TORSDOF 6
ENDMDL
MODEL 6
REMARK VINA RESULT:     -11.9      3.130      4.897
REMARK  Name = 9810927
REMARK  6 active torsions:
REMARK  status: ('A' for Active; 'I' for Inactive)
REMARK    1  A    between atoms: N_1  and  C_13
REMARK    2  A    between atoms: C_11  and  O_24
REMARK    3  A    between atoms: C_12  and  O_26
REMARK    4  A    between atoms: C_14  and  C_18
REMARK    5  A    between atoms: C_19  and  C_20
REMARK    6  A    between atoms: N_28  and  C_32
REMARK                            x       y       z     vdW  Elec       q    Type
REMARK                         _______ _______ _______ _____ _____    ______ ____
ROOT
ATOM      1  N   UNL     1      34.459 -20.152 -21.507  0.00  0.00    -0.247 N 
ATOM      2  N   UNL     1      32.510 -20.614 -20.525  0.00  0.00    -0.242 NA
ATOM      3  N   UNL     1      35.968 -21.306 -19.992  0.00  0.00    -0.228 NA
ATOM      4  N   UNL     1      34.748 -22.393 -18.180  0.00  0.00    -0.228 NA
ATOM      5  C   UNL     1      34.756 -20.911 -20.409  0.00  0.00    +0.152 C 
ATOM      6  C   UNL     1      33.097 -20.001 -21.532  0.00  0.00    +0.223 C 
ATOM      7  C   UNL     1      33.534 -21.187 -19.816  0.00  0.00    +0.140 C 
ATOM      8  C   UNL     1      33.557 -21.959 -18.659  0.00  0.00    +0.150 C 
ATOM      9  C   UNL     1      35.864 -22.045 -18.866  0.00  0.00    +0.253 C 
ATOM     10  N   UNL     1      32.365 -22.288 -17.991  0.00  0.00    -0.295 N 
ATOM     11  H   UNL     1      31.558 -21.924 -18.423  0.00  0.00    +0.154 HD
ENDROOT
BRANCH  10  14
ATOM     12 CL   UNL     1      31.235 -25.428 -13.101  0.00  0.00    -0.082 Cl
ATOM     13  F   UNL     1      29.756 -22.766 -17.147  0.00  0.00    -0.203 F 
ATOM     14  C   UNL     1      32.093 -23.036 -16.826  0.00  0.00    +0.077 C 
ATOM     15  C   UNL     1      30.776 -23.259 -16.429  0.00  0.00    +0.154 C 
ATOM     16  C   UNL     1      33.146 -23.552 -16.072  0.00  0.00    +0.018 C 
ATOM     17  C   UNL     1      30.510 -23.998 -15.277  0.00  0.00    +0.042 C 
ATOM     18  C   UNL     1      32.882 -24.291 -14.919  0.00  0.00    +0.013 C 
ATOM     19  C   UNL     1      31.564 -24.515 -14.522  0.00  0.00    +0.060 C 
ENDBRANCH  10  14
BRANCH   1  23
ATOM     20  O   UNL     1      35.683 -18.220 -22.161  0.00  0.00    -0.326 OA
ATOM     21  C   UNL     1      34.908 -19.640 -23.917  0.00  0.00    +0.187 C 
ATOM     22  C   UNL     1      34.394 -18.228 -24.124  0.00  0.00    +0.178 C 
ATOM     23  C   UNL     1      35.408 -19.600 -22.477  0.00  0.00    +0.225 C 
ATOM     24  C   UNL     1      35.385 -17.401 -23.315  0.00  0.00    +0.223 C 
BRANCH  24  28
ATOM     25  O   UNL     1      34.288 -15.253 -23.703  0.00  0.00    -0.421 OA
ATOM     26  N   UNL     1      35.036 -15.534 -21.614  0.00  0.00    -0.109 NA
ATOM     27  N   UNL     1      34.444 -14.286 -21.691  0.00  0.00    -0.112 NA
ATOM     28  C   UNL     1      34.919 -16.053 -22.807  0.00  0.00    +0.255 A 
ATOM     29  C   UNL     1      34.023 -14.166 -22.928  0.00  0.00    +0.225 A 
BRANCH  29  30
ATOM     30  C   UNL     1      33.319 -13.049 -23.572  0.00  0.00    +0.070 C 
ATOM     31  C   UNL     1      32.204 -12.428 -22.653  0.00  0.00    +0.009 C 
ATOM     32  C   UNL     1      32.611 -13.472 -24.911  0.00  0.00    +0.009 C 
ATOM     33  C   UNL     1      34.214 -11.814 -23.981  0.00  0.00    +0.009 C 
ENDBRANCH  29  30
ENDBRANCH  24  28
BRANCH  21  34
ATOM     34  O   UNL     1      36.029 -19.895 -24.762  0.00  0.00    -0.378 OA
ATOM     35  H   UNL     1      36.426 -19.053 -25.034  0.00  0.00    +0.211 HD
ENDBRANCH  21  34
BRANCH  22  36
ATOM     36  O   UNL     1      34.375 -17.853 -25.486  0.00  0.00    -0.379 OA
ATOM     37  H   UNL     1      34.956 -17.087 -25.619  0.00  0.00    +0.211 HD
ENDBRANCH  22  36
ENDBRANCH   1  23
TORSDOF 6
ENDMDL
MODEL 7
REMARK VINA RESULT:     -11.8      5.888     10.463
REMARK  Name = 9810927
REMARK  6 active torsions:
REMARK  status: ('A' for Active; 'I' for Inactive)
REMARK    1  A    between atoms: N_1  and  C_13
REMARK    2  A    between atoms: C_11  and  O_24
REMARK    3  A    between atoms: C_12  and  O_26
REMARK    4  A    between atoms: C_14  and  C_18
REMARK    5  A    between atoms: C_19  and  C_20
REMARK    6  A    between atoms: N_28  and  C_32
REMARK                            x       y       z     vdW  Elec       q    Type
REMARK                         _______ _______ _______ _____ _____    ______ ____
ROOT
ATOM      1  N   UNL     1      35.806 -22.047 -18.788  0.00  0.00    -0.247 N 
ATOM      2  N   UNL     1      36.924 -20.406 -19.804  0.00  0.00    -0.242 NA
ATOM      3  N   UNL     1      33.612 -21.729 -19.782  0.00  0.00    -0.228 NA
ATOM      4  N   UNL     1      33.612 -19.866 -21.358  0.00  0.00    -0.228 NA
ATOM      5  C   UNL     1      34.907 -21.426 -19.610  0.00  0.00    +0.152 C 
ATOM      6  C   UNL     1      37.003 -21.397 -18.941  0.00  0.00    +0.223 C 
ATOM      7  C   UNL     1      35.621 -20.413 -20.231  0.00  0.00    +0.140 C 
ATOM      8  C   UNL     1      34.925 -19.616 -21.135  0.00  0.00    +0.150 C 
ATOM      9  C   UNL     1      33.045 -20.892 -20.677  0.00  0.00    +0.253 C 
ATOM     10  N   UNL     1      35.570 -18.566 -21.811  0.00  0.00    -0.295 N 
ATOM     11  H   UNL     1      36.522 -18.472 -21.577  0.00  0.00    +0.154 HD
ENDROOT
BRANCH  10  14
ATOM     12 CL   UNL     1      33.703 -14.588 -25.779  0.00  0.00    -0.082 Cl
ATOM     13  F   UNL     1      35.079 -19.279 -24.456  0.00  0.00    -0.203 F 
ATOM     14  C   UNL     1      35.124 -17.619 -22.758  0.00  0.00    +0.077 C 
ATOM     15  C   UNL     1      34.887 -18.007 -24.076  0.00  0.00    +0.154 C 
ATOM     16  C   UNL     1      34.923 -16.294 -22.373  0.00  0.00    +0.018 C 
ATOM     17  C   UNL     1      34.448 -17.070 -25.010  0.00  0.00    +0.042 C 
ATOM     18  C   UNL     1      34.484 -15.357 -23.307  0.00  0.00    +0.013 C 
ATOM     19  C   UNL     1      34.245 -15.744 -24.626  0.00  0.00    +0.060 C 
ENDBRANCH  10  14
BRANCH   1  23
ATOM     20  O   UNL     1      34.167 -23.585 -18.009  0.00  0.00    -0.326 OA
ATOM     21  C   UNL     1      35.830 -22.906 -16.436  0.00  0.00    +0.187 C 
ATOM     22  C   UNL     1      34.446 -22.608 -15.892  0.00  0.00    +0.178 C 
ATOM     23  C   UNL     1      35.550 -23.189 -17.908  0.00  0.00    +0.225 C 
ATOM     24  C   UNL     1      33.571 -23.564 -16.691  0.00  0.00    +0.223 C 
BRANCH  24  28
ATOM     25  O   UNL     1      31.212 -23.981 -16.210  0.00  0.00    -0.421 OA
ATOM     26  N   UNL     1      31.575 -22.228 -17.551  0.00  0.00    -0.109 NA
ATOM     27  N   UNL     1      30.210 -22.348 -17.365  0.00  0.00    -0.112 NA
ATOM     28  C   UNL     1      32.111 -23.199 -16.860  0.00  0.00    +0.255 A 
ATOM     29  C   UNL     1      30.045 -23.384 -16.576  0.00  0.00    +0.225 A 
BRANCH  29  30
ATOM     30  C   UNL     1      28.807 -23.969 -16.047  0.00  0.00    +0.070 C 
ATOM     31  C   UNL     1      27.988 -24.744 -17.144  0.00  0.00    +0.009 C 
ATOM     32  C   UNL     1      27.836 -22.888 -15.446  0.00  0.00    +0.009 C 
ATOM     33  C   UNL     1      28.983 -25.020 -14.882  0.00  0.00    +0.009 C 
ENDBRANCH  29  30
ENDBRANCH  24  28
BRANCH  21  34
ATOM     34  O   UNL     1      36.353 -24.098 -15.853  0.00  0.00    -0.378 OA
ATOM     35  H   UNL     1      35.857 -24.306 -15.044  0.00  0.00    +0.211 HD
ENDBRANCH  21  34
BRANCH  22  36
ATOM     36  O   UNL     1      34.350 -22.837 -14.500  0.00  0.00    -0.379 OA
ATOM     37  H   UNL     1      35.222 -23.084 -14.152  0.00  0.00    +0.211 HD
ENDBRANCH  22  36
ENDBRANCH   1  23
TORSDOF 6
ENDMDL
MODEL 8
REMARK VINA RESULT:     -11.1      6.433     10.876
REMARK  Name = 9810927
REMARK  6 active torsions:
REMARK  status: ('A' for Active; 'I' for Inactive)
REMARK    1  A    between atoms: N_1  and  C_13
REMARK    2  A    between atoms: C_11  and  O_24
REMARK    3  A    between atoms: C_12  and  O_26
REMARK    4  A    between atoms: C_14  and  C_18
REMARK    5  A    between atoms: C_19  and  C_20
REMARK    6  A    between atoms: N_28  and  C_32
REMARK                            x       y       z     vdW  Elec       q    Type
REMARK                         _______ _______ _______ _____ _____    ______ ____
ROOT
ATOM      1  N   UNL     1      34.858 -22.702 -18.329  0.00  0.00    -0.247 N 
ATOM      2  N   UNL     1      33.387 -21.700 -19.674  0.00  0.00    -0.242 NA
ATOM      3  N   UNL     1      36.890 -21.560 -19.014  0.00  0.00    -0.228 NA
ATOM      4  N   UNL     1      36.440 -19.920 -20.765  0.00  0.00    -0.228 NA
ATOM      5  C   UNL     1      35.572 -21.802 -19.071  0.00  0.00    +0.152 C 
ATOM      6  C   UNL     1      33.551 -22.603 -18.729  0.00  0.00    +0.223 C 
ATOM      7  C   UNL     1      34.641 -21.192 -19.897  0.00  0.00    +0.140 C 
ATOM      8  C   UNL     1      35.117 -20.217 -20.768  0.00  0.00    +0.150 C 
ATOM      9  C   UNL     1      37.232 -20.600 -19.901  0.00  0.00    +0.253 C 
ATOM     10  N   UNL     1      34.244 -19.546 -21.641  0.00  0.00    -0.295 N 
ATOM     11  H   UNL     1      33.306 -19.836 -21.561  0.00  0.00    +0.154 HD
ENDROOT
BRANCH  10  14
ATOM     12 CL   UNL     1      35.077 -15.324 -25.707  0.00  0.00    -0.082 Cl
ATOM     13  F   UNL     1      34.876 -16.935 -20.911  0.00  0.00    -0.203 F 
ATOM     14  C   UNL     1      34.443 -18.538 -22.608  0.00  0.00    +0.077 C 
ATOM     15  C   UNL     1      34.759 -17.239 -22.211  0.00  0.00    +0.154 C 
ATOM     16  C   UNL     1      34.323 -18.844 -23.963  0.00  0.00    +0.018 C 
ATOM     17  C   UNL     1      34.955 -16.245 -23.169  0.00  0.00    +0.042 C 
ATOM     18  C   UNL     1      34.518 -17.850 -24.922  0.00  0.00    +0.013 C 
ATOM     19  C   UNL     1      34.835 -16.551 -24.525  0.00  0.00    +0.060 C 
ENDBRANCH  10  14
BRANCH   1  23
ATOM     20  O   UNL     1      34.289 -24.276 -16.638  0.00  0.00    -0.326 OA
ATOM     21  C   UNL     1      36.197 -22.903 -16.223  0.00  0.00    +0.187 C 
ATOM     22  C   UNL     1      35.191 -22.751 -15.098  0.00  0.00    +0.178 C 
ATOM     23  C   UNL     1      35.380 -23.606 -17.301  0.00  0.00    +0.225 C 
ATOM     24  C   UNL     1      34.377 -24.033 -15.215  0.00  0.00    +0.223 C 
BRANCH  24  28
ATOM     25  O   UNL     1      31.965 -23.903 -15.578  0.00  0.00    -0.421 OA
ATOM     26  N   UNL     1      32.557 -24.095 -13.430  0.00  0.00    -0.109 NA
ATOM     27  N   UNL     1      31.177 -24.031 -13.488  0.00  0.00    -0.112 NA
ATOM     28  C   UNL     1      32.965 -24.017 -14.668  0.00  0.00    +0.255 A 
ATOM     29  C   UNL     1      30.877 -23.920 -14.761  0.00  0.00    +0.225 A 
BRANCH  29  30
ATOM     30  C   UNL     1      29.562 -23.816 -15.406  0.00  0.00    +0.070 C 
ATOM     31  C   UNL     1      28.821 -22.474 -15.054  0.00  0.00    +0.009 C 
ATOM     32  C   UNL     1      28.592 -24.983 -14.993  0.00  0.00    +0.009 C 
ATOM     33  C   UNL     1      29.562 -23.854 -16.984  0.00  0.00    +0.009 C 
ENDBRANCH  29  30
ENDBRANCH  24  28
BRANCH  21  34
ATOM     34  O   UNL     1      37.255 -23.779 -15.835  0.00  0.00    -0.378 OA
ATOM     35  H   UNL     1      38.063 -23.263 -15.687  0.00  0.00    +0.211 HD
ENDBRANCH  21  34
BRANCH  22  36
ATOM     36  O   UNL     1      35.808 -22.627 -13.832  0.00  0.00    -0.379 OA
ATOM     37  H   UNL     1      35.574 -23.392 -13.282  0.00  0.00    +0.211 HD
ENDBRANCH  22  36
ENDBRANCH   1  23
TORSDOF 6
ENDMDL
MODEL 9
REMARK VINA RESULT:     -10.4      1.878      2.534
REMARK  Name = 9810927
REMARK  6 active torsions:
REMARK  status: ('A' for Active; 'I' for Inactive)
REMARK    1  A    between atoms: N_1  and  C_13
REMARK    2  A    between atoms: C_11  and  O_24
REMARK    3  A    between atoms: C_12  and  O_26
REMARK    4  A    between atoms: C_14  and  C_18
REMARK    5  A    between atoms: C_19  and  C_20
REMARK    6  A    between atoms: N_28  and  C_32
REMARK                            x       y       z     vdW  Elec       q    Type
REMARK                         _______ _______ _______ _____ _____    ______ ____
ROOT
ATOM      1  N   UNL     1      35.119 -18.208 -22.873  0.00  0.00    -0.247 N 
ATOM      2  N   UNL     1      34.042 -19.925 -21.940  0.00  0.00    -0.242 NA
ATOM      3  N   UNL     1      37.020 -18.046 -21.368  0.00  0.00    -0.228 NA
ATOM      4  N   UNL     1      36.909 -19.737 -19.611  0.00  0.00    -0.228 NA
ATOM      5  C   UNL     1      35.868 -18.587 -21.793  0.00  0.00    +0.152 C 
ATOM      6  C   UNL     1      34.032 -19.042 -22.917  0.00  0.00    +0.223 C 
ATOM      7  C   UNL     1      35.184 -19.652 -21.231  0.00  0.00    +0.140 C 
ATOM      8  C   UNL     1      35.745 -20.232 -20.098  0.00  0.00    +0.150 C 
ATOM      9  C   UNL     1      37.466 -18.689 -20.267  0.00  0.00    +0.253 C 
ATOM     10  N   UNL     1      35.119 -21.319 -19.462  0.00  0.00    -0.295 N 
ATOM     11  H   UNL     1      34.282 -21.601 -19.896  0.00  0.00    +0.154 HD
ENDROOT
BRANCH  10  14
ATOM     12 CL   UNL     1      36.526 -24.534 -14.694  0.00  0.00    -0.082 Cl
ATOM     13  F   UNL     1      33.239 -22.937 -18.199  0.00  0.00    -0.203 F 
ATOM     14  C   UNL     1      35.453 -22.086 -18.326  0.00  0.00    +0.077 C 
ATOM     15  C   UNL     1      34.488 -22.887 -17.715  0.00  0.00    +0.154 C 
ATOM     16  C   UNL     1      36.749 -22.041 -17.813  0.00  0.00    +0.018 C 
ATOM     17  C   UNL     1      34.820 -23.644 -16.592  0.00  0.00    +0.042 C 
ATOM     18  C   UNL     1      37.081 -22.797 -16.690  0.00  0.00    +0.013 C 
ATOM     19  C   UNL     1      36.117 -23.600 -16.079  0.00  0.00    +0.060 C 
ENDBRANCH  10  14
BRANCH   1  23
ATOM     20  O   UNL     1      35.194 -15.848 -23.164  0.00  0.00    -0.326 OA
ATOM     21  C   UNL     1      34.548 -17.140 -25.064  0.00  0.00    +0.187 C 
ATOM     22  C   UNL     1      33.474 -16.119 -24.739  0.00  0.00    +0.178 C 
ATOM     23  C   UNL     1      35.411 -17.119 -23.808  0.00  0.00    +0.225 C 
ATOM     24  C   UNL     1      34.248 -15.078 -23.941  0.00  0.00    +0.223 C 
BRANCH  24  28
ATOM     25  O   UNL     1      33.328 -12.905 -23.309  0.00  0.00    -0.421 OA
ATOM     26  N   UNL     1      32.892 -14.542 -21.849  0.00  0.00    -0.109 NA
ATOM     27  N   UNL     1      32.318 -13.378 -21.369  0.00  0.00    -0.112 NA
ATOM     28  C   UNL     1      33.465 -14.213 -22.976  0.00  0.00    +0.255 A 
ATOM     29  C   UNL     1      32.599 -12.450 -22.254  0.00  0.00    +0.225 A 
BRANCH  29  30
ATOM     30  C   UNL     1      32.239 -11.026 -22.261  0.00  0.00    +0.070 C 
ATOM     31  C   UNL     1      30.704 -10.793 -22.510  0.00  0.00    +0.009 C 
ATOM     32  C   UNL     1      33.000 -10.216 -23.373  0.00  0.00    +0.009 C 
ATOM     33  C   UNL     1      32.539 -10.232 -20.930  0.00  0.00    +0.009 C 
ENDBRANCH  29  30
ENDBRANCH  24  28
BRANCH  21  34
ATOM     34  O   UNL     1      35.351 -16.693 -26.155  0.00  0.00    -0.378 OA
ATOM     35  H   UNL     1      36.147 -17.245 -26.218  0.00  0.00    +0.211 HD
ENDBRANCH  21  34
BRANCH  22  36
ATOM     36  O   UNL     1      32.882 -15.567 -25.898  0.00  0.00    -0.379 OA
ATOM     37  H   UNL     1      33.265 -15.984 -26.687  0.00  0.00    +0.211 HD
ENDBRANCH  22  36
ENDBRANCH   1  23
TORSDOF 6
ENDMDL
