MODEL 1
REMARK VINA RESULT:     -13.6      0.000      0.000
REMARK  Name = 60870
REMARK  7 active torsions:
REMARK  status: ('A' for Active; 'I' for Inactive)
REMARK    1  A    between atoms: C_2  and  C_4
REMARK    2  A    between atoms: C_2  and  C_18
REMARK    3  A    between atoms: C_3  and  C_9
REMARK    4  A    between atoms: C_9  and  C_14
REMARK    5  A    between atoms: C_18  and  C_19
REMARK    6  A    between atoms: C_19  and  C_22
REMARK    7  A    between atoms: C_24  and  C_26
REMARK                            x       y       z     vdW  Elec       q    Type
REMARK                         _______ _______ _______ _____ _____    ______ ____
ROOT
ATOM      1  O   UNL     1      33.733 -24.207 -18.619  0.00  0.00    -0.291 OA
ATOM      2  C   UNL     1      33.528 -22.993 -18.419  0.00  0.00    +0.173 C 
ENDROOT
BRANCH   2   4
ATOM      3  C   UNL     1      35.243 -20.063 -20.940  0.00  0.00    -0.021 C 
ATOM      4  C   UNL     1      34.118 -21.985 -19.288  0.00  0.00    +0.035 C 
ATOM      5  C   UNL     1      36.070 -20.921 -20.231  0.00  0.00    -0.004 C 
ATOM      6  C   UNL     1      33.863 -20.149 -20.837  0.00  0.00    -0.004 C 
ATOM      7  C   UNL     1      35.504 -21.889 -19.400  0.00  0.00    +0.003 C 
ATOM      8  C   UNL     1      33.297 -21.117 -20.005  0.00  0.00    +0.003 C 
BRANCH   3   9
ATOM      9  C   UNL     1      35.854 -19.019 -21.839  0.00  0.00    +0.047 C 
BRANCH   9  14
ATOM     10  S   UNL     1      34.764 -18.589 -24.332  0.00  0.00    -0.048 S 
ATOM     11  O   UNL     1      35.230 -16.116 -21.406  0.00  0.00    -0.274 OA
ATOM     12  O   UNL     1      35.090 -16.583 -25.998  0.00  0.00    -0.263 OA
ATOM     13  N   UNL     1      35.181 -16.145 -23.717  0.00  0.00    -0.246 N 
ATOM     14  C   UNL     1      34.797 -18.197 -22.555  0.00  0.00    +0.137 C 
ATOM     15  C   UNL     1      35.093 -16.717 -22.465  0.00  0.00    +0.239 C 
ATOM     16  C   UNL     1      35.037 -16.933 -24.829  0.00  0.00    +0.279 C 
ATOM     17  H   UNL     1      35.345 -15.179 -23.812  0.00  0.00    +0.158 HD
ENDBRANCH   9  14
ENDBRANCH   3   9
ENDBRANCH   2   4
BRANCH   2  18
ATOM     18  C   UNL     1      32.635 -22.564 -17.239  0.00  0.00    +0.076 C 
BRANCH  18  19
ATOM     19  C   UNL     1      32.042 -23.743 -16.463  0.00  0.00    +0.066 C 
BRANCH  19  22
ATOM     20  O   UNL     1      33.398 -24.577 -13.177  0.00  0.00    -0.449 OA
ATOM     21  N   UNL     1      34.165 -23.963 -15.214  0.00  0.00    -0.373 NA
ATOM     22  C   UNL     1      32.811 -24.045 -15.211  0.00  0.00    +0.130 C 
ATOM     23  C   UNL     1      32.326 -24.410 -14.001  0.00  0.00    +0.216 C 
ATOM     24  C   UNL     1      34.461 -24.290 -13.976  0.00  0.00    +0.277 C 
ATOM     25  C   UNL     1      30.998 -24.651 -13.426  0.00  0.00    +0.055 C 
BRANCH  24  26
ATOM     26  C   UNL     1      35.747 -24.390 -13.343  0.00  0.00    +0.066 C 
ATOM     27  C   UNL     1      36.115 -23.480 -12.348  0.00  0.00    +0.006 C 
ATOM     28  C   UNL     1      36.639 -25.399 -13.720  0.00  0.00    +0.006 C 
ATOM     29  C   UNL     1      37.364 -23.577 -11.734  0.00  0.00    +0.000 C 
ATOM     30  C   UNL     1      37.888 -25.496 -13.106  0.00  0.00    +0.000 C 
ATOM     31  C   UNL     1      38.250 -24.584 -12.114  0.00  0.00    +0.000 C 
ENDBRANCH  24  26
ENDBRANCH  19  22
ENDBRANCH  18  19
ENDBRANCH   2  18
TORSDOF 7
ENDMDL
MODEL 2
REMARK VINA RESULT:     -13.6      6.412     10.626
REMARK  Name = 60870
REMARK  7 active torsions:
REMARK  status: ('A' for Active; 'I' for Inactive)
REMARK    1  A    between atoms: C_2  and  C_4
REMARK    2  A    between atoms: C_2  and  C_18
REMARK    3  A    between atoms: C_3  and  C_9
REMARK    4  A    between atoms: C_9  and  C_14
REMARK    5  A    between atoms: C_18  and  C_19
REMARK    6  A    between atoms: C_19  and  C_22
REMARK    7  A    between atoms: C_24  and  C_26
REMARK                            x       y       z     vdW  Elec       q    Type
REMARK                         _______ _______ _______ _____ _____    ______ ____
ROOT
ATOM      1  O   UNL     1      32.336 -14.543 -21.233  0.00  0.00    -0.291 OA
ATOM      2  C   UNL     1      32.769 -13.921 -22.225  0.00  0.00    +0.173 C 
ENDROOT
BRANCH   2   4
ATOM      3  C   UNL     1      31.892  -9.819 -22.756  0.00  0.00    -0.021 C 
ATOM      4  C   UNL     1      32.466 -12.510 -22.408  0.00  0.00    +0.035 C 
ATOM      5  C   UNL     1      32.879 -10.410 -23.530  0.00  0.00    -0.004 C 
ATOM      6  C   UNL     1      31.187 -10.550 -21.811  0.00  0.00    -0.004 C 
ATOM      7  C   UNL     1      33.168 -11.764 -23.355  0.00  0.00    +0.003 C 
ATOM      8  C   UNL     1      31.476 -11.904 -21.637  0.00  0.00    +0.003 C 
BRANCH   3   9
ATOM      9  C   UNL     1      31.579  -8.357 -22.945  0.00  0.00    +0.047 C 
BRANCH   9  14
ATOM     10  S   UNL     1      32.902  -7.845 -20.584  0.00  0.00    -0.048 S 
ATOM     11  O   UNL     1      31.960  -5.421 -23.436  0.00  0.00    -0.274 OA
ATOM     12  O   UNL     1      32.628  -5.857 -18.887  0.00  0.00    -0.263 OA
ATOM     13  N   UNL     1      32.262  -5.436 -21.143  0.00  0.00    -0.246 N 
ATOM     14  C   UNL     1      32.651  -7.464 -22.346  0.00  0.00    +0.137 C 
ATOM     15  C   UNL     1      32.251  -6.007 -22.399  0.00  0.00    +0.239 C 
ATOM     16  C   UNL     1      32.577  -6.208 -20.056  0.00  0.00    +0.279 C 
ATOM     17  H   UNL     1      32.046  -4.483 -21.029  0.00  0.00    +0.158 HD
ENDBRANCH   9  14
ENDBRANCH   3   9
ENDBRANCH   2   4
BRANCH   2  18
ATOM     18  C   UNL     1      33.634 -14.663 -23.260  0.00  0.00    +0.076 C 
BRANCH  18  19
ATOM     19  C   UNL     1      34.917 -15.256 -22.671  0.00  0.00    +0.066 C 
BRANCH  19  22
ATOM     20  O   UNL     1      34.819 -18.880 -23.106  0.00  0.00    -0.449 OA
ATOM     21  N   UNL     1      34.866 -17.383 -21.410  0.00  0.00    -0.373 NA
ATOM     22  C   UNL     1      34.877 -16.754 -22.613  0.00  0.00    +0.130 C 
ATOM     23  C   UNL     1      34.849 -17.630 -23.645  0.00  0.00    +0.216 C 
ATOM     24  C   UNL     1      34.830 -18.649 -21.765  0.00  0.00    +0.277 C 
ATOM     25  C   UNL     1      34.846 -17.534 -25.109  0.00  0.00    +0.055 C 
BRANCH  24  26
ATOM     26  C   UNL     1      34.803 -19.825 -20.941  0.00  0.00    +0.066 C 
ATOM     27  C   UNL     1      33.583 -20.382 -20.549  0.00  0.00    +0.006 C 
ATOM     28  C   UNL     1      35.998 -20.419 -20.524  0.00  0.00    +0.006 C 
ATOM     29  C   UNL     1      33.557 -21.524 -19.747  0.00  0.00    +0.000 C 
ATOM     30  C   UNL     1      35.973 -21.560 -19.722  0.00  0.00    +0.000 C 
ATOM     31  C   UNL     1      34.751 -22.112 -19.334  0.00  0.00    +0.000 C 
ENDBRANCH  24  26
ENDBRANCH  19  22
ENDBRANCH  18  19
ENDBRANCH   2  18
TORSDOF 7
ENDMDL
MODEL 3
REMARK VINA RESULT:     -13.4      3.712     11.008
REMARK  Name = 60870
REMARK  7 active torsions:
REMARK  status: ('A' for Active; 'I' for Inactive)
REMARK    1  A    between atoms: C_2  and  C_4
REMARK    2  A    between atoms: C_2  and  C_18
REMARK    3  A    between atoms: C_3  and  C_9
REMARK    4  A    between atoms: C_9  and  C_14
REMARK    5  A    between atoms: C_18  and  C_19
REMARK    6  A    between atoms: C_19  and  C_22
REMARK    7  A    between atoms: C_24  and  C_26
REMARK                            x       y       z     vdW  Elec       q    Type
REMARK                         _______ _______ _______ _____ _____    ______ ____
ROOT
ATOM      1  O   UNL     1      37.190 -19.587 -20.561  0.00  0.00    -0.291 OA
ATOM      2  C   UNL     1      36.008 -19.861 -20.855  0.00  0.00    +0.173 C 
ENDROOT
BRANCH   2   4
ATOM      3  C   UNL     1      33.758 -22.544 -18.484  0.00  0.00    -0.021 C 
ATOM      4  C   UNL     1      35.234 -20.784 -20.038  0.00  0.00    +0.035 C 
ATOM      5  C   UNL     1      35.135 -22.485 -18.326  0.00  0.00    -0.004 C 
ATOM      6  C   UNL     1      33.107 -21.738 -19.406  0.00  0.00    -0.004 C 
ATOM      7  C   UNL     1      35.877 -21.599 -19.108  0.00  0.00    +0.003 C 
ATOM      8  C   UNL     1      33.849 -20.852 -20.187  0.00  0.00    +0.003 C 
BRANCH   3   9
ATOM      9  C   UNL     1      32.956 -23.500 -17.639  0.00  0.00    +0.047 C 
BRANCH   9  14
ATOM     10  S   UNL     1      32.964 -23.582 -14.886  0.00  0.00    -0.048 S 
ATOM     11  O   UNL     1      30.116 -22.593 -17.295  0.00  0.00    -0.274 OA
ATOM     12  O   UNL     1      31.151 -24.491 -13.214  0.00  0.00    -0.263 OA
ATOM     13  N   UNL     1      30.432 -23.556 -15.217  0.00  0.00    -0.246 N 
ATOM     14  C   UNL     1      32.359 -22.817 -16.422  0.00  0.00    +0.137 C 
ATOM     15  C   UNL     1      30.854 -22.964 -16.389  0.00  0.00    +0.239 C 
ATOM     16  C   UNL     1      31.360 -23.954 -14.291  0.00  0.00    +0.279 C 
ATOM     17  H   UNL     1      29.472 -23.692 -15.047  0.00  0.00    +0.158 HD
ENDBRANCH   9  14
ENDBRANCH   3   9
ENDBRANCH   2   4
BRANCH   2  18
ATOM     18  C   UNL     1      35.369 -19.210 -22.096  0.00  0.00    +0.076 C 
BRANCH  18  19
ATOM     19  C   UNL     1      36.119 -17.969 -22.588  0.00  0.00    +0.066 C 
BRANCH  19  22
ATOM     20  O   UNL     1      33.852 -15.519 -24.068  0.00  0.00    -0.449 OA
ATOM     21  N   UNL     1      34.823 -15.928 -22.066  0.00  0.00    -0.373 NA
ATOM     22  C   UNL     1      35.188 -16.861 -22.982  0.00  0.00    +0.130 C 
ATOM     23  C   UNL     1      34.619 -16.638 -24.190  0.00  0.00    +0.216 C 
ATOM     24  C   UNL     1      34.027 -15.153 -22.769  0.00  0.00    +0.277 C 
ATOM     25  C   UNL     1      34.644 -17.290 -25.504  0.00  0.00    +0.055 C 
BRANCH  24  26
ATOM     26  C   UNL     1      33.313 -13.974 -22.364  0.00  0.00    +0.066 C 
ATOM     27  C   UNL     1      32.750 -13.896 -21.087  0.00  0.00    +0.006 C 
ATOM     28  C   UNL     1      33.176 -12.898 -23.246  0.00  0.00    +0.006 C 
ATOM     29  C   UNL     1      32.055 -12.751 -20.694  0.00  0.00    +0.000 C 
ATOM     30  C   UNL     1      32.481 -11.753 -22.853  0.00  0.00    +0.000 C 
ATOM     31  C   UNL     1      31.921 -11.681 -21.578  0.00  0.00    +0.000 C 
ENDBRANCH  24  26
ENDBRANCH  19  22
ENDBRANCH  18  19
ENDBRANCH   2  18
TORSDOF 7
ENDMDL
MODEL 4
REMARK VINA RESULT:     -13.4      3.710     11.096
REMARK  Name = 60870
REMARK  7 active torsions:
REMARK  status: ('A' for Active; 'I' for Inactive)
REMARK    1  A    between atoms: C_2  and  C_4
REMARK    2  A    between atoms: C_2  and  C_18
REMARK    3  A    between atoms: C_3  and  C_9
REMARK    4  A    between atoms: C_9  and  C_14
REMARK    5  A    between atoms: C_18  and  C_19
REMARK    6  A    between atoms: C_19  and  C_22
REMARK    7  A    between atoms: C_24  and  C_26
REMARK                            x       y       z     vdW  Elec       q    Type
REMARK                         _______ _______ _______ _____ _____    ______ ____
ROOT
ATOM      1  O   UNL     1      37.227 -19.648 -20.558  0.00  0.00    -0.291 OA
ATOM      2  C   UNL     1      36.030 -19.883 -20.821  0.00  0.00    +0.173 C 
ENDROOT
BRANCH   2   4
ATOM      3  C   UNL     1      33.786 -22.579 -18.461  0.00  0.00    -0.021 C 
ATOM      4  C   UNL     1      35.258 -20.812 -20.010  0.00  0.00    +0.035 C 
ATOM      5  C   UNL     1      33.135 -21.785 -19.394  0.00  0.00    -0.004 C 
ATOM      6  C   UNL     1      35.160 -22.505 -18.290  0.00  0.00    -0.004 C 
ATOM      7  C   UNL     1      33.876 -20.896 -20.173  0.00  0.00    +0.003 C 
ATOM      8  C   UNL     1      35.901 -21.616 -19.070  0.00  0.00    +0.003 C 
BRANCH   3   9
ATOM      9  C   UNL     1      32.986 -23.541 -17.620  0.00  0.00    +0.047 C 
BRANCH   9  14
ATOM     10  S   UNL     1      32.974 -23.674 -14.869  0.00  0.00    -0.048 S 
ATOM     11  O   UNL     1      30.165 -22.577 -17.278  0.00  0.00    -0.274 OA
ATOM     12  O   UNL     1      31.129 -24.573 -13.226  0.00  0.00    -0.263 OA
ATOM     13  N   UNL     1      30.445 -23.585 -15.216  0.00  0.00    -0.246 N 
ATOM     14  C   UNL     1      32.396 -22.868 -16.394  0.00  0.00    +0.137 C 
ATOM     15  C   UNL     1      30.888 -22.981 -16.373  0.00  0.00    +0.239 C 
ATOM     16  C   UNL     1      31.358 -24.021 -14.291  0.00  0.00    +0.279 C 
ATOM     17  H   UNL     1      29.481 -23.703 -15.054  0.00  0.00    +0.158 HD
ENDBRANCH   9  14
ENDBRANCH   3   9
ENDBRANCH   2   4
BRANCH   2  18
ATOM     18  C   UNL     1      35.369 -19.175 -22.019  0.00  0.00    +0.076 C 
BRANCH  18  19
ATOM     19  C   UNL     1      36.124 -17.926 -22.483  0.00  0.00    +0.066 C 
BRANCH  19  22
ATOM     20  O   UNL     1      33.864 -15.550 -24.088  0.00  0.00    -0.449 OA
ATOM     21  N   UNL     1      34.847 -15.848 -22.073  0.00  0.00    -0.373 NA
ATOM     22  C   UNL     1      35.198 -16.836 -22.934  0.00  0.00    +0.130 C 
ATOM     23  C   UNL     1      34.622 -16.680 -24.149  0.00  0.00    +0.216 C 
ATOM     24  C   UNL     1      34.051 -15.110 -22.814  0.00  0.00    +0.277 C 
ATOM     25  C   UNL     1      34.633 -17.407 -25.423  0.00  0.00    +0.055 C 
BRANCH  24  26
ATOM     26  C   UNL     1      33.348 -13.904 -22.474  0.00  0.00    +0.066 C 
ATOM     27  C   UNL     1      33.382 -12.803 -23.333  0.00  0.00    +0.006 C 
ATOM     28  C   UNL     1      32.627 -13.825 -21.278  0.00  0.00    +0.006 C 
ATOM     29  C   UNL     1      32.700 -11.631 -23.001  0.00  0.00    +0.000 C 
ATOM     30  C   UNL     1      31.945 -12.654 -20.946  0.00  0.00    +0.000 C 
ATOM     31  C   UNL     1      31.982 -11.557 -21.808  0.00  0.00    +0.000 C 
ENDBRANCH  24  26
ENDBRANCH  19  22
ENDBRANCH  18  19
ENDBRANCH   2  18
TORSDOF 7
ENDMDL
MODEL 5
REMARK VINA RESULT:     -13.2      5.077     12.185
REMARK  Name = 60870
REMARK  7 active torsions:
REMARK  status: ('A' for Active; 'I' for Inactive)
REMARK    1  A    between atoms: C_2  and  C_4
REMARK    2  A    between atoms: C_2  and  C_18
REMARK    3  A    between atoms: C_3  and  C_9
REMARK    4  A    between atoms: C_9  and  C_14
REMARK    5  A    between atoms: C_18  and  C_19
REMARK    6  A    between atoms: C_19  and  C_22
REMARK    7  A    between atoms: C_24  and  C_26
REMARK                            x       y       z     vdW  Elec       q    Type
REMARK                         _______ _______ _______ _____ _____    ______ ____
ROOT
ATOM      1  O   UNL     1      34.577 -15.890 -25.900  0.00  0.00    -0.291 OA
ATOM      2  C   UNL     1      34.608 -15.866 -24.653  0.00  0.00    +0.173 C 
ENDROOT
BRANCH   2   4
ATOM      3  C   UNL     1      35.192 -19.419 -22.436  0.00  0.00    -0.021 C 
ATOM      4  C   UNL     1      34.810 -17.089 -23.890  0.00  0.00    +0.035 C 
ATOM      5  C   UNL     1      34.869 -19.501 -23.782  0.00  0.00    -0.004 C 
ATOM      6  C   UNL     1      35.328 -18.192 -21.805  0.00  0.00    -0.004 C 
ATOM      7  C   UNL     1      34.677 -18.329 -24.514  0.00  0.00    +0.003 C 
ATOM      8  C   UNL     1      35.136 -17.019 -22.536  0.00  0.00    +0.003 C 
BRANCH   3   9
ATOM      9  C   UNL     1      35.401 -20.686 -21.646  0.00  0.00    +0.047 C 
BRANCH   9  14
ATOM     10  S   UNL     1      35.649 -21.724 -19.107  0.00  0.00    -0.048 S 
ATOM     11  O   UNL     1      32.491 -20.476 -20.942  0.00  0.00    -0.274 OA
ATOM     12  O   UNL     1      34.146 -23.467 -17.837  0.00  0.00    -0.263 OA
ATOM     13  N   UNL     1      33.125 -22.033 -19.355  0.00  0.00    -0.246 N 
ATOM     14  C   UNL     1      34.805 -20.590 -20.253  0.00  0.00    +0.137 C 
ATOM     15  C   UNL     1      33.350 -21.003 -20.244  0.00  0.00    +0.239 C 
ATOM     16  C   UNL     1      34.179 -22.558 -18.653  0.00  0.00    +0.279 C 
ATOM     17  H   UNL     1      32.217 -22.389 -19.226  0.00  0.00    +0.158 HD
ENDBRANCH   9  14
ENDBRANCH   3   9
ENDBRANCH   2   4
BRANCH   2  18
ATOM     18  C   UNL     1      34.432 -14.523 -23.920  0.00  0.00    +0.076 C 
BRANCH  18  19
ATOM     19  C   UNL     1      33.065 -13.874 -24.154  0.00  0.00    +0.066 C 
BRANCH  19  22
ATOM     20  O   UNL     1      32.220 -11.859 -21.229  0.00  0.00    -0.449 OA
ATOM     21  N   UNL     1      32.653 -11.546 -23.427  0.00  0.00    -0.373 NA
ATOM     22  C   UNL     1      32.728 -12.861 -23.100  0.00  0.00    +0.130 C 
ATOM     23  C   UNL     1      32.473 -13.075 -21.788  0.00  0.00    +0.216 C 
ATOM     24  C   UNL     1      32.346 -10.996 -22.273  0.00  0.00    +0.277 C 
ATOM     25  C   UNL     1      32.414 -14.242 -20.902  0.00  0.00    +0.055 C 
BRANCH  24  26
ATOM     26  C   UNL     1      32.126  -9.612 -21.954  0.00  0.00    +0.066 C 
ATOM     27  C   UNL     1      31.701  -8.720 -22.942  0.00  0.00    +0.006 C 
ATOM     28  C   UNL     1      32.338  -9.150 -20.651  0.00  0.00    +0.006 C 
ATOM     29  C   UNL     1      31.489  -7.377 -22.632  0.00  0.00    +0.000 C 
ATOM     30  C   UNL     1      32.125  -7.806 -20.341  0.00  0.00    +0.000 C 
ATOM     31  C   UNL     1      31.701  -6.920 -21.332  0.00  0.00    +0.000 C 
ENDBRANCH  24  26
ENDBRANCH  19  22
ENDBRANCH  18  19
ENDBRANCH   2  18
TORSDOF 7
ENDMDL
MODEL 6
REMARK VINA RESULT:     -13.0      8.005     14.609
REMARK  Name = 60870
REMARK  7 active torsions:
REMARK  status: ('A' for Active; 'I' for Inactive)
REMARK    1  A    between atoms: C_2  and  C_4
REMARK    2  A    between atoms: C_2  and  C_18
REMARK    3  A    between atoms: C_3  and  C_9
REMARK    4  A    between atoms: C_9  and  C_14
REMARK    5  A    between atoms: C_18  and  C_19
REMARK    6  A    between atoms: C_19  and  C_22
REMARK    7  A    between atoms: C_24  and  C_26
REMARK                            x       y       z     vdW  Elec       q    Type
REMARK                         _______ _______ _______ _____ _____    ______ ____
ROOT
ATOM      1  O   UNL     1      30.371 -10.464 -22.426  0.00  0.00    -0.291 OA
ATOM      2  C   UNL     1      31.269 -10.925 -21.692  0.00  0.00    +0.173 C 
ENDROOT
BRANCH   2   4
ATOM      3  C   UNL     1      34.005 -13.792 -23.165  0.00  0.00    -0.021 C 
ATOM      4  C   UNL     1      32.211 -11.911 -22.198  0.00  0.00    +0.035 C 
ATOM      5  C   UNL     1      33.860 -12.584 -23.830  0.00  0.00    -0.004 C 
ATOM      6  C   UNL     1      33.269 -14.076 -22.024  0.00  0.00    -0.004 C 
ATOM      7  C   UNL     1      32.958 -11.638 -23.343  0.00  0.00    +0.003 C 
ATOM      8  C   UNL     1      32.366 -13.130 -21.538  0.00  0.00    +0.003 C 
BRANCH   3   9
ATOM      9  C   UNL     1      34.980 -14.815 -23.689  0.00  0.00    +0.047 C 
BRANCH   9  14
ATOM     10  S   UNL     1      35.061 -16.934 -21.932  0.00  0.00    -0.048 S 
ATOM     11  O   UNL     1      34.816 -16.957 -25.784  0.00  0.00    -0.274 OA
ATOM     12  O   UNL     1      36.399 -19.193 -22.066  0.00  0.00    -0.263 OA
ATOM     13  N   UNL     1      35.672 -18.226 -24.050  0.00  0.00    -0.246 N 
ATOM     14  C   UNL     1      34.471 -16.233 -23.504  0.00  0.00    +0.137 C 
ATOM     15  C   UNL     1      34.991 -17.153 -24.586  0.00  0.00    +0.239 C 
ATOM     16  C   UNL     1      35.825 -18.315 -22.691  0.00  0.00    +0.279 C 
ATOM     17  H   UNL     1      36.045 -18.921 -24.638  0.00  0.00    +0.158 HD
ENDBRANCH   9  14
ENDBRANCH   3   9
ENDBRANCH   2   4
BRANCH   2  18
ATOM     18  C   UNL     1      31.375 -10.436 -20.235  0.00  0.00    +0.076 C 
BRANCH  18  19
ATOM     19  C   UNL     1      32.637  -9.615 -19.956  0.00  0.00    +0.066 C 
BRANCH  19  22
ATOM     20  O   UNL     1      32.526  -6.310 -21.503  0.00  0.00    -0.449 OA
ATOM     21  N   UNL     1      33.228  -8.396 -22.025  0.00  0.00    -0.373 NA
ATOM     22  C   UNL     1      32.694  -8.362 -20.778  0.00  0.00    +0.130 C 
ATOM     23  C   UNL     1      32.266  -7.123 -20.442  0.00  0.00    +0.216 C 
ATOM     24  C   UNL     1      33.101  -7.145 -22.410  0.00  0.00    +0.277 C 
ATOM     25  C   UNL     1      31.630  -6.508 -19.271  0.00  0.00    +0.055 C 
BRANCH  24  26
ATOM     26  C   UNL     1      33.483  -6.531 -23.652  0.00  0.00    +0.066 C 
ATOM     27  C   UNL     1      34.740  -6.787 -24.206  0.00  0.00    +0.006 C 
ATOM     28  C   UNL     1      32.600  -5.672 -24.312  0.00  0.00    +0.006 C 
ATOM     29  C   UNL     1      35.112  -6.189 -25.411  0.00  0.00    +0.000 C 
ATOM     30  C   UNL     1      32.971  -5.074 -25.517  0.00  0.00    +0.000 C 
ATOM     31  C   UNL     1      34.227  -5.333 -26.065  0.00  0.00    +0.000 C 
ENDBRANCH  24  26
ENDBRANCH  19  22
ENDBRANCH  18  19
ENDBRANCH   2  18
TORSDOF 7
ENDMDL
MODEL 7
REMARK VINA RESULT:     -13.0      1.511      2.159
REMARK  Name = 60870
REMARK  7 active torsions:
REMARK  status: ('A' for Active; 'I' for Inactive)
REMARK    1  A    between atoms: C_2  and  C_4
REMARK    2  A    between atoms: C_2  and  C_18
REMARK    3  A    between atoms: C_3  and  C_9
REMARK    4  A    between atoms: C_9  and  C_14
REMARK    5  A    between atoms: C_18  and  C_19
REMARK    6  A    between atoms: C_19  and  C_22
REMARK    7  A    between atoms: C_24  and  C_26
REMARK                            x       y       z     vdW  Elec       q    Type
REMARK                         _______ _______ _______ _____ _____    ______ ____
ROOT
ATOM      1  O   UNL     1      36.463 -22.179 -18.454  0.00  0.00    -0.291 OA
ATOM      2  C   UNL     1      35.552 -21.937 -19.272  0.00  0.00    +0.173 C 
ENDROOT
BRANCH   2   4
ATOM      3  C   UNL     1      35.884 -18.708 -21.982  0.00  0.00    -0.021 C 
ATOM      4  C   UNL     1      35.667 -20.826 -20.205  0.00  0.00    +0.035 C 
ATOM      5  C   UNL     1      36.998 -19.107 -21.259  0.00  0.00    -0.004 C 
ATOM      6  C   UNL     1      34.663 -19.350 -21.833  0.00  0.00    -0.004 C 
ATOM      7  C   UNL     1      36.888 -20.173 -20.365  0.00  0.00    +0.003 C 
ATOM      8  C   UNL     1      34.554 -20.416 -20.939  0.00  0.00    +0.003 C 
BRANCH   3   9
ATOM      9  C   UNL     1      36.002 -17.557 -22.948  0.00  0.00    +0.047 C 
BRANCH   9  14
ATOM     10  S   UNL     1      34.389 -17.421 -25.177  0.00  0.00    -0.048 S 
ATOM     11  O   UNL     1      34.684 -14.962 -22.217  0.00  0.00    -0.274 OA
ATOM     12  O   UNL     1      33.824 -15.381 -26.735  0.00  0.00    -0.263 OA
ATOM     13  N   UNL     1      34.213 -14.970 -24.481  0.00  0.00    -0.246 N 
ATOM     14  C   UNL     1      34.643 -17.063 -23.411  0.00  0.00    +0.137 C 
ATOM     15  C   UNL     1      34.525 -15.561 -23.274  0.00  0.00    +0.239 C 
ATOM     16  C   UNL     1      34.090 -15.749 -25.601  0.00  0.00    +0.279 C 
ATOM     17  H   UNL     1      34.081 -13.997 -24.537  0.00  0.00    +0.158 HD
ENDBRANCH   9  14
ENDBRANCH   3   9
ENDBRANCH   2   4
BRANCH   2  18
ATOM     18  C   UNL     1      34.298 -22.830 -19.289  0.00  0.00    +0.076 C 
BRANCH  18  19
ATOM     19  C   UNL     1      33.269 -22.459 -18.217  0.00  0.00    +0.066 C 
BRANCH  19  22
ATOM     20  O   UNL     1      33.235 -24.217 -15.017  0.00  0.00    -0.449 OA
ATOM     21  N   UNL     1      34.736 -23.625 -16.602  0.00  0.00    -0.373 NA
ATOM     22  C   UNL     1      33.489 -23.206 -16.935  0.00  0.00    +0.130 C 
ATOM     23  C   UNL     1      32.571 -23.549 -16.001  0.00  0.00    +0.216 C 
ATOM     24  C   UNL     1      34.525 -24.220 -15.450  0.00  0.00    +0.277 C 
ATOM     25  C   UNL     1      31.124 -23.373 -15.829  0.00  0.00    +0.055 C 
BRANCH  24  26
ATOM     26  C   UNL     1      35.460 -24.877 -14.579  0.00  0.00    +0.066 C 
ATOM     27  C   UNL     1      36.329 -25.849 -15.083  0.00  0.00    +0.006 C 
ATOM     28  C   UNL     1      35.505 -24.549 -13.221  0.00  0.00    +0.006 C 
ATOM     29  C   UNL     1      37.236 -26.487 -14.237  0.00  0.00    +0.000 C 
ATOM     30  C   UNL     1      36.413 -25.187 -12.374  0.00  0.00    +0.000 C 
ATOM     31  C   UNL     1      37.278 -26.156 -12.883  0.00  0.00    +0.000 C 
ENDBRANCH  24  26
ENDBRANCH  19  22
ENDBRANCH  18  19
ENDBRANCH   2  18
TORSDOF 7
ENDMDL
MODEL 8
REMARK VINA RESULT:     -12.9      3.675     11.495
REMARK  Name = 60870
REMARK  7 active torsions:
REMARK  status: ('A' for Active; 'I' for Inactive)
REMARK    1  A    between atoms: C_2  and  C_4
REMARK    2  A    between atoms: C_2  and  C_18
REMARK    3  A    between atoms: C_3  and  C_9
REMARK    4  A    between atoms: C_9  and  C_14
REMARK    5  A    between atoms: C_18  and  C_19
REMARK    6  A    between atoms: C_19  and  C_22
REMARK    7  A    between atoms: C_24  and  C_26
REMARK                            x       y       z     vdW  Elec       q    Type
REMARK                         _______ _______ _______ _____ _____    ______ ____
ROOT
ATOM      1  O   UNL     1      37.089 -18.497 -22.384  0.00  0.00    -0.291 OA
ATOM      2  C   UNL     1      35.952 -18.433 -21.873  0.00  0.00    +0.173 C 
ENDROOT
BRANCH   2   4
ATOM      3  C   UNL     1      34.396 -21.676 -19.651  0.00  0.00    -0.021 C 
ATOM      4  C   UNL     1      35.416 -19.548 -21.108  0.00  0.00    +0.035 C 
ATOM      5  C   UNL     1      35.769 -21.496 -19.723  0.00  0.00    -0.004 C 
ATOM      6  C   UNL     1      33.524 -20.810 -20.295  0.00  0.00    -0.004 C 
ATOM      7  C   UNL     1      36.282 -20.425 -20.456  0.00  0.00    +0.003 C 
ATOM      8  C   UNL     1      34.037 -19.739 -21.027  0.00  0.00    +0.003 C 
BRANCH   3   9
ATOM      9  C   UNL     1      33.841 -22.831 -18.859  0.00  0.00    +0.047 C 
BRANCH   9  14
ATOM     10  S   UNL     1      34.749 -23.271 -16.295  0.00  0.00    -0.048 S 
ATOM     11  O   UNL     1      31.160 -22.578 -17.534  0.00  0.00    -0.274 OA
ATOM     12  O   UNL     1      33.734 -24.743 -14.369  0.00  0.00    -0.263 OA
ATOM     13  N   UNL     1      32.272 -23.720 -15.860  0.00  0.00    -0.246 N 
ATOM     14  C   UNL     1      33.570 -22.451 -17.414  0.00  0.00    +0.137 C 
ATOM     15  C   UNL     1      32.198 -22.905 -16.970  0.00  0.00    +0.239 C 
ATOM     16  C   UNL     1      33.499 -24.037 -15.338  0.00  0.00    +0.279 C 
ATOM     17  H   UNL     1      31.452 -24.071 -15.445  0.00  0.00    +0.158 HD
ENDBRANCH   9  14
ENDBRANCH   3   9
ENDBRANCH   2   4
BRANCH   2  18
ATOM     18  C   UNL     1      35.114 -17.153 -22.058  0.00  0.00    +0.076 C 
BRANCH  18  19
ATOM     19  C   UNL     1      35.044 -16.673 -23.510  0.00  0.00    +0.066 C 
BRANCH  19  22
ATOM     20  O   UNL     1      32.828 -13.922 -24.433  0.00  0.00    -0.449 OA
ATOM     21  N   UNL     1      34.014 -14.604 -22.631  0.00  0.00    -0.373 NA
ATOM     22  C   UNL     1      34.171 -15.464 -23.669  0.00  0.00    +0.130 C 
ATOM     23  C   UNL     1      33.470 -15.078 -24.760  0.00  0.00    +0.216 C 
ATOM     24  C   UNL     1      33.204 -13.704 -23.143  0.00  0.00    +0.277 C 
ATOM     25  C   UNL     1      33.264 -15.593 -26.119  0.00  0.00    +0.055 C 
BRANCH  24  26
ATOM     26  C   UNL     1      32.656 -12.522 -22.538  0.00  0.00    +0.066 C 
ATOM     27  C   UNL     1      32.050 -12.591 -21.280  0.00  0.00    +0.006 C 
ATOM     28  C   UNL     1      32.725 -11.295 -23.205  0.00  0.00    +0.006 C 
ATOM     29  C   UNL     1      31.517 -11.443 -20.693  0.00  0.00    +0.000 C 
ATOM     30  C   UNL     1      32.192 -10.147 -22.618  0.00  0.00    +0.000 C 
ATOM     31  C   UNL     1      31.588 -10.221 -21.362  0.00  0.00    +0.000 C 
ENDBRANCH  24  26
ENDBRANCH  19  22
ENDBRANCH  18  19
ENDBRANCH   2  18
TORSDOF 7
ENDMDL
MODEL 9
REMARK VINA RESULT:     -12.7      1.479      1.979
REMARK  Name = 60870
REMARK  7 active torsions:
REMARK  status: ('A' for Active; 'I' for Inactive)
REMARK    1  A    between atoms: C_2  and  C_4
REMARK    2  A    between atoms: C_2  and  C_18
REMARK    3  A    between atoms: C_3  and  C_9
REMARK    4  A    between atoms: C_9  and  C_14
REMARK    5  A    between atoms: C_18  and  C_19
REMARK    6  A    between atoms: C_19  and  C_22
REMARK    7  A    between atoms: C_24  and  C_26
REMARK                            x       y       z     vdW  Elec       q    Type
REMARK                         _______ _______ _______ _____ _____    ______ ____
ROOT
ATOM      1  O   UNL     1      31.804 -22.384 -18.146  0.00  0.00    -0.291 OA
ATOM      2  C   UNL     1      33.034 -22.469 -18.342  0.00  0.00    +0.173 C 
ENDROOT
BRANCH   2   4
ATOM      3  C   UNL     1      34.942 -20.023 -21.214  0.00  0.00    -0.021 C 
ATOM      4  C   UNL     1      33.690 -21.628 -19.331  0.00  0.00    +0.035 C 
ATOM      5  C   UNL     1      35.707 -20.859 -20.416  0.00  0.00    -0.004 C 
ATOM      6  C   UNL     1      33.562 -19.976 -21.088  0.00  0.00    -0.004 C 
ATOM      7  C   UNL     1      35.077 -21.667 -19.468  0.00  0.00    +0.003 C 
ATOM      8  C   UNL     1      32.932 -20.784 -20.141  0.00  0.00    +0.003 C 
BRANCH   3   9
ATOM      9  C   UNL     1      35.622 -19.151 -22.239  0.00  0.00    +0.047 C 
BRANCH   9  14
ATOM     10  S   UNL     1      34.596 -18.366 -24.672  0.00  0.00    -0.048 S 
ATOM     11  O   UNL     1      35.305 -16.255 -21.519  0.00  0.00    -0.274 OA
ATOM     12  O   UNL     1      35.140 -16.251 -26.134  0.00  0.00    -0.263 OA
ATOM     13  N   UNL     1      35.265 -16.052 -23.822  0.00  0.00    -0.246 N 
ATOM     14  C   UNL     1      34.661 -18.156 -22.865  0.00  0.00    +0.137 C 
ATOM     15  C   UNL     1      35.111 -16.732 -22.632  0.00  0.00    +0.239 C 
ATOM     16  C   UNL     1      35.044 -16.707 -25.005  0.00  0.00    +0.279 C 
ATOM     17  H   UNL     1      35.530 -15.104 -23.822  0.00  0.00    +0.158 HD
ENDBRANCH   9  14
ENDBRANCH   3   9
ENDBRANCH   2   4
BRANCH   2  18
ATOM     18  C   UNL     1      33.859 -23.478 -17.520  0.00  0.00    +0.076 C 
BRANCH  18  19
ATOM     19  C   UNL     1      33.527 -23.465 -16.026  0.00  0.00    +0.066 C 
BRANCH  19  22
ATOM     20  O   UNL     1      35.911 -24.697 -13.550  0.00  0.00    -0.449 OA
ATOM     21  N   UNL     1      35.888 -24.144 -15.743  0.00  0.00    -0.373 NA
ATOM     22  C   UNL     1      34.664 -23.967 -15.186  0.00  0.00    +0.130 C 
ATOM     23  C   UNL     1      34.651 -24.291 -13.872  0.00  0.00    +0.216 C 
ATOM     24  C   UNL     1      36.592 -24.579 -14.722  0.00  0.00    +0.277 C 
ATOM     25  C   UNL     1      33.651 -24.303 -12.798  0.00  0.00    +0.055 C 
BRANCH  24  26
ATOM     26  C   UNL     1      37.978 -24.951 -14.664  0.00  0.00    +0.066 C 
ATOM     27  C   UNL     1      38.881 -24.455 -15.608  0.00  0.00    +0.006 C 
ATOM     28  C   UNL     1      38.433 -25.814 -13.662  0.00  0.00    +0.006 C 
ATOM     29  C   UNL     1      40.227 -24.818 -15.552  0.00  0.00    +0.000 C 
ATOM     30  C   UNL     1      39.779 -26.177 -13.606  0.00  0.00    +0.000 C 
ATOM     31  C   UNL     1      40.676 -25.679 -14.552  0.00  0.00    +0.000 C 
ENDBRANCH  24  26
ENDBRANCH  19  22
ENDBRANCH  18  19
ENDBRANCH   2  18
TORSDOF 7
ENDMDL
