MODEL 1
REMARK VINA RESULT:     -13.6      0.000      0.000
REMARK  Name = 25101874
REMARK  5 active torsions:
REMARK  status: ('A' for Active; 'I' for Inactive)
REMARK    1  A    between atoms: N_1  and  C_22
REMARK    2  A    between atoms: C_2  and  N_8
REMARK    3  A    between atoms: N_8  and  C_11
REMARK    4  A    between atoms: C_11  and  C_14
REMARK    5  A    between atoms: C_22  and  C_28
REMARK                            x       y       z     vdW  Elec       q    Type
REMARK                         _______ _______ _______ _____ _____    ______ ____
ROOT
ATOM      1  N   UNL     1      36.071 -19.158 -22.564  0.00  0.00    +0.388 N 
ATOM      2  C   UNL     1      35.625 -20.547 -20.027  0.00  0.00    -0.066 C 
ATOM      3  C   UNL     1      34.711 -19.522 -22.144  0.00  0.00    -0.079 C 
ATOM      4  C   UNL     1      36.931 -18.883 -21.404  0.00  0.00    -0.079 C 
ATOM      5  C   UNL     1      34.723 -20.762 -21.246  0.00  0.00    -0.044 C 
ATOM      6  C   UNL     1      37.018 -20.102 -20.481  0.00  0.00    -0.044 C 
ATOM      7  H   UNL     1      36.466 -19.951 -23.067  0.00  0.00    -0.080 HD
ENDROOT
BRANCH   2   8
ATOM      8  N   UNL     1      35.701 -21.771 -19.233  0.00  0.00    +0.389 N 
ATOM      9  H   UNL     1      35.904 -21.529 -18.263  0.00  0.00    -0.084 HD
ATOM     10  H   UNL     1      36.441 -22.362 -19.613  0.00  0.00    -0.084 HD
BRANCH   8  11
ATOM     11  C   UNL     1      34.445 -22.503 -19.289  0.00  0.00    -0.034 C 
BRANCH  11  14
ATOM     12  O   UNL     1      32.785 -23.877 -14.127  0.00  0.00    -0.474 OA
ATOM     13  N   UNL     1      34.884 -23.197 -17.001  0.00  0.00    -0.247 NA
ATOM     14  C   UNL     1      33.946 -22.870 -17.916  0.00  0.00    +0.037 C 
ATOM     15  C   UNL     1      32.583 -22.855 -17.663  0.00  0.00    +0.011 C 
ATOM     16  C   UNL     1      32.144 -23.205 -16.385  0.00  0.00    +0.015 C 
ATOM     17  C   UNL     1      30.678 -23.206 -16.061  0.00  0.00    +0.033 C 
ATOM     18  C   UNL     1      33.092 -23.524 -15.411  0.00  0.00    +0.154 C 
ATOM     19  C   UNL     1      30.423 -23.983 -14.776  0.00  0.00    +0.052 C 
ATOM     20  C   UNL     1      34.433 -23.519 -15.768  0.00  0.00    +0.135 C 
ATOM     21  C   UNL     1      31.444 -23.569 -13.727  0.00  0.00    +0.206 C 
ENDBRANCH  11  14
ENDBRANCH   8  11
ENDBRANCH   2   8
BRANCH   1  22
ATOM     22  C   UNL     1      36.037 -18.003 -23.461  0.00  0.00    -0.055 C 
BRANCH  22  28
ATOM     23  O   UNL     1      34.903 -16.624 -20.575  0.00  0.00    -0.273 OA
ATOM     24  O   UNL     1      33.623 -15.103 -27.204  0.00  0.00    -0.270 OA
ATOM     25  N   UNL     1      34.542 -16.125 -22.827  0.00  0.00    -0.261 N 
ATOM     26  N   UNL     1      34.094 -15.588 -24.984  0.00  0.00    -0.255 N 
ATOM     27  N   UNL     1      34.269 -13.446 -22.044  0.00  0.00    -0.262 NA
ATOM     28  C   UNL     1      34.634 -17.414 -23.541  0.00  0.00    +0.076 C 
ATOM     29  C   UNL     1      34.244 -17.050 -25.000  0.00  0.00    +0.113 C 
ATOM     30  C   UNL     1      34.254 -15.136 -23.709  0.00  0.00    +0.196 C 
ATOM     31  C   UNL     1      34.127 -13.864 -23.342  0.00  0.00    +0.092 C 
ATOM     32  C   UNL     1      34.678 -15.850 -21.491  0.00  0.00    +0.252 C 
ATOM     33  C   UNL     1      33.789 -14.750 -26.040  0.00  0.00    +0.251 C 
ATOM     34  C   UNL     1      33.819 -12.904 -24.379  0.00  0.00    +0.022 C 
ATOM     35  C   UNL     1      34.524 -14.373 -21.167  0.00  0.00    +0.210 C 
ATOM     36  C   UNL     1      33.658 -13.297 -25.657  0.00  0.00    +0.059 C 
ENDBRANCH  22  28
ENDBRANCH   1  22
TORSDOF 5
ENDMDL
MODEL 2
REMARK VINA RESULT:     -13.3      2.060      3.056
REMARK  Name = 25101874
REMARK  5 active torsions:
REMARK  status: ('A' for Active; 'I' for Inactive)
REMARK    1  A    between atoms: N_1  and  C_22
REMARK    2  A    between atoms: C_2  and  N_8
REMARK    3  A    between atoms: N_8  and  C_11
REMARK    4  A    between atoms: C_11  and  C_14
REMARK    5  A    between atoms: C_22  and  C_28
REMARK                            x       y       z     vdW  Elec       q    Type
REMARK                         _______ _______ _______ _____ _____    ______ ____
ROOT
ATOM      1  N   UNL     1      36.229 -19.306 -22.362  0.00  0.00    +0.388 N 
ATOM      2  C   UNL     1      35.929 -20.609 -19.760  0.00  0.00    -0.066 C 
ATOM      3  C   UNL     1      34.898 -19.680 -21.866  0.00  0.00    -0.079 C 
ATOM      4  C   UNL     1      37.136 -18.973 -21.255  0.00  0.00    -0.079 C 
ATOM      5  C   UNL     1      34.977 -20.885 -20.926  0.00  0.00    -0.044 C 
ATOM      6  C   UNL     1      37.290 -20.155 -20.294  0.00  0.00    -0.044 C 
ATOM      7  H   UNL     1      36.617 -20.109 -22.855  0.00  0.00    -0.080 HD
ENDROOT
BRANCH   2   8
ATOM      8  N   UNL     1      36.067 -21.802 -18.927  0.00  0.00    +0.389 N 
ATOM      9  H   UNL     1      36.481 -22.551 -19.481  0.00  0.00    -0.084 HD
ATOM     10  H   UNL     1      35.142 -22.076 -18.594  0.00  0.00    -0.084 HD
BRANCH   8  11
ATOM     11  C   UNL     1      36.916 -21.533 -17.776  0.00  0.00    -0.034 C 
BRANCH  11  14
ATOM     12  O   UNL     1      36.300 -25.546 -13.928  0.00  0.00    -0.474 OA
ATOM     13  N   UNL     1      35.555 -23.021 -16.417  0.00  0.00    -0.247 NA
ATOM     14  C   UNL     1      36.804 -22.612 -16.732  0.00  0.00    +0.037 C 
ATOM     15  C   UNL     1      37.957 -23.122 -16.156  0.00  0.00    +0.011 C 
ATOM     16  C   UNL     1      37.828 -24.117 -15.186  0.00  0.00    +0.015 C 
ATOM     17  C   UNL     1      39.047 -24.700 -14.531  0.00  0.00    +0.033 C 
ATOM     18  C   UNL     1      36.551 -24.577 -14.857  0.00  0.00    +0.154 C 
ATOM     19  C   UNL     1      38.657 -25.449 -13.264  0.00  0.00    +0.052 C 
ATOM     20  C   UNL     1      35.459 -23.994 -15.484  0.00  0.00    +0.135 C 
ATOM     21  C   UNL     1      37.443 -26.321 -13.548  0.00  0.00    +0.206 C 
ENDBRANCH  11  14
ENDBRANCH   8  11
ENDBRANCH   2   8
BRANCH   1  22
ATOM     22  C   UNL     1      36.131 -18.185 -23.298  0.00  0.00    -0.055 C 
BRANCH  22  28
ATOM     23  O   UNL     1      35.034 -16.750 -20.424  0.00  0.00    -0.273 OA
ATOM     24  O   UNL     1      33.516 -15.488 -27.058  0.00  0.00    -0.270 OA
ATOM     25  N   UNL     1      34.593 -16.337 -22.680  0.00  0.00    -0.261 N 
ATOM     26  N   UNL     1      34.066 -15.885 -24.838  0.00  0.00    -0.255 N 
ATOM     27  N   UNL     1      34.254 -13.644 -21.974  0.00  0.00    -0.262 NA
ATOM     28  C   UNL     1      34.707 -17.645 -23.355  0.00  0.00    +0.076 C 
ATOM     29  C   UNL     1      34.264 -17.341 -24.812  0.00  0.00    +0.113 C 
ATOM     30  C   UNL     1      34.247 -15.387 -23.584  0.00  0.00    +0.196 C 
ATOM     31  C   UNL     1      34.089 -14.108 -23.254  0.00  0.00    +0.092 C 
ATOM     32  C   UNL     1      34.757 -16.014 -21.358  0.00  0.00    +0.252 C 
ATOM     33  C   UNL     1      33.703 -15.092 -25.911  0.00  0.00    +0.251 C 
ATOM     34  C   UNL     1      33.719 -13.193 -24.311  0.00  0.00    +0.022 C 
ATOM     35  C   UNL     1      34.564 -14.533 -21.076  0.00  0.00    +0.210 C 
ATOM     36  C   UNL     1      33.536 -13.632 -25.570  0.00  0.00    +0.059 C 
ENDBRANCH  22  28
ENDBRANCH   1  22
TORSDOF 5
ENDMDL
MODEL 3
REMARK VINA RESULT:     -13.2      2.222     10.713
REMARK  Name = 25101874
REMARK  5 active torsions:
REMARK  status: ('A' for Active; 'I' for Inactive)
REMARK    1  A    between atoms: N_1  and  C_22
REMARK    2  A    between atoms: C_2  and  N_8
REMARK    3  A    between atoms: N_8  and  C_11
REMARK    4  A    between atoms: C_11  and  C_14
REMARK    5  A    between atoms: C_22  and  C_28
REMARK                            x       y       z     vdW  Elec       q    Type
REMARK                         _______ _______ _______ _____ _____    ______ ____
ROOT
ATOM      1  N   UNL     1      34.379 -22.571 -19.242  0.00  0.00    +0.388 N 
ATOM      2  C   UNL     1      34.762 -20.007 -20.598  0.00  0.00    -0.066 C 
ATOM      3  C   UNL     1      35.698 -21.922 -19.249  0.00  0.00    -0.079 C 
ATOM      4  C   UNL     1      33.297 -21.578 -19.274  0.00  0.00    -0.079 C 
ATOM      5  C   UNL     1      35.878 -21.049 -20.494  0.00  0.00    -0.044 C 
ATOM      6  C   UNL     1      33.396 -20.694 -20.520  0.00  0.00    -0.044 C 
ATOM      7  H   UNL     1      34.307 -23.142 -20.084  0.00  0.00    -0.080 HD
ENDROOT
BRANCH   2   8
ATOM      8  N   UNL     1      34.894 -19.247 -21.840  0.00  0.00    +0.389 N 
ATOM      9  H   UNL     1      33.975 -18.908 -22.124  0.00  0.00    -0.084 HD
ATOM     10  H   UNL     1      35.285 -19.859 -22.557  0.00  0.00    -0.084 HD
BRANCH   8  11
ATOM     11  C   UNL     1      35.787 -18.112 -21.659  0.00  0.00    -0.034 C 
BRANCH  11  14
ATOM     12  O   UNL     1      33.405 -13.285 -23.178  0.00  0.00    -0.474 OA
ATOM     13  N   UNL     1      35.468 -16.262 -23.204  0.00  0.00    -0.247 NA
ATOM     14  C   UNL     1      35.121 -16.811 -22.019  0.00  0.00    +0.037 C 
ATOM     15  C   UNL     1      34.208 -16.250 -21.140  0.00  0.00    +0.011 C 
ATOM     16  C   UNL     1      33.608 -15.040 -21.493  0.00  0.00    +0.015 C 
ATOM     17  C   UNL     1      32.613 -14.391 -20.575  0.00  0.00    +0.033 C 
ATOM     18  C   UNL     1      33.929 -14.462 -22.723  0.00  0.00    +0.154 C 
ATOM     19  C   UNL     1      32.406 -12.934 -20.967  0.00  0.00    +0.052 C 
ATOM     20  C   UNL     1      34.864 -15.098 -23.527  0.00  0.00    +0.135 C 
ATOM     21  C   UNL     1      32.238 -12.839 -22.476  0.00  0.00    +0.206 C 
ENDBRANCH  11  14
ENDBRANCH   8  11
ENDBRANCH   2   8
BRANCH   1  22
ATOM     22  C   UNL     1      34.243 -23.439 -18.073  0.00  0.00    -0.055 C 
BRANCH  22  28
ATOM     23  O   UNL     1      31.371 -23.043 -16.308  0.00  0.00    -0.273 OA
ATOM     24  O   UNL     1      37.977 -23.490 -14.290  0.00  0.00    -0.270 OA
ATOM     25  N   UNL     1      33.611 -23.245 -15.681  0.00  0.00    -0.261 N 
ATOM     26  N   UNL     1      35.760 -23.389 -14.970  0.00  0.00    -0.255 N 
ATOM     27  N   UNL     1      32.696 -24.491 -13.340  0.00  0.00    -0.262 NA
ATOM     28  C   UNL     1      34.391 -22.644 -16.781  0.00  0.00    +0.076 C 
ATOM     29  C   UNL     1      35.850 -22.672 -16.250  0.00  0.00    +0.113 C 
ATOM     30  C   UNL     1      34.453 -23.661 -14.701  0.00  0.00    +0.196 C 
ATOM     31  C   UNL     1      34.023 -24.256 -13.592  0.00  0.00    +0.092 C 
ATOM     32  C   UNL     1      32.255 -23.390 -15.541  0.00  0.00    +0.252 C 
ATOM     33  C   UNL     1      36.785 -23.720 -14.105  0.00  0.00    +0.251 C 
ATOM     34  C   UNL     1      35.023 -24.652 -12.624  0.00  0.00    +0.022 C 
ATOM     35  C   UNL     1      31.858 -24.085 -14.249  0.00  0.00    +0.210 C 
ATOM     36  C   UNL     1      36.329 -24.414 -12.846  0.00  0.00    +0.059 C 
ENDBRANCH  22  28
ENDBRANCH   1  22
TORSDOF 5
ENDMDL
MODEL 4
REMARK VINA RESULT:     -13.2      1.947     11.072
REMARK  Name = 25101874
REMARK  5 active torsions:
REMARK  status: ('A' for Active; 'I' for Inactive)
REMARK    1  A    between atoms: N_1  and  C_22
REMARK    2  A    between atoms: C_2  and  N_8
REMARK    3  A    between atoms: N_8  and  C_11
REMARK    4  A    between atoms: C_11  and  C_14
REMARK    5  A    between atoms: C_22  and  C_28
REMARK                            x       y       z     vdW  Elec       q    Type
REMARK                         _______ _______ _______ _____ _____    ______ ____
ROOT
ATOM      1  N   UNL     1      34.361 -22.513 -19.422  0.00  0.00    +0.388 N 
ATOM      2  C   UNL     1      35.099 -20.010 -20.744  0.00  0.00    -0.066 C 
ATOM      3  C   UNL     1      35.740 -22.011 -19.347  0.00  0.00    -0.079 C 
ATOM      4  C   UNL     1      33.396 -21.409 -19.516  0.00  0.00    -0.079 C 
ATOM      5  C   UNL     1      36.088 -21.167 -20.576  0.00  0.00    -0.044 C 
ATOM      6  C   UNL     1      33.665 -20.545 -20.750  0.00  0.00    -0.044 C 
ATOM      7  H   UNL     1      34.278 -23.076 -20.268  0.00  0.00    -0.080 HD
ENDROOT
BRANCH   2   8
ATOM      8  N   UNL     1      35.387 -19.273 -21.972  0.00  0.00    +0.389 N 
ATOM      9  H   UNL     1      34.727 -19.557 -22.696  0.00  0.00    -0.084 HD
ATOM     10  H   UNL     1      36.343 -19.482 -22.262  0.00  0.00    -0.084 HD
BRANCH   8  11
ATOM     11  C   UNL     1      35.270 -17.839 -21.755  0.00  0.00    -0.034 C 
BRANCH  11  14
ATOM     12  O   UNL     1      33.928 -15.295 -26.553  0.00  0.00    -0.474 OA
ATOM     13  N   UNL     1      34.999 -17.807 -24.171  0.00  0.00    -0.247 NA
ATOM     14  C   UNL     1      34.902 -17.108 -23.019  0.00  0.00    +0.037 C 
ATOM     15  C   UNL     1      34.492 -15.786 -22.943  0.00  0.00    +0.011 C 
ATOM     16  C   UNL     1      34.162 -15.127 -24.129  0.00  0.00    +0.015 C 
ATOM     17  C   UNL     1      33.714 -13.694 -24.100  0.00  0.00    +0.033 C 
ATOM     18  C   UNL     1      34.229 -15.831 -25.332  0.00  0.00    +0.154 C 
ATOM     19  C   UNL     1      33.797 -13.088 -25.494  0.00  0.00    +0.052 C 
ATOM     20  C   UNL     1      34.661 -17.149 -25.303  0.00  0.00    +0.135 C 
ATOM     21  C   UNL     1      33.202 -14.061 -26.501  0.00  0.00    +0.206 C 
ENDBRANCH  11  14
ENDBRANCH   8  11
ENDBRANCH   2   8
BRANCH   1  22
ATOM     22  C   UNL     1      34.062 -23.359 -18.266  0.00  0.00    -0.055 C 
BRANCH  22  28
ATOM     23  O   UNL     1      31.220 -22.987 -16.448  0.00  0.00    -0.273 OA
ATOM     24  O   UNL     1      37.857 -23.476 -14.546  0.00  0.00    -0.270 OA
ATOM     25  N   UNL     1      33.470 -23.202 -15.860  0.00  0.00    -0.261 N 
ATOM     26  N   UNL     1      35.630 -23.360 -15.188  0.00  0.00    -0.255 N 
ATOM     27  N   UNL     1      32.591 -24.484 -13.526  0.00  0.00    -0.262 NA
ATOM     28  C   UNL     1      34.232 -22.585 -16.964  0.00  0.00    +0.076 C 
ATOM     29  C   UNL     1      35.699 -22.623 -16.458  0.00  0.00    +0.113 C 
ATOM     30  C   UNL     1      34.327 -23.635 -14.902  0.00  0.00    +0.196 C 
ATOM     31  C   UNL     1      33.914 -24.246 -13.795  0.00  0.00    +0.092 C 
ATOM     32  C   UNL     1      32.116 -23.347 -15.701  0.00  0.00    +0.252 C 
ATOM     33  C   UNL     1      36.668 -23.707 -14.345  0.00  0.00    +0.251 C 
ATOM     34  C   UNL     1      34.929 -24.660 -12.851  0.00  0.00    +0.022 C 
ATOM     35  C   UNL     1      31.739 -24.062 -14.414  0.00  0.00    +0.210 C 
ATOM     36  C   UNL     1      36.232 -24.420 -13.090  0.00  0.00    +0.059 C 
ENDBRANCH  22  28
ENDBRANCH   1  22
TORSDOF 5
ENDMDL
MODEL 5
REMARK VINA RESULT:     -13.2      1.789      3.434
REMARK  Name = 25101874
REMARK  5 active torsions:
REMARK  status: ('A' for Active; 'I' for Inactive)
REMARK    1  A    between atoms: N_1  and  C_22
REMARK    2  A    between atoms: C_2  and  N_8
REMARK    3  A    between atoms: N_8  and  C_11
REMARK    4  A    between atoms: C_11  and  C_14
REMARK    5  A    between atoms: C_22  and  C_28
REMARK                            x       y       z     vdW  Elec       q    Type
REMARK                         _______ _______ _______ _____ _____    ______ ____
ROOT
ATOM      1  N   UNL     1      34.860 -19.176 -21.620  0.00  0.00    +0.388 N 
ATOM      2  C   UNL     1      35.284 -21.495 -19.887  0.00  0.00    -0.066 C 
ATOM      3  C   UNL     1      36.179 -19.820 -21.547  0.00  0.00    -0.079 C 
ATOM      4  C   UNL     1      33.780 -20.148 -21.401  0.00  0.00    -0.079 C 
ATOM      5  C   UNL     1      36.395 -20.486 -20.186  0.00  0.00    -0.044 C 
ATOM      6  C   UNL     1      33.915 -20.825 -20.034  0.00  0.00    -0.044 C 
ATOM      7  H   UNL     1      34.810 -18.479 -20.877  0.00  0.00    -0.080 HD
ENDROOT
BRANCH   2   8
ATOM      8  N   UNL     1      35.452 -22.050 -18.546  0.00  0.00    +0.389 N 
ATOM      9  H   UNL     1      35.622 -21.289 -17.888  0.00  0.00    -0.084 HD
ATOM     10  H   UNL     1      36.243 -22.695 -18.556  0.00  0.00    -0.084 HD
BRANCH   8  11
ATOM     11  C   UNL     1      34.262 -22.779 -18.135  0.00  0.00    -0.034 C 
BRANCH  11  14
ATOM     12  O   UNL     1      34.271 -24.286 -12.748  0.00  0.00    -0.474 OA
ATOM     13  N   UNL     1      33.159 -23.586 -16.124  0.00  0.00    -0.247 NA
ATOM     14  C   UNL     1      34.317 -23.169 -16.681  0.00  0.00    +0.037 C 
ATOM     15  C   UNL     1      35.521 -23.083 -16.001  0.00  0.00    +0.011 C 
ATOM     16  C   UNL     1      35.546 -23.444 -14.652  0.00  0.00    +0.015 C 
ATOM     17  C   UNL     1      36.825 -23.367 -13.871  0.00  0.00    +0.033 C 
ATOM     18  C   UNL     1      34.369 -23.902 -14.056  0.00  0.00    +0.154 C 
ATOM     19  C   UNL     1      36.533 -23.418 -12.377  0.00  0.00    +0.052 C 
ATOM     20  C   UNL     1      33.213 -23.942 -14.821  0.00  0.00    +0.135 C 
ATOM     21  C   UNL     1      35.526 -24.524 -12.099  0.00  0.00    +0.206 C 
ENDBRANCH  11  14
ENDBRANCH   8  11
ENDBRANCH   2   8
BRANCH   1  22
ATOM     22  C   UNL     1      34.690 -18.502 -22.907  0.00  0.00    -0.055 C 
BRANCH  22  28
ATOM     23  O   UNL     1      35.317 -17.082 -25.925  0.00  0.00    -0.273 OA
ATOM     24  O   UNL     1      33.256 -14.355 -19.907  0.00  0.00    -0.270 OA
ATOM     25  N   UNL     1      34.579 -16.222 -23.883  0.00  0.00    -0.261 N 
ATOM     26  N   UNL     1      33.901 -15.283 -21.934  0.00  0.00    -0.255 N 
ATOM     27  N   UNL     1      33.143 -14.322 -25.363  0.00  0.00    -0.262 NA
ATOM     28  C   UNL     1      35.202 -17.068 -22.845  0.00  0.00    +0.076 C 
ATOM     29  C   UNL     1      34.801 -16.368 -21.518  0.00  0.00    +0.113 C 
ATOM     30  C   UNL     1      33.844 -15.246 -23.294  0.00  0.00    +0.196 C 
ATOM     31  C   UNL     1      33.158 -14.346 -23.993  0.00  0.00    +0.092 C 
ATOM     32  C   UNL     1      34.677 -16.293 -25.249  0.00  0.00    +0.252 C 
ATOM     33  C   UNL     1      33.232 -14.376 -21.134  0.00  0.00    +0.251 C 
ATOM     34  C   UNL     1      32.413 -13.357 -23.245  0.00  0.00    +0.022 C 
ATOM     35  C   UNL     1      33.857 -15.231 -25.962  0.00  0.00    +0.210 C 
ATOM     36  C   UNL     1      32.429 -13.354 -21.899  0.00  0.00    +0.059 C 
ENDBRANCH  22  28
ENDBRANCH   1  22
TORSDOF 5
ENDMDL
MODEL 6
REMARK VINA RESULT:     -13.1      2.545      4.224
REMARK  Name = 25101874
REMARK  5 active torsions:
REMARK  status: ('A' for Active; 'I' for Inactive)
REMARK    1  A    between atoms: N_1  and  C_22
REMARK    2  A    between atoms: C_2  and  N_8
REMARK    3  A    between atoms: N_8  and  C_11
REMARK    4  A    between atoms: C_11  and  C_14
REMARK    5  A    between atoms: C_22  and  C_28
REMARK                            x       y       z     vdW  Elec       q    Type
REMARK                         _______ _______ _______ _____ _____    ______ ____
ROOT
ATOM      1  N   UNL     1      34.855 -19.219 -21.589  0.00  0.00    +0.388 N 
ATOM      2  C   UNL     1      35.137 -21.518 -19.802  0.00  0.00    -0.066 C 
ATOM      3  C   UNL     1      36.149 -19.900 -21.451  0.00  0.00    -0.079 C 
ATOM      4  C   UNL     1      33.738 -20.155 -21.400  0.00  0.00    -0.079 C 
ATOM      5  C   UNL     1      36.289 -20.547 -20.071  0.00  0.00    -0.044 C 
ATOM      6  C   UNL     1      33.796 -20.810 -20.017  0.00  0.00    -0.044 C 
ATOM      7  H   UNL     1      34.796 -18.508 -20.861  0.00  0.00    -0.080 HD
ENDROOT
BRANCH   2   8
ATOM      8  N   UNL     1      35.233 -22.053 -18.446  0.00  0.00    +0.389 N 
ATOM      9  H   UNL     1      35.071 -23.060 -18.471  0.00  0.00    -0.084 HD
ATOM     10  H   UNL     1      34.531 -21.595 -17.864  0.00  0.00    -0.084 HD
BRANCH   8  11
ATOM     11  C   UNL     1      36.548 -21.795 -17.880  0.00  0.00    -0.034 C 
BRANCH  11  14
ATOM     12  O   UNL     1      37.191 -24.603 -13.085  0.00  0.00    -0.474 OA
ATOM     13  N   UNL     1      35.782 -22.513 -15.687  0.00  0.00    -0.247 NA
ATOM     14  C   UNL     1      36.772 -22.564 -16.605  0.00  0.00    +0.037 C 
ATOM     15  C   UNL     1      37.953 -23.269 -16.436  0.00  0.00    +0.011 C 
ATOM     16  C   UNL     1      38.140 -23.970 -15.243  0.00  0.00    +0.015 C 
ATOM     17  C   UNL     1      39.403 -24.748 -15.011  0.00  0.00    +0.033 C 
ATOM     18  C   UNL     1      37.124 -23.955 -14.286  0.00  0.00    +0.154 C 
ATOM     19  C   UNL     1      39.553 -25.082 -13.533  0.00  0.00    +0.052 C 
ATOM     20  C   UNL     1      35.983 -23.210 -14.547  0.00  0.00    +0.135 C 
ATOM     21  C   UNL     1      38.223 -25.592 -12.996  0.00  0.00    +0.206 C 
ENDBRANCH  11  14
ENDBRANCH   8  11
ENDBRANCH   2   8
BRANCH   1  22
ATOM     22  C   UNL     1      34.758 -18.563 -22.894  0.00  0.00    -0.055 C 
BRANCH  22  28
ATOM     23  O   UNL     1      35.365 -17.111 -25.901  0.00  0.00    -0.273 OA
ATOM     24  O   UNL     1      33.280 -14.459 -19.857  0.00  0.00    -0.270 OA
ATOM     25  N   UNL     1      34.620 -16.277 -23.851  0.00  0.00    -0.261 N 
ATOM     26  N   UNL     1      33.933 -15.362 -21.893  0.00  0.00    -0.255 N 
ATOM     27  N   UNL     1      33.160 -14.381 -25.313  0.00  0.00    -0.262 NA
ATOM     28  C   UNL     1      35.254 -17.124 -22.821  0.00  0.00    +0.076 C 
ATOM     29  C   UNL     1      34.846 -16.440 -21.487  0.00  0.00    +0.113 C 
ATOM     30  C   UNL     1      33.874 -15.315 -23.252  0.00  0.00    +0.196 C 
ATOM     31  C   UNL     1      33.177 -14.417 -23.943  0.00  0.00    +0.092 C 
ATOM     32  C   UNL     1      34.717 -16.335 -25.217  0.00  0.00    +0.252 C 
ATOM     33  C   UNL     1      33.254 -14.470 -21.085  0.00  0.00    +0.251 C 
ATOM     34  C   UNL     1      32.421 -13.443 -23.186  0.00  0.00    +0.022 C 
ATOM     35  C   UNL     1      33.883 -15.277 -25.921  0.00  0.00    +0.210 C 
ATOM     36  C   UNL     1      32.439 -13.451 -21.840  0.00  0.00    +0.059 C 
ENDBRANCH  22  28
ENDBRANCH   1  22
TORSDOF 5
ENDMDL
MODEL 7
REMARK VINA RESULT:     -13.0      1.235      2.714
REMARK  Name = 25101874
REMARK  5 active torsions:
REMARK  status: ('A' for Active; 'I' for Inactive)
REMARK    1  A    between atoms: N_1  and  C_22
REMARK    2  A    between atoms: C_2  and  N_8
REMARK    3  A    between atoms: N_8  and  C_11
REMARK    4  A    between atoms: C_11  and  C_14
REMARK    5  A    between atoms: C_22  and  C_28
REMARK                            x       y       z     vdW  Elec       q    Type
REMARK                         _______ _______ _______ _____ _____    ______ ____
ROOT
ATOM      1  N   UNL     1      34.930 -18.890 -21.908  0.00  0.00    +0.388 N 
ATOM      2  C   UNL     1      35.241 -21.230 -20.180  0.00  0.00    -0.066 C 
ATOM      3  C   UNL     1      36.249 -19.510 -21.725  0.00  0.00    -0.079 C 
ATOM      4  C   UNL     1      33.854 -19.886 -21.805  0.00  0.00    -0.079 C 
ATOM      5  C   UNL     1      36.354 -20.194 -20.360  0.00  0.00    -0.044 C 
ATOM      6  C   UNL     1      33.878 -20.583 -20.442  0.00  0.00    -0.044 C 
ATOM      7  H   UNL     1      34.799 -18.207 -21.163  0.00  0.00    -0.080 HD
ENDROOT
BRANCH   2   8
ATOM      8  N   UNL     1      35.297 -21.804 -18.837  0.00  0.00    +0.389 N 
ATOM      9  H   UNL     1      34.946 -21.121 -18.166  0.00  0.00    -0.084 HD
ATOM     10  H   UNL     1      36.266 -22.044 -18.625  0.00  0.00    -0.084 HD
BRANCH   8  11
ATOM     11  C   UNL     1      34.489 -23.011 -18.757  0.00  0.00    -0.034 C 
BRANCH  11  14
ATOM     12  O   UNL     1      32.678 -23.838 -13.529  0.00  0.00    -0.474 OA
ATOM     13  N   UNL     1      34.863 -23.397 -16.386  0.00  0.00    -0.247 NA
ATOM     14  C   UNL     1      33.950 -23.235 -17.368  0.00  0.00    +0.037 C 
ATOM     15  C   UNL     1      32.579 -23.264 -17.169  0.00  0.00    +0.011 C 
ATOM     16  C   UNL     1      32.103 -23.479 -15.875  0.00  0.00    +0.015 C 
ATOM     17  C   UNL     1      30.626 -23.521 -15.607  0.00  0.00    +0.033 C 
ATOM     18  C   UNL     1      33.023 -23.626 -14.834  0.00  0.00    +0.154 C 
ATOM     19  C   UNL     1      30.355 -24.150 -14.247  0.00  0.00    +0.052 C 
ATOM     20  C   UNL     1      34.376 -23.591 -15.140  0.00  0.00    +0.135 C 
ATOM     21  C   UNL     1      31.308 -23.556 -13.220  0.00  0.00    +0.206 C 
ENDBRANCH  11  14
ENDBRANCH   8  11
ENDBRANCH   2   8
BRANCH   1  22
ATOM     22  C   UNL     1      34.864 -18.197 -23.195  0.00  0.00    -0.055 C 
BRANCH  22  28
ATOM     23  O   UNL     1      35.365 -16.567 -26.130  0.00  0.00    -0.273 OA
ATOM     24  O   UNL     1      33.193 -14.335 -19.948  0.00  0.00    -0.270 OA
ATOM     25  N   UNL     1      34.594 -15.878 -24.036  0.00  0.00    -0.261 N 
ATOM     26  N   UNL     1      33.876 -15.099 -22.031  0.00  0.00    -0.255 N 
ATOM     27  N   UNL     1      33.020 -13.994 -25.393  0.00  0.00    -0.262 NA
ATOM     28  C   UNL     1      35.282 -16.739 -23.054  0.00  0.00    +0.076 C 
ATOM     29  C   UNL     1      34.850 -16.145 -21.685  0.00  0.00    +0.113 C 
ATOM     30  C   UNL     1      33.802 -14.988 -23.386  0.00  0.00    +0.196 C 
ATOM     31  C   UNL     1      33.051 -14.096 -24.026  0.00  0.00    +0.092 C 
ATOM     32  C   UNL     1      34.682 -15.862 -25.404  0.00  0.00    +0.252 C 
ATOM     33  C   UNL     1      33.157 -14.287 -21.175  0.00  0.00    +0.251 C 
ATOM     34  C   UNL     1      32.250 -13.204 -23.217  0.00  0.00    +0.022 C 
ATOM     35  C   UNL     1      33.786 -14.817 -26.049  0.00  0.00    +0.210 C 
ATOM     36  C   UNL     1      32.281 -13.278 -21.873  0.00  0.00    +0.059 C 
ENDBRANCH  22  28
ENDBRANCH   1  22
TORSDOF 5
ENDMDL
MODEL 8
REMARK VINA RESULT:     -12.9      2.149     11.003
REMARK  Name = 25101874
REMARK  5 active torsions:
REMARK  status: ('A' for Active; 'I' for Inactive)
REMARK    1  A    between atoms: N_1  and  C_22
REMARK    2  A    between atoms: C_2  and  N_8
REMARK    3  A    between atoms: N_8  and  C_11
REMARK    4  A    between atoms: C_11  and  C_14
REMARK    5  A    between atoms: C_22  and  C_28
REMARK                            x       y       z     vdW  Elec       q    Type
REMARK                         _______ _______ _______ _____ _____    ______ ____
ROOT
ATOM      1  N   UNL     1      34.226 -22.678 -19.191  0.00  0.00    +0.388 N 
ATOM      2  C   UNL     1      34.487 -20.137 -20.617  0.00  0.00    -0.066 C 
ATOM      3  C   UNL     1      35.534 -22.019 -19.303  0.00  0.00    -0.079 C 
ATOM      4  C   UNL     1      33.134 -21.695 -19.164  0.00  0.00    -0.079 C 
ATOM      5  C   UNL     1      35.617 -21.168 -20.573  0.00  0.00    -0.044 C 
ATOM      6  C   UNL     1      33.137 -20.833 -20.430  0.00  0.00    -0.044 C 
ATOM      7  H   UNL     1      34.099 -23.265 -20.015  0.00  0.00    -0.080 HD
ENDROOT
BRANCH   2   8
ATOM      8  N   UNL     1      34.524 -19.399 -21.878  0.00  0.00    +0.389 N 
ATOM      9  H   UNL     1      33.625 -18.939 -22.023  0.00  0.00    -0.084 HD
ATOM     10  H   UNL     1      34.713 -20.057 -22.635  0.00  0.00    -0.084 HD
BRANCH   8  11
ATOM     11  C   UNL     1      35.577 -18.395 -21.859  0.00  0.00    -0.034 C 
BRANCH  11  14
ATOM     12  O   UNL     1      33.775 -13.349 -23.468  0.00  0.00    -0.474 OA
ATOM     13  N   UNL     1      34.954 -16.088 -21.409  0.00  0.00    -0.247 NA
ATOM     14  C   UNL     1      35.084 -17.056 -22.342  0.00  0.00    +0.037 C 
ATOM     15  C   UNL     1      34.794 -16.886 -23.687  0.00  0.00    +0.011 C 
ATOM     16  C   UNL     1      34.333 -15.638 -24.110  0.00  0.00    +0.015 C 
ATOM     17  C   UNL     1      34.003 -15.402 -25.556  0.00  0.00    +0.033 C 
ATOM     18  C   UNL     1      34.212 -14.610 -23.173  0.00  0.00    +0.154 C 
ATOM     19  C   UNL     1      33.165 -14.140 -25.706  0.00  0.00    +0.052 C 
ATOM     20  C   UNL     1      34.518 -14.886 -21.848  0.00  0.00    +0.135 C 
ATOM     21  C   UNL     1      33.774 -13.029 -24.864  0.00  0.00    +0.206 C 
ENDBRANCH  11  14
ENDBRANCH   8  11
ENDBRANCH   2   8
BRANCH   1  22
ATOM     22  C   UNL     1      34.181 -23.526 -18.000  0.00  0.00    -0.055 C 
BRANCH  22  28
ATOM     23  O   UNL     1      31.420 -22.946 -16.113  0.00  0.00    -0.273 OA
ATOM     24  O   UNL     1      38.086 -23.672 -14.397  0.00  0.00    -0.270 OA
ATOM     25  N   UNL     1      33.676 -23.244 -15.586  0.00  0.00    -0.261 N 
ATOM     26  N   UNL     1      35.847 -23.477 -14.974  0.00  0.00    -0.255 N 
ATOM     27  N   UNL     1      32.815 -24.386 -13.173  0.00  0.00    -0.262 NA
ATOM     28  C   UNL     1      34.429 -22.709 -16.737  0.00  0.00    +0.076 C 
ATOM     29  C   UNL     1      35.909 -22.796 -16.275  0.00  0.00    +0.113 C 
ATOM     30  C   UNL     1      34.543 -23.677 -14.637  0.00  0.00    +0.196 C 
ATOM     31  C   UNL     1      34.139 -24.223 -13.493  0.00  0.00    +0.092 C 
ATOM     32  C   UNL     1      32.322 -23.318 -15.379  0.00  0.00    +0.252 C 
ATOM     33  C   UNL     1      36.895 -23.838 -14.150  0.00  0.00    +0.251 C 
ATOM     34  C   UNL     1      35.163 -24.646 -12.564  0.00  0.00    +0.022 C 
ATOM     35  C   UNL     1      31.955 -23.961 -14.052  0.00  0.00    +0.210 C 
ATOM     36  C   UNL     1      36.467 -24.478 -12.852  0.00  0.00    +0.059 C 
ENDBRANCH  22  28
ENDBRANCH   1  22
TORSDOF 5
ENDMDL
MODEL 9
REMARK VINA RESULT:     -12.8      1.917     10.683
REMARK  Name = 25101874
REMARK  5 active torsions:
REMARK  status: ('A' for Active; 'I' for Inactive)
REMARK    1  A    between atoms: N_1  and  C_22
REMARK    2  A    between atoms: C_2  and  N_8
REMARK    3  A    between atoms: N_8  and  C_11
REMARK    4  A    between atoms: C_11  and  C_14
REMARK    5  A    between atoms: C_22  and  C_28
REMARK                            x       y       z     vdW  Elec       q    Type
REMARK                         _______ _______ _______ _____ _____    ______ ____
ROOT
ATOM      1  N   UNL     1      35.178 -22.065 -18.848  0.00  0.00    +0.388 N 
ATOM      2  C   UNL     1      35.129 -20.079 -20.996  0.00  0.00    -0.066 C 
ATOM      3  C   UNL     1      36.378 -21.278 -19.161  0.00  0.00    -0.079 C 
ATOM      4  C   UNL     1      33.953 -21.303 -19.129  0.00  0.00    -0.079 C 
ATOM      5  C   UNL     1      36.396 -20.858 -20.633  0.00  0.00    -0.044 C 
ATOM      6  C   UNL     1      33.889 -20.885 -20.600  0.00  0.00    -0.044 C 
ATOM      7  H   UNL     1      35.179 -22.890 -19.448  0.00  0.00    -0.080 HD
ENDROOT
BRANCH   2   8
ATOM      8  N   UNL     1      35.118 -19.770 -22.424  0.00  0.00    +0.389 N 
ATOM      9  H   UNL     1      34.168 -19.527 -22.706  0.00  0.00    -0.084 HD
ATOM     10  H   UNL     1      35.442 -20.589 -22.938  0.00  0.00    -0.084 HD
BRANCH   8  11
ATOM     11  C   UNL     1      36.004 -18.654 -22.719  0.00  0.00    -0.034 C 
BRANCH  11  14
ATOM     12  O   UNL     1      33.408 -14.851 -25.895  0.00  0.00    -0.474 OA
ATOM     13  N   UNL     1      34.845 -17.972 -24.745  0.00  0.00    -0.247 NA
ATOM     14  C   UNL     1      35.317 -17.592 -23.537  0.00  0.00    +0.037 C 
ATOM     15  C   UNL     1      35.206 -16.309 -23.026  0.00  0.00    +0.011 C 
ATOM     16  C   UNL     1      34.571 -15.340 -23.805  0.00  0.00    +0.015 C 
ATOM     17  C   UNL     1      34.426 -13.934 -23.297  0.00  0.00    +0.033 C 
ATOM     18  C   UNL     1      34.051 -15.708 -25.048  0.00  0.00    +0.154 C 
ATOM     19  C   UNL     1      34.077 -12.994 -24.443  0.00  0.00    +0.052 C 
ATOM     20  C   UNL     1      34.224 -17.018 -25.473  0.00  0.00    +0.135 C 
ATOM     21  C   UNL     1      32.984 -13.622 -25.294  0.00  0.00    +0.206 C 
ENDBRANCH  11  14
ENDBRANCH   8  11
ENDBRANCH   2   8
BRANCH   1  22
ATOM     22  C   UNL     1      35.201 -22.501 -17.452  0.00  0.00    -0.055 C 
BRANCH  22  28
ATOM     23  O   UNL     1      36.098 -24.708 -15.035  0.00  0.00    -0.273 OA
ATOM     24  O   UNL     1      29.892 -22.543 -17.203  0.00  0.00    -0.270 OA
ATOM     25  N   UNL     1      34.032 -23.909 -15.775  0.00  0.00    -0.261 N 
ATOM     26  N   UNL     1      31.977 -23.228 -16.449  0.00  0.00    -0.255 N 
ATOM     27  N   UNL     1      33.123 -24.234 -13.142  0.00  0.00    -0.262 NA
ATOM     28  C   UNL     1      34.204 -23.629 -17.214  0.00  0.00    +0.076 C 
ATOM     29  C   UNL     1      32.775 -23.245 -17.683  0.00  0.00    +0.113 C 
ATOM     30  C   UNL     1      32.753 -23.641 -15.409  0.00  0.00    +0.196 C 
ATOM     31  C   UNL     1      32.319 -23.790 -14.161  0.00  0.00    +0.092 C 
ATOM     32  C   UNL     1      34.932 -24.391 -14.860  0.00  0.00    +0.252 C 
ATOM     33  C   UNL     1      30.641 -22.909 -16.301  0.00  0.00    +0.251 C 
ATOM     34  C   UNL     1      30.933 -23.470 -13.900  0.00  0.00    +0.022 C 
ATOM     35  C   UNL     1      34.351 -24.522 -13.462  0.00  0.00    +0.210 C 
ATOM     36  C   UNL     1      30.125 -23.049 -14.891  0.00  0.00    +0.059 C 
ENDBRANCH  22  28
ENDBRANCH   1  22
TORSDOF 5
ENDMDL
