MODEL 1
REMARK VINA RESULT:     -14.0      0.000      0.000
REMARK  Name = 44141871
REMARK  6 active torsions:
REMARK  status: ('A' for Active; 'I' for Inactive)
REMARK    1  A    between atoms: C_1  and  C_10
REMARK    2  A    between atoms: C_4  and  O_20
REMARK    3  A    between atoms: C_9  and  C_13
REMARK    4  A    between atoms: C_13  and  C_15
REMARK    5  A    between atoms: O_20  and  C_21
REMARK    6  A    between atoms: C_21  and  C_23
REMARK                            x       y       z     vdW  Elec       q    Type
REMARK                         _______ _______ _______ _____ _____    ______ ____
ROOT
ATOM      1  C   UNL     1      35.021 -18.885 -22.425  0.00  0.00    +0.015 C 
ATOM      2  C   UNL     1      33.863 -19.503 -21.953  0.00  0.00    +0.004 C 
ATOM      3  C   UNL     1      36.253 -19.172 -21.836  0.00  0.00    +0.004 C 
ATOM      4  C   UNL     1      35.168 -20.694 -20.304  0.00  0.00    +0.139 C 
ATOM      5  C   UNL     1      33.937 -20.407 -20.894  0.00  0.00    +0.037 C 
ATOM      6  C   UNL     1      36.326 -20.076 -20.776  0.00  0.00    +0.037 C 
ENDROOT
BRANCH   1  10
ATOM      7  N   UNL     1      34.803 -18.349 -24.817  0.00  0.00    -0.236 N 
ATOM      8  N   UNL     1      34.752 -17.332 -25.695  0.00  0.00    -0.180 NA
ATOM      9  C   UNL     1      34.992 -16.579 -23.551  0.00  0.00    +0.018 C 
ATOM     10  C   UNL     1      34.945 -17.951 -23.521  0.00  0.00    +0.063 C 
ATOM     11  C   UNL     1      34.868 -16.253 -24.916  0.00  0.00    +0.115 C 
ATOM     12  H   UNL     1      34.742 -19.295 -25.086  0.00  0.00    +0.174 HD
BRANCH   9  13
ATOM     13  C   UNL     1      35.137 -15.646 -22.421  0.00  0.00    +0.056 C 
BRANCH  13  15
ATOM     14  N   UNL     1      32.236 -12.448 -22.348  0.00  0.00    -0.242 NA
ATOM     15  C   UNL     1      34.114 -14.518 -22.395  0.00  0.00    -0.015 C 
ATOM     16  C   UNL     1      34.149 -13.522 -23.365  0.00  0.00    +0.017 C 
ATOM     17  C   UNL     1      33.142 -14.480 -21.402  0.00  0.00    +0.017 C 
ATOM     18  C   UNL     1      33.197 -12.519 -23.297  0.00  0.00    +0.099 C 
ATOM     19  C   UNL     1      32.234 -13.434 -21.423  0.00  0.00    +0.099 C 
ENDBRANCH  13  15
ENDBRANCH   9  13
ENDBRANCH   1  10
BRANCH   4  20
ATOM     20  O   UNL     1      35.241 -21.584 -19.266  0.00  0.00    -0.468 OA
BRANCH  20  21
ATOM     21  C   UNL     1      34.343 -22.685 -19.302  0.00  0.00    +0.264 C 
BRANCH  21  23
ATOM     22  N   UNL     1      32.415 -22.868 -17.850  0.00  0.00    -0.406 NA
ATOM     23  C   UNL     1      33.764 -22.898 -17.943  0.00  0.00    +0.152 C 
ATOM     24  C   UNL     1      32.636 -23.278 -15.486  0.00  0.00    +0.026 C 
ATOM     25  C   UNL     1      31.856 -23.056 -16.640  0.00  0.00    +0.113 C 
ATOM     26  C   UNL     1      34.609 -23.107 -16.873  0.00  0.00    +0.031 C 
ATOM     27  C   UNL     1      34.030 -23.300 -15.626  0.00  0.00    +0.005 C 
ATOM     28  C   UNL     1      32.019 -23.470 -14.238  0.00  0.00    +0.002 C 
ATOM     29  C   UNL     1      30.471 -23.034 -16.500  0.00  0.00    +0.085 C 
ATOM     30  C   UNL     1      30.631 -23.443 -14.127  0.00  0.00    -0.004 C 
ATOM     31  C   UNL     1      29.857 -23.225 -15.259  0.00  0.00    -0.019 C 
ENDBRANCH  21  23
ENDBRANCH  20  21
ENDBRANCH   4  20
TORSDOF 6
ENDMDL
MODEL 2
REMARK VINA RESULT:     -13.9      2.575      3.720
REMARK  Name = 44141871
REMARK  6 active torsions:
REMARK  status: ('A' for Active; 'I' for Inactive)
REMARK    1  A    between atoms: C_1  and  C_10
REMARK    2  A    between atoms: C_4  and  O_20
REMARK    3  A    between atoms: C_9  and  C_13
REMARK    4  A    between atoms: C_13  and  C_15
REMARK    5  A    between atoms: O_20  and  C_21
REMARK    6  A    between atoms: C_21  and  C_23
REMARK                            x       y       z     vdW  Elec       q    Type
REMARK                         _______ _______ _______ _____ _____    ______ ____
ROOT
ATOM      1  C   UNL     1      35.201 -19.669 -21.542  0.00  0.00    +0.015 C 
ATOM      2  C   UNL     1      36.482 -19.918 -21.051  0.00  0.00    +0.004 C 
ATOM      3  C   UNL     1      34.098 -20.292 -20.958  0.00  0.00    +0.004 C 
ATOM      4  C   UNL     1      35.557 -21.412 -19.392  0.00  0.00    +0.139 C 
ATOM      5  C   UNL     1      36.660 -20.789 -19.976  0.00  0.00    +0.037 C 
ATOM      6  C   UNL     1      34.276 -21.163 -19.883  0.00  0.00    +0.037 C 
ENDROOT
BRANCH   1  10
ATOM      7  N   UNL     1      34.875 -19.204 -23.937  0.00  0.00    -0.236 N 
ATOM      8  N   UNL     1      34.716 -18.214 -24.832  0.00  0.00    -0.180 NA
ATOM      9  C   UNL     1      34.946 -17.398 -22.711  0.00  0.00    +0.018 C 
ATOM     10  C   UNL     1      35.017 -18.768 -22.653  0.00  0.00    +0.063 C 
ATOM     11  C   UNL     1      34.760 -17.113 -24.078  0.00  0.00    +0.115 C 
ATOM     12  H   UNL     1      34.888 -20.157 -24.186  0.00  0.00    +0.174 HD
BRANCH   9  13
ATOM     13  C   UNL     1      35.042 -16.432 -21.602  0.00  0.00    +0.056 C 
BRANCH  13  15
ATOM     14  N   UNL     1      32.575 -12.918 -22.066  0.00  0.00    -0.242 NA
ATOM     15  C   UNL     1      34.172 -15.193 -21.766  0.00  0.00    -0.015 C 
ATOM     16  C   UNL     1      34.415 -14.303 -22.807  0.00  0.00    +0.017 C 
ATOM     17  C   UNL     1      33.133 -14.948 -20.877  0.00  0.00    +0.017 C 
ATOM     18  C   UNL     1      33.595 -13.191 -22.911  0.00  0.00    +0.099 C 
ATOM     19  C   UNL     1      32.370 -13.807 -21.068  0.00  0.00    +0.099 C 
ENDBRANCH  13  15
ENDBRANCH   9  13
ENDBRANCH   1  10
BRANCH   4  20
ATOM     20  O   UNL     1      35.732 -22.265 -18.335  0.00  0.00    -0.468 OA
BRANCH  20  21
ATOM     21  C   UNL     1      36.788 -21.960 -17.433  0.00  0.00    +0.264 C 
BRANCH  21  23
ATOM     22  N   UNL     1      37.777 -23.463 -15.814  0.00  0.00    -0.406 NA
ATOM     23  C   UNL     1      36.661 -22.813 -16.215  0.00  0.00    +0.152 C 
ATOM     24  C   UNL     1      36.502 -24.391 -13.993  0.00  0.00    +0.026 C 
ATOM     25  C   UNL     1      37.702 -24.242 -14.719  0.00  0.00    +0.113 C 
ATOM     26  C   UNL     1      35.444 -22.897 -15.571  0.00  0.00    +0.031 C 
ATOM     27  C   UNL     1      35.369 -23.701 -14.443  0.00  0.00    +0.005 C 
ATOM     28  C   UNL     1      36.460 -25.213 -12.854  0.00  0.00    +0.002 C 
ATOM     29  C   UNL     1      38.828 -24.929 -14.272  0.00  0.00    +0.085 C 
ATOM     30  C   UNL     1      37.601 -25.889 -12.429  0.00  0.00    -0.004 C 
ATOM     31  C   UNL     1      38.786 -25.746 -13.139  0.00  0.00    -0.019 C 
ENDBRANCH  21  23
ENDBRANCH  20  21
ENDBRANCH   4  20
TORSDOF 6
ENDMDL
MODEL 3
REMARK VINA RESULT:     -13.8      5.574     10.017
REMARK  Name = 44141871
REMARK  6 active torsions:
REMARK  status: ('A' for Active; 'I' for Inactive)
REMARK    1  A    between atoms: C_1  and  C_10
REMARK    2  A    between atoms: C_4  and  O_20
REMARK    3  A    between atoms: C_9  and  C_13
REMARK    4  A    between atoms: C_13  and  C_15
REMARK    5  A    between atoms: O_20  and  C_21
REMARK    6  A    between atoms: C_21  and  C_23
REMARK                            x       y       z     vdW  Elec       q    Type
REMARK                         _______ _______ _______ _____ _____    ______ ____
ROOT
ATOM      1  C   UNL     1      32.399  -9.570 -21.613  0.00  0.00    +0.015 C 
ATOM      2  C   UNL     1      33.001  -9.818 -22.847  0.00  0.00    +0.004 C 
ATOM      3  C   UNL     1      31.776 -10.609 -20.921  0.00  0.00    +0.004 C 
ATOM      4  C   UNL     1      32.357 -12.142 -22.696  0.00  0.00    +0.139 C 
ATOM      5  C   UNL     1      32.980 -11.103 -23.388  0.00  0.00    +0.037 C 
ATOM      6  C   UNL     1      31.755 -11.894 -21.462  0.00  0.00    +0.037 C 
ENDROOT
BRANCH   1  10
ATOM      7  N   UNL     1      33.053  -7.948 -19.881  0.00  0.00    -0.236 N 
ATOM      8  N   UNL     1      32.962  -6.655 -19.524  0.00  0.00    -0.180 NA
ATOM      9  C   UNL     1      31.879  -7.059 -21.494  0.00  0.00    +0.018 C 
ATOM     10  C   UNL     1      32.422  -8.241 -21.053  0.00  0.00    +0.063 C 
ATOM     11  C   UNL     1      32.244  -6.117 -20.513  0.00  0.00    +0.115 C 
ATOM     12  H   UNL     1      33.533  -8.621 -19.346  0.00  0.00    +0.174 HD
BRANCH   9  13
ATOM     13  C   UNL     1      31.091  -6.817 -22.715  0.00  0.00    +0.056 C 
BRANCH  13  15
ATOM     14  N   UNL     1      33.128  -4.496 -25.734  0.00  0.00    -0.242 NA
ATOM     15  C   UNL     1      31.810  -5.999 -23.780  0.00  0.00    -0.015 C 
ATOM     16  C   UNL     1      31.209  -4.860 -24.308  0.00  0.00    +0.017 C 
ATOM     17  C   UNL     1      33.067  -6.386 -24.228  0.00  0.00    +0.017 C 
ATOM     18  C   UNL     1      31.904  -4.151 -25.274  0.00  0.00    +0.099 C 
ATOM     19  C   UNL     1      33.679  -5.608 -25.197  0.00  0.00    +0.099 C 
ENDBRANCH  13  15
ENDBRANCH   9  13
ENDBRANCH   1  10
BRANCH   4  20
ATOM     20  O   UNL     1      32.339 -13.404 -23.225  0.00  0.00    -0.468 OA
BRANCH  20  21
ATOM     21  C   UNL     1      33.186 -13.643 -24.342  0.00  0.00    +0.264 C 
BRANCH  21  23
ATOM     22  N   UNL     1      34.212 -15.344 -22.959  0.00  0.00    -0.406 NA
ATOM     23  C   UNL     1      33.822 -14.986 -24.204  0.00  0.00    +0.152 C 
ATOM     24  C   UNL     1      34.995 -17.429 -23.876  0.00  0.00    +0.026 C 
ATOM     25  C   UNL     1      34.790 -16.549 -22.794  0.00  0.00    +0.113 C 
ATOM     26  C   UNL     1      33.981 -15.778 -25.322  0.00  0.00    +0.031 C 
ATOM     27  C   UNL     1      34.577 -17.019 -25.150  0.00  0.00    +0.005 C 
ATOM     28  C   UNL     1      35.602 -18.680 -23.668  0.00  0.00    +0.002 C 
ATOM     29  C   UNL     1      35.206 -16.957 -21.530  0.00  0.00    +0.085 C 
ATOM     30  C   UNL     1      36.008 -19.063 -22.393  0.00  0.00    -0.004 C 
ATOM     31  C   UNL     1      35.809 -18.200 -21.322  0.00  0.00    -0.019 C 
ENDBRANCH  21  23
ENDBRANCH  20  21
ENDBRANCH   4  20
TORSDOF 6
ENDMDL
MODEL 4
REMARK VINA RESULT:     -13.6      1.731      2.582
REMARK  Name = 44141871
REMARK  6 active torsions:
REMARK  status: ('A' for Active; 'I' for Inactive)
REMARK    1  A    between atoms: C_1  and  C_10
REMARK    2  A    between atoms: C_4  and  O_20
REMARK    3  A    between atoms: C_9  and  C_13
REMARK    4  A    between atoms: C_13  and  C_15
REMARK    5  A    between atoms: O_20  and  C_21
REMARK    6  A    between atoms: C_21  and  C_23
REMARK                            x       y       z     vdW  Elec       q    Type
REMARK                         _______ _______ _______ _____ _____    ______ ____
ROOT
ATOM      1  C   UNL     1      35.457 -18.502 -22.664  0.00  0.00    +0.015 C 
ATOM      2  C   UNL     1      36.754 -18.441 -22.154  0.00  0.00    +0.004 C 
ATOM      3  C   UNL     1      34.531 -19.385 -22.108  0.00  0.00    +0.004 C 
ATOM      4  C   UNL     1      36.198 -20.145 -20.534  0.00  0.00    +0.139 C 
ATOM      5  C   UNL     1      37.125 -19.262 -21.090  0.00  0.00    +0.037 C 
ATOM      6  C   UNL     1      34.901 -20.206 -21.043  0.00  0.00    +0.037 C 
ENDROOT
BRANCH   1  10
ATOM      7  N   UNL     1      34.731 -18.145 -24.988  0.00  0.00    -0.236 N 
ATOM      8  N   UNL     1      34.406 -17.197 -25.884  0.00  0.00    -0.180 NA
ATOM      9  C   UNL     1      34.969 -16.286 -23.866  0.00  0.00    +0.018 C 
ATOM     10  C   UNL     1      35.074 -17.652 -23.765  0.00  0.00    +0.063 C 
ATOM     11  C   UNL     1      34.553 -16.063 -25.193  0.00  0.00    +0.115 C 
ATOM     12  H   UNL     1      34.720 -19.107 -25.197  0.00  0.00    +0.174 HD
BRANCH   9  13
ATOM     13  C   UNL     1      35.228 -15.273 -22.829  0.00  0.00    +0.056 C 
BRANCH  13  15
ATOM     14  N   UNL     1      32.124 -12.299 -22.413  0.00  0.00    -0.242 NA
ATOM     15  C   UNL     1      34.133 -14.224 -22.682  0.00  0.00    -0.015 C 
ATOM     16  C   UNL     1      33.171 -14.355 -21.687  0.00  0.00    +0.017 C 
ATOM     17  C   UNL     1      34.092 -13.132 -23.542  0.00  0.00    +0.017 C 
ATOM     18  C   UNL     1      32.196 -13.374 -21.596  0.00  0.00    +0.099 C 
ATOM     19  C   UNL     1      33.077 -12.206 -23.367  0.00  0.00    +0.099 C 
ENDBRANCH  13  15
ENDBRANCH   9  13
ENDBRANCH   1  10
BRANCH   4  20
ATOM     20  O   UNL     1      36.561 -20.949 -19.486  0.00  0.00    -0.468 OA
BRANCH  20  21
ATOM     21  C   UNL     1      35.608 -21.913 -19.058  0.00  0.00    +0.264 C 
BRANCH  21  23
ATOM     22  N   UNL     1      34.902 -22.935 -16.981  0.00  0.00    -0.406 NA
ATOM     23  C   UNL     1      35.894 -22.301 -17.646  0.00  0.00    +0.152 C 
ATOM     24  C   UNL     1      36.349 -23.040 -15.058  0.00  0.00    +0.026 C 
ATOM     25  C   UNL     1      35.123 -23.301 -15.704  0.00  0.00    +0.113 C 
ATOM     26  C   UNL     1      37.124 -22.002 -17.098  0.00  0.00    +0.031 C 
ATOM     27  C   UNL     1      37.350 -22.379 -15.782  0.00  0.00    +0.005 C 
ATOM     28  C   UNL     1      36.545 -23.436 -13.723  0.00  0.00    +0.002 C 
ATOM     29  C   UNL     1      34.129 -23.957 -14.983  0.00  0.00    +0.085 C 
ATOM     30  C   UNL     1      35.534 -24.089 -13.026  0.00  0.00    -0.004 C 
ATOM     31  C   UNL     1      34.324 -24.351 -13.657  0.00  0.00    -0.019 C 
ENDBRANCH  21  23
ENDBRANCH  20  21
ENDBRANCH   4  20
TORSDOF 6
ENDMDL
MODEL 5
REMARK VINA RESULT:     -13.4      1.248      2.239
REMARK  Name = 44141871
REMARK  6 active torsions:
REMARK  status: ('A' for Active; 'I' for Inactive)
REMARK    1  A    between atoms: C_1  and  C_10
REMARK    2  A    between atoms: C_4  and  O_20
REMARK    3  A    between atoms: C_9  and  C_13
REMARK    4  A    between atoms: C_13  and  C_15
REMARK    5  A    between atoms: O_20  and  C_21
REMARK    6  A    between atoms: C_21  and  C_23
REMARK                            x       y       z     vdW  Elec       q    Type
REMARK                         _______ _______ _______ _____ _____    ______ ____
ROOT
ATOM      1  C   UNL     1      35.193 -18.252 -22.746  0.00  0.00    +0.015 C 
ATOM      2  C   UNL     1      36.521 -18.265 -22.322  0.00  0.00    +0.004 C 
ATOM      3  C   UNL     1      34.248 -19.052 -22.103  0.00  0.00    +0.004 C 
ATOM      4  C   UNL     1      35.960 -19.876 -20.611  0.00  0.00    +0.139 C 
ATOM      5  C   UNL     1      36.905 -19.076 -21.254  0.00  0.00    +0.037 C 
ATOM      6  C   UNL     1      34.631 -19.863 -21.035  0.00  0.00    +0.037 C 
ENDROOT
BRANCH   1  10
ATOM      7  N   UNL     1      34.348 -17.919 -25.034  0.00  0.00    -0.236 N 
ATOM      8  N   UNL     1      34.028 -16.978 -25.940  0.00  0.00    -0.180 NA
ATOM      9  C   UNL     1      34.770 -16.046 -23.990  0.00  0.00    +0.018 C 
ATOM     10  C   UNL     1      34.797 -17.413 -23.850  0.00  0.00    +0.063 C 
ATOM     11  C   UNL     1      34.288 -15.837 -25.297  0.00  0.00    +0.115 C 
ATOM     12  H   UNL     1      34.264 -18.884 -25.209  0.00  0.00    +0.174 HD
BRANCH   9  13
ATOM     13  C   UNL     1      35.156 -15.021 -23.006  0.00  0.00    +0.056 C 
BRANCH  13  15
ATOM     14  N   UNL     1      31.851 -12.769 -21.375  0.00  0.00    -0.242 NA
ATOM     15  C   UNL     1      33.990 -14.227 -22.431  0.00  0.00    -0.015 C 
ATOM     16  C   UNL     1      33.429 -14.595 -21.213  0.00  0.00    +0.017 C 
ATOM     17  C   UNL     1      33.484 -13.132 -23.121  0.00  0.00    +0.017 C 
ATOM     18  C   UNL     1      32.370 -13.840 -20.733  0.00  0.00    +0.099 C 
ATOM     19  C   UNL     1      32.423 -12.442 -22.555  0.00  0.00    +0.099 C 
ENDBRANCH  13  15
ENDBRANCH   9  13
ENDBRANCH   1  10
BRANCH   4  20
ATOM     20  O   UNL     1      36.336 -20.670 -19.560  0.00  0.00    -0.468 OA
BRANCH  20  21
ATOM     21  C   UNL     1      36.030 -22.055 -19.662  0.00  0.00    +0.264 C 
BRANCH  21  23
ATOM     22  N   UNL     1      35.580 -22.789 -17.400  0.00  0.00    -0.406 NA
ATOM     23  C   UNL     1      35.057 -22.427 -18.593  0.00  0.00    +0.152 C 
ATOM     24  C   UNL     1      33.336 -23.123 -16.591  0.00  0.00    +0.026 C 
ATOM     25  C   UNL     1      34.734 -23.133 -16.411  0.00  0.00    +0.113 C 
ATOM     26  C   UNL     1      33.705 -22.388 -18.865  0.00  0.00    +0.031 C 
ATOM     27  C   UNL     1      32.835 -22.742 -17.844  0.00  0.00    +0.005 C 
ATOM     28  C   UNL     1      32.481 -23.487 -15.537  0.00  0.00    +0.002 C 
ATOM     29  C   UNL     1      35.231 -23.511 -15.166  0.00  0.00    +0.085 C 
ATOM     30  C   UNL     1      33.005 -23.862 -14.303  0.00  0.00    -0.004 C 
ATOM     31  C   UNL     1      34.382 -23.873 -14.117  0.00  0.00    -0.019 C 
ENDBRANCH  21  23
ENDBRANCH  20  21
ENDBRANCH   4  20
TORSDOF 6
ENDMDL
MODEL 6
REMARK VINA RESULT:     -13.3      4.422     11.888
REMARK  Name = 44141871
REMARK  6 active torsions:
REMARK  status: ('A' for Active; 'I' for Inactive)
REMARK    1  A    between atoms: C_1  and  C_10
REMARK    2  A    between atoms: C_4  and  O_20
REMARK    3  A    between atoms: C_9  and  C_13
REMARK    4  A    between atoms: C_13  and  C_15
REMARK    5  A    between atoms: O_20  and  C_21
REMARK    6  A    between atoms: C_21  and  C_23
REMARK                            x       y       z     vdW  Elec       q    Type
REMARK                         _______ _______ _______ _____ _____    ______ ____
ROOT
ATOM      1  C   UNL     1      33.452 -14.349 -23.339  0.00  0.00    +0.015 C 
ATOM      2  C   UNL     1      32.878 -14.423 -22.069  0.00  0.00    +0.004 C 
ATOM      3  C   UNL     1      33.398 -13.156 -24.059  0.00  0.00    +0.004 C 
ATOM      4  C   UNL     1      32.200 -12.110 -22.241  0.00  0.00    +0.139 C 
ATOM      5  C   UNL     1      32.253 -13.303 -21.520  0.00  0.00    +0.037 C 
ATOM      6  C   UNL     1      32.773 -12.037 -23.510  0.00  0.00    +0.037 C 
ENDROOT
BRANCH   1  10
ATOM      7  N   UNL     1      34.019 -15.818 -25.231  0.00  0.00    -0.236 N 
ATOM      8  N   UNL     1      34.687 -16.935 -25.567  0.00  0.00    -0.180 NA
ATOM      9  C   UNL     1      34.872 -16.488 -23.334  0.00  0.00    +0.018 C 
ATOM     10  C   UNL     1      34.099 -15.507 -23.906  0.00  0.00    +0.063 C 
ATOM     11  C   UNL     1      35.206 -17.340 -24.405  0.00  0.00    +0.115 C 
ATOM     12  H   UNL     1      33.518 -15.275 -25.881  0.00  0.00    +0.174 HD
BRANCH   9  13
ATOM     13  C   UNL     1      35.269 -16.629 -21.923  0.00  0.00    +0.056 C 
BRANCH  13  15
ATOM     14  N   UNL     1      35.723 -20.712 -20.589  0.00  0.00    -0.242 NA
ATOM     15  C   UNL     1      35.429 -18.069 -21.452  0.00  0.00    -0.015 C 
ATOM     16  C   UNL     1      36.695 -18.580 -21.189  0.00  0.00    +0.017 C 
ATOM     17  C   UNL     1      34.310 -18.877 -21.284  0.00  0.00    +0.017 C 
ATOM     18  C   UNL     1      36.787 -19.896 -20.764  0.00  0.00    +0.099 C 
ATOM     19  C   UNL     1      34.509 -20.179 -20.855  0.00  0.00    +0.099 C 
ENDBRANCH  13  15
ENDBRANCH   9  13
ENDBRANCH   1  10
BRANCH   4  20
ATOM     20  O   UNL     1      31.589 -11.010 -21.701  0.00  0.00    -0.468 OA
BRANCH  20  21
ATOM     21  C   UNL     1      32.438  -9.974 -21.224  0.00  0.00    +0.264 C 
BRANCH  21  23
ATOM     22  N   UNL     1      33.680  -8.536 -22.724  0.00  0.00    -0.406 NA
ATOM     23  C   UNL     1      32.468  -8.861 -22.218  0.00  0.00    +0.152 C 
ATOM     24  C   UNL     1      32.599  -6.833 -24.041  0.00  0.00    +0.026 C 
ATOM     25  C   UNL     1      33.747  -7.536 -23.623  0.00  0.00    +0.113 C 
ATOM     26  C   UNL     1      31.291  -8.231 -22.565  0.00  0.00    +0.031 C 
ATOM     27  C   UNL     1      31.363  -7.201 -23.492  0.00  0.00    +0.005 C 
ATOM     28  C   UNL     1      32.706  -5.795 -24.982  0.00  0.00    +0.002 C 
ATOM     29  C   UNL     1      34.975  -7.169 -24.168  0.00  0.00    +0.085 C 
ATOM     30  C   UNL     1      33.946  -5.448 -25.511  0.00  0.00    -0.004 C 
ATOM     31  C   UNL     1      35.082  -6.137 -25.104  0.00  0.00    -0.019 C 
ENDBRANCH  21  23
ENDBRANCH  20  21
ENDBRANCH   4  20
TORSDOF 6
ENDMDL
MODEL 7
REMARK VINA RESULT:     -13.3      2.342     10.571
REMARK  Name = 44141871
REMARK  6 active torsions:
REMARK  status: ('A' for Active; 'I' for Inactive)
REMARK    1  A    between atoms: C_1  and  C_10
REMARK    2  A    between atoms: C_4  and  O_20
REMARK    3  A    between atoms: C_9  and  C_13
REMARK    4  A    between atoms: C_13  and  C_15
REMARK    5  A    between atoms: O_20  and  C_21
REMARK    6  A    between atoms: C_21  and  C_23
REMARK                            x       y       z     vdW  Elec       q    Type
REMARK                         _______ _______ _______ _____ _____    ______ ____
ROOT
ATOM      1  C   UNL     1      34.161 -21.941 -18.767  0.00  0.00    +0.015 C 
ATOM      2  C   UNL     1      33.256 -21.233 -19.557  0.00  0.00    +0.004 C 
ATOM      3  C   UNL     1      35.521 -21.923 -19.078  0.00  0.00    +0.004 C 
ATOM      4  C   UNL     1      35.070 -20.488 -20.969  0.00  0.00    +0.139 C 
ATOM      5  C   UNL     1      33.710 -20.506 -20.658  0.00  0.00    +0.037 C 
ATOM      6  C   UNL     1      35.975 -21.196 -20.179  0.00  0.00    +0.037 C 
ENDROOT
BRANCH   1  10
ATOM      7  N   UNL     1      32.389 -23.072 -17.486  0.00  0.00    -0.236 N 
ATOM      8  N   UNL     1      32.146 -23.763 -16.359  0.00  0.00    -0.180 NA
ATOM      9  C   UNL     1      34.346 -23.166 -16.518  0.00  0.00    +0.018 C 
ATOM     10  C   UNL     1      33.691 -22.692 -17.629  0.00  0.00    +0.063 C 
ATOM     11  C   UNL     1      33.344 -23.817 -15.772  0.00  0.00    +0.115 C 
ATOM     12  H   UNL     1      31.692 -22.860 -18.148  0.00  0.00    +0.174 HD
BRANCH   9  13
ATOM     13  C   UNL     1      35.771 -23.031 -16.173  0.00  0.00    +0.056 C 
BRANCH  13  15
ATOM     14  N   UNL     1      37.071 -25.540 -12.908  0.00  0.00    -0.242 NA
ATOM     15  C   UNL     1      36.230 -23.916 -15.022  0.00  0.00    -0.015 C 
ATOM     16  C   UNL     1      36.565 -25.246 -15.254  0.00  0.00    +0.017 C 
ATOM     17  C   UNL     1      36.315 -23.398 -13.735  0.00  0.00    +0.017 C 
ATOM     18  C   UNL     1      36.975 -26.008 -14.173  0.00  0.00    +0.099 C 
ATOM     19  C   UNL     1      36.738 -24.244 -12.722  0.00  0.00    +0.099 C 
ENDBRANCH  13  15
ENDBRANCH   9  13
ENDBRANCH   1  10
BRANCH   4  20
ATOM     20  O   UNL     1      35.516 -19.772 -22.047  0.00  0.00    -0.468 OA
BRANCH  20  21
ATOM     21  C   UNL     1      35.756 -18.385 -21.842  0.00  0.00    +0.264 C 
BRANCH  21  23
ATOM     22  N   UNL     1      34.993 -16.286 -22.776  0.00  0.00    -0.406 NA
ATOM     23  C   UNL     1      35.186 -17.609 -22.982  0.00  0.00    +0.152 C 
ATOM     24  C   UNL     1      34.145 -16.127 -25.025  0.00  0.00    +0.026 C 
ATOM     25  C   UNL     1      34.481 -15.553 -23.781  0.00  0.00    +0.113 C 
ATOM     26  C   UNL     1      34.888 -18.259 -24.162  0.00  0.00    +0.031 C 
ATOM     27  C   UNL     1      34.360 -17.501 -25.197  0.00  0.00    +0.005 C 
ATOM     28  C   UNL     1      33.612 -15.331 -26.053  0.00  0.00    +0.002 C 
ATOM     29  C   UNL     1      34.267 -14.187 -23.611  0.00  0.00    +0.085 C 
ATOM     30  C   UNL     1      33.408 -13.968 -25.856  0.00  0.00    -0.004 C 
ATOM     31  C   UNL     1      33.737 -13.395 -24.633  0.00  0.00    -0.019 C 
ENDBRANCH  21  23
ENDBRANCH  20  21
ENDBRANCH   4  20
TORSDOF 6
ENDMDL
MODEL 8
REMARK VINA RESULT:     -13.2      2.100      9.938
REMARK  Name = 44141871
REMARK  6 active torsions:
REMARK  status: ('A' for Active; 'I' for Inactive)
REMARK    1  A    between atoms: C_1  and  C_10
REMARK    2  A    between atoms: C_4  and  O_20
REMARK    3  A    between atoms: C_9  and  C_13
REMARK    4  A    between atoms: C_13  and  C_15
REMARK    5  A    between atoms: O_20  and  C_21
REMARK    6  A    between atoms: C_21  and  C_23
REMARK                            x       y       z     vdW  Elec       q    Type
REMARK                         _______ _______ _______ _____ _____    ______ ____
ROOT
ATOM      1  C   UNL     1      34.645 -22.894 -17.195  0.00  0.00    +0.015 C 
ATOM      2  C   UNL     1      35.884 -22.325 -17.489  0.00  0.00    +0.004 C 
ATOM      3  C   UNL     1      33.597 -22.792 -18.111  0.00  0.00    +0.004 C 
ATOM      4  C   UNL     1      35.028 -21.554 -19.613  0.00  0.00    +0.139 C 
ATOM      5  C   UNL     1      36.076 -21.656 -18.697  0.00  0.00    +0.037 C 
ATOM      6  C   UNL     1      33.789 -22.122 -19.319  0.00  0.00    +0.037 C 
ENDROOT
BRANCH   1  10
ATOM      7  N   UNL     1      35.311 -24.538 -15.489  0.00  0.00    -0.236 N 
ATOM      8  N   UNL     1      34.956 -25.070 -14.306  0.00  0.00    -0.180 NA
ATOM      9  C   UNL     1      33.458 -23.489 -14.998  0.00  0.00    +0.018 C 
ATOM     10  C   UNL     1      34.448 -23.587 -15.946  0.00  0.00    +0.063 C 
ATOM     11  C   UNL     1      33.823 -24.426 -14.011  0.00  0.00    +0.115 C 
ATOM     12  H   UNL     1      36.120 -24.810 -15.979  0.00  0.00    +0.174 HD
BRANCH   9  13
ATOM     13  C   UNL     1      32.277 -22.610 -15.001  0.00  0.00    +0.056 C 
BRANCH  13  15
ATOM     14  N   UNL     1      28.606 -24.539 -16.207  0.00  0.00    -0.242 NA
ATOM     15  C   UNL     1      30.982 -23.290 -15.426  0.00  0.00    -0.015 C 
ATOM     16  C   UNL     1      30.249 -22.788 -16.496  0.00  0.00    +0.017 C 
ATOM     17  C   UNL     1      30.529 -24.415 -14.746  0.00  0.00    +0.017 C 
ATOM     18  C   UNL     1      29.079 -23.443 -16.843  0.00  0.00    +0.099 C 
ATOM     19  C   UNL     1      29.346 -24.997 -15.172  0.00  0.00    +0.099 C 
ENDBRANCH  13  15
ENDBRANCH   9  13
ENDBRANCH   1  10
BRANCH   4  20
ATOM     20  O   UNL     1      35.217 -20.899 -20.801  0.00  0.00    -0.468 OA
BRANCH  20  21
ATOM     21  C   UNL     1      36.257 -19.931 -20.841  0.00  0.00    +0.264 C 
BRANCH  21  23
ATOM     22  N   UNL     1      35.431 -17.659 -20.970  0.00  0.00    -0.406 NA
ATOM     23  C   UNL     1      35.815 -18.761 -21.655  0.00  0.00    +0.152 C 
ATOM     24  C   UNL     1      34.992 -16.582 -23.080  0.00  0.00    +0.026 C 
ATOM     25  C   UNL     1      35.025 -16.584 -21.670  0.00  0.00    +0.113 C 
ATOM     26  C   UNL     1      35.817 -18.854 -23.031  0.00  0.00    +0.031 C 
ATOM     27  C   UNL     1      35.398 -17.744 -23.750  0.00  0.00    +0.005 C 
ATOM     28  C   UNL     1      34.563 -15.441 -23.779  0.00  0.00    +0.002 C 
ATOM     29  C   UNL     1      34.621 -15.429 -21.005  0.00  0.00    +0.085 C 
ATOM     30  C   UNL     1      34.164 -14.300 -23.088  0.00  0.00    -0.004 C 
ATOM     31  C   UNL     1      34.194 -14.294 -21.699  0.00  0.00    -0.019 C 
ENDBRANCH  21  23
ENDBRANCH  20  21
ENDBRANCH   4  20
TORSDOF 6
ENDMDL
MODEL 9
REMARK VINA RESULT:     -13.2      2.807     10.748
REMARK  Name = 44141871
REMARK  6 active torsions:
REMARK  status: ('A' for Active; 'I' for Inactive)
REMARK    1  A    between atoms: C_1  and  C_10
REMARK    2  A    between atoms: C_4  and  O_20
REMARK    3  A    between atoms: C_9  and  C_13
REMARK    4  A    between atoms: C_13  and  C_15
REMARK    5  A    between atoms: O_20  and  C_21
REMARK    6  A    between atoms: C_21  and  C_23
REMARK                            x       y       z     vdW  Elec       q    Type
REMARK                         _______ _______ _______ _____ _____    ______ ____
ROOT
ATOM      1  C   UNL     1      34.521 -22.663 -17.646  0.00  0.00    +0.015 C 
ATOM      2  C   UNL     1      35.850 -22.278 -17.819  0.00  0.00    +0.004 C 
ATOM      3  C   UNL     1      33.581 -22.390 -18.639  0.00  0.00    +0.004 C 
ATOM      4  C   UNL     1      35.299 -21.348 -19.980  0.00  0.00    +0.139 C 
ATOM      5  C   UNL     1      36.239 -21.621 -18.987  0.00  0.00    +0.037 C 
ATOM      6  C   UNL     1      33.970 -21.733 -19.807  0.00  0.00    +0.037 C 
ENDROOT
BRANCH   1  10
ATOM      7  N   UNL     1      32.817 -23.429 -16.043  0.00  0.00    -0.236 N 
ATOM      8  N   UNL     1      32.643 -24.101 -14.891  0.00  0.00    -0.180 NA
ATOM      9  C   UNL     1      34.849 -24.003 -15.481  0.00  0.00    +0.018 C 
ATOM     10  C   UNL     1      34.119 -23.343 -16.439  0.00  0.00    +0.063 C 
ATOM     11  C   UNL     1      33.888 -24.449 -14.552  0.00  0.00    +0.115 C 
ATOM     12  H   UNL     1      32.073 -23.036 -16.553  0.00  0.00    +0.174 HD
BRANCH   9  13
ATOM     13  C   UNL     1      36.306 -24.207 -15.424  0.00  0.00    +0.056 C 
BRANCH  13  15
ATOM     14  N   UNL     1      37.918 -24.529 -11.431  0.00  0.00    -0.242 NA
ATOM     15  C   UNL     1      36.875 -24.321 -14.016  0.00  0.00    -0.015 C 
ATOM     16  C   UNL     1      37.035 -23.181 -13.234  0.00  0.00    +0.017 C 
ATOM     17  C   UNL     1      37.236 -25.563 -13.507  0.00  0.00    +0.017 C 
ATOM     18  C   UNL     1      37.556 -23.338 -11.960  0.00  0.00    +0.099 C 
ATOM     19  C   UNL     1      37.748 -25.613 -12.220  0.00  0.00    +0.099 C 
ENDBRANCH  13  15
ENDBRANCH   9  13
ENDBRANCH   1  10
BRANCH   4  20
ATOM     20  O   UNL     1      35.682 -20.705 -21.128  0.00  0.00    -0.468 OA
BRANCH  20  21
ATOM     21  C   UNL     1      35.960 -19.315 -21.022  0.00  0.00    +0.264 C 
BRANCH  21  23
ATOM     22  N   UNL     1      35.284 -17.274 -22.133  0.00  0.00    -0.406 NA
ATOM     23  C   UNL     1      35.447 -18.613 -22.234  0.00  0.00    +0.152 C 
ATOM     24  C   UNL     1      34.510 -17.263 -24.414  0.00  0.00    +0.026 C 
ATOM     25  C   UNL     1      34.823 -16.605 -23.207  0.00  0.00    +0.113 C 
ATOM     26  C   UNL     1      35.168 -19.342 -23.372  0.00  0.00    +0.031 C 
ATOM     27  C   UNL     1      34.692 -18.651 -24.477  0.00  0.00    +0.005 C 
ATOM     28  C   UNL     1      34.031 -16.533 -25.516  0.00  0.00    +0.002 C 
ATOM     29  C   UNL     1      34.641 -15.226 -23.145  0.00  0.00    +0.085 C 
ATOM     30  C   UNL     1      33.858 -15.154 -25.427  0.00  0.00    -0.004 C 
ATOM     31  C   UNL     1      34.165 -14.500 -24.240  0.00  0.00    -0.019 C 
ENDBRANCH  21  23
ENDBRANCH  20  21
ENDBRANCH   4  20
TORSDOF 6
ENDMDL
