MODEL 1
REMARK VINA RESULT:     -12.6      0.000      0.000
REMARK  Name = 16040289
REMARK  6 active torsions:
REMARK  status: ('A' for Active; 'I' for Inactive)
REMARK    1  A    between atoms: N_2  and  C_20
REMARK    2  A    between atoms: C_3  and  C_6
REMARK    3  A    between atoms: N_11  and  C_13
REMARK    4  A    between atoms: C_13  and  C_15
REMARK    5  A    between atoms: C_23  and  O_26
REMARK    6  A    between atoms: O_26  and  C_27
REMARK                            x       y       z     vdW  Elec       q    Type
REMARK                         _______ _______ _______ _____ _____    ______ ____
ROOT
ATOM      1  O   UNL     1      33.831 -23.932 -18.895  0.00  0.00    -0.270 OA
ATOM      2  N   UNL     1      33.518 -21.627 -18.560  0.00  0.00    -0.280 N 
ATOM      3  C   UNL     1      33.440 -22.984 -18.223  0.00  0.00    +0.252 C 
ATOM      4  H   UNL     1      33.152 -20.996 -17.898  0.00  0.00    +0.155 HD
ENDROOT
BRANCH   3   6
ATOM      5  N   UNL     1      32.942 -23.708 -14.574  0.00  0.00    -0.229 NA
ATOM      6  C   UNL     1      32.786 -23.281 -16.922  0.00  0.00    +0.085 C 
ATOM      7  C   UNL     1      33.511 -23.436 -15.770  0.00  0.00    +0.133 C 
ATOM      8  C   UNL     1      31.415 -23.401 -16.895  0.00  0.00    +0.009 C 
ATOM      9  C   UNL     1      30.793 -23.680 -15.683  0.00  0.00    +0.021 C 
ATOM     10  C   UNL     1      31.595 -23.824 -14.561  0.00  0.00    +0.100 C 
ATOM     11  N   UNL     1      34.922 -23.308 -15.816  0.00  0.00    -0.314 N 
ATOM     12  H   UNL     1      35.350 -23.109 -16.680  0.00  0.00    +0.149 HD
BRANCH  11  13
ATOM     13  C   UNL     1      35.746 -23.455 -14.661  0.00  0.00    +0.115 C 
BRANCH  13  15
ATOM     14  N   UNL     1      38.215 -26.940 -15.014  0.00  0.00    -0.242 NA
ATOM     15  C   UNL     1      36.612 -24.679 -14.785  0.00  0.00    +0.000 C 
ATOM     16  C   UNL     1      36.063 -25.864 -15.244  0.00  0.00    +0.018 C 
ATOM     17  C   UNL     1      37.950 -24.607 -14.438  0.00  0.00    +0.018 C 
ATOM     18  C   UNL     1      36.903 -26.961 -15.340  0.00  0.00    +0.099 C 
ATOM     19  C   UNL     1      38.706 -25.761 -14.571  0.00  0.00    +0.099 C 
ENDBRANCH  13  15
ENDBRANCH  11  13
ENDBRANCH   3   6
BRANCH   2  20
ATOM     20  C   UNL     1      34.051 -21.058 -19.716  0.00  0.00    +0.051 C 
ATOM     21  C   UNL     1      33.208 -20.461 -20.653  0.00  0.00    +0.018 C 
ATOM     22  C   UNL     1      35.429 -21.087 -19.936  0.00  0.00    +0.018 C 
ATOM     23  C   UNL     1      35.118 -19.920 -22.030  0.00  0.00    +0.145 C 
ATOM     24  C   UNL     1      33.742 -19.891 -21.810  0.00  0.00    +0.039 C 
ATOM     25  C   UNL     1      35.962 -20.517 -21.093  0.00  0.00    +0.039 C 
BRANCH  23  26
ATOM     26  O   UNL     1      35.639 -19.367 -23.159  0.00  0.00    -0.453 OA
BRANCH  26  27
ATOM     27  C   UNL     1      35.219 -18.094 -23.505  0.00  0.00    +0.145 C 
ATOM     28  C   UNL     1      34.671 -17.883 -24.759  0.00  0.00    +0.037 C 
ATOM     29  C   UNL     1      35.357 -17.066 -22.591  0.00  0.00    +0.037 C 
ATOM     30  C   UNL     1      34.249 -16.600 -25.108  0.00  0.00    +0.003 C 
ATOM     31  C   UNL     1      34.935 -15.783 -22.940  0.00  0.00    +0.003 C 
ATOM     32  C   UNL     1      34.381 -15.551 -24.199  0.00  0.00    +0.000 C 
ENDBRANCH  26  27
ENDBRANCH  23  26
ENDBRANCH   2  20
TORSDOF 6
ENDMDL
MODEL 2
REMARK VINA RESULT:     -12.6      0.084      1.234
REMARK  Name = 16040289
REMARK  6 active torsions:
REMARK  status: ('A' for Active; 'I' for Inactive)
REMARK    1  A    between atoms: N_2  and  C_20
REMARK    2  A    between atoms: C_3  and  C_6
REMARK    3  A    between atoms: N_11  and  C_13
REMARK    4  A    between atoms: C_13  and  C_15
REMARK    5  A    between atoms: C_23  and  O_26
REMARK    6  A    between atoms: O_26  and  C_27
REMARK                            x       y       z     vdW  Elec       q    Type
REMARK                         _______ _______ _______ _____ _____    ______ ____
ROOT
ATOM      1  O   UNL     1      33.819 -23.964 -18.847  0.00  0.00    -0.270 OA
ATOM      2  N   UNL     1      33.518 -21.655 -18.520  0.00  0.00    -0.280 N 
ATOM      3  C   UNL     1      33.426 -23.011 -18.181  0.00  0.00    +0.252 C 
ATOM      4  H   UNL     1      33.148 -21.021 -17.864  0.00  0.00    +0.155 HD
ENDROOT
BRANCH   3   6
ATOM      5  N   UNL     1      32.880 -23.728 -14.538  0.00  0.00    -0.229 NA
ATOM      6  C   UNL     1      32.755 -23.301 -16.888  0.00  0.00    +0.085 C 
ATOM      7  C   UNL     1      33.465 -23.463 -15.728  0.00  0.00    +0.133 C 
ATOM      8  C   UNL     1      31.383 -23.407 -16.876  0.00  0.00    +0.009 C 
ATOM      9  C   UNL     1      30.744 -23.679 -15.671  0.00  0.00    +0.021 C 
ATOM     10  C   UNL     1      31.532 -23.830 -14.540  0.00  0.00    +0.100 C 
ATOM     11  N   UNL     1      34.878 -23.350 -15.759  0.00  0.00    -0.314 N 
ATOM     12  H   UNL     1      35.317 -23.155 -16.618  0.00  0.00    +0.149 HD
BRANCH  11  13
ATOM     13  C   UNL     1      35.687 -23.505 -14.594  0.00  0.00    +0.115 C 
BRANCH  13  15
ATOM     14  N   UNL     1      38.259 -26.909 -15.000  0.00  0.00    -0.242 NA
ATOM     15  C   UNL     1      36.591 -24.699 -14.737  0.00  0.00    +0.000 C 
ATOM     16  C   UNL     1      37.916 -24.607 -14.349  0.00  0.00    +0.018 C 
ATOM     17  C   UNL     1      36.086 -25.880 -15.255  0.00  0.00    +0.018 C 
ATOM     18  C   UNL     1      38.705 -25.734 -14.500  0.00  0.00    +0.099 C 
ATOM     19  C   UNL     1      36.958 -26.952 -15.365  0.00  0.00    +0.099 C 
ENDBRANCH  13  15
ENDBRANCH  11  13
ENDBRANCH   3   6
BRANCH   2  20
ATOM     20  C   UNL     1      34.069 -21.092 -19.672  0.00  0.00    +0.051 C 
ATOM     21  C   UNL     1      35.448 -21.128 -19.875  0.00  0.00    +0.018 C 
ATOM     22  C   UNL     1      33.239 -20.493 -20.619  0.00  0.00    +0.018 C 
ATOM     23  C   UNL     1      35.169 -19.966 -21.975  0.00  0.00    +0.145 C 
ATOM     24  C   UNL     1      35.998 -20.565 -21.027  0.00  0.00    +0.039 C 
ATOM     25  C   UNL     1      33.790 -19.930 -21.771  0.00  0.00    +0.039 C 
BRANCH  23  26
ATOM     26  O   UNL     1      35.706 -19.415 -23.097  0.00  0.00    -0.453 OA
BRANCH  26  27
ATOM     27  C   UNL     1      35.245 -18.168 -23.486  0.00  0.00    +0.145 C 
ATOM     28  C   UNL     1      34.656 -18.026 -24.731  0.00  0.00    +0.037 C 
ATOM     29  C   UNL     1      35.386 -17.097 -22.623  0.00  0.00    +0.037 C 
ATOM     30  C   UNL     1      34.193 -16.770 -25.123  0.00  0.00    +0.003 C 
ATOM     31  C   UNL     1      34.923 -15.841 -23.015  0.00  0.00    +0.003 C 
ATOM     32  C   UNL     1      34.326 -15.678 -24.265  0.00  0.00    +0.000 C 
ENDBRANCH  26  27
ENDBRANCH  23  26
ENDBRANCH   2  20
TORSDOF 6
ENDMDL
MODEL 3
REMARK VINA RESULT:     -12.5      1.046      1.640
REMARK  Name = 16040289
REMARK  6 active torsions:
REMARK  status: ('A' for Active; 'I' for Inactive)
REMARK    1  A    between atoms: N_2  and  C_20
REMARK    2  A    between atoms: C_3  and  C_6
REMARK    3  A    between atoms: N_11  and  C_13
REMARK    4  A    between atoms: C_13  and  C_15
REMARK    5  A    between atoms: C_23  and  O_26
REMARK    6  A    between atoms: O_26  and  C_27
REMARK                            x       y       z     vdW  Elec       q    Type
REMARK                         _______ _______ _______ _____ _____    ______ ____
ROOT
ATOM      1  O   UNL     1      34.200 -23.888 -17.662  0.00  0.00    -0.270 OA
ATOM      2  N   UNL     1      32.881 -22.023 -18.217  0.00  0.00    -0.280 N 
ATOM      3  C   UNL     1      33.220 -23.172 -17.490  0.00  0.00    +0.252 C 
ATOM      4  H   UNL     1      32.053 -21.567 -17.941  0.00  0.00    +0.155 HD
ENDROOT
BRANCH   3   6
ATOM      5  N   UNL     1      31.834 -24.265 -14.178  0.00  0.00    -0.229 NA
ATOM      6  C   UNL     1      32.261 -23.556 -16.422  0.00  0.00    +0.085 C 
ATOM      7  C   UNL     1      32.684 -23.909 -15.168  0.00  0.00    +0.133 C 
ATOM      8  C   UNL     1      30.918 -23.552 -16.720  0.00  0.00    +0.009 C 
ATOM      9  C   UNL     1      30.012 -23.911 -15.728  0.00  0.00    +0.021 C 
ATOM     10  C   UNL     1      30.517 -24.256 -14.484  0.00  0.00    +0.100 C 
ATOM     11  N   UNL     1      34.071 -23.908 -14.878  0.00  0.00    -0.314 N 
ATOM     12  H   UNL     1      34.702 -23.650 -15.589  0.00  0.00    +0.149 HD
BRANCH  11  13
ATOM     13  C   UNL     1      34.590 -24.263 -13.597  0.00  0.00    +0.115 C 
BRANCH  13  15
ATOM     14  N   UNL     1      38.261 -26.435 -14.014  0.00  0.00    -0.242 NA
ATOM     15  C   UNL     1      35.878 -25.026 -13.744  0.00  0.00    +0.000 C 
ATOM     16  C   UNL     1      36.218 -25.568 -14.971  0.00  0.00    +0.018 C 
ATOM     17  C   UNL     1      36.711 -25.178 -12.649  0.00  0.00    +0.018 C 
ATOM     18  C   UNL     1      37.414 -26.260 -15.054  0.00  0.00    +0.099 C 
ATOM     19  C   UNL     1      37.887 -25.888 -12.836  0.00  0.00    +0.099 C 
ENDBRANCH  13  15
ENDBRANCH  11  13
ENDBRANCH   3   6
BRANCH   2  20
ATOM     20  C   UNL     1      33.572 -21.445 -19.282  0.00  0.00    +0.051 C 
ATOM     21  C   UNL     1      34.947 -21.642 -19.411  0.00  0.00    +0.018 C 
ATOM     22  C   UNL     1      32.887 -20.668 -20.217  0.00  0.00    +0.018 C 
ATOM     23  C   UNL     1      34.953 -20.287 -21.412  0.00  0.00    +0.145 C 
ATOM     24  C   UNL     1      35.637 -21.064 -20.477  0.00  0.00    +0.039 C 
ATOM     25  C   UNL     1      33.579 -20.089 -21.282  0.00  0.00    +0.039 C 
BRANCH  23  26
ATOM     26  O   UNL     1      35.627 -19.721 -22.450  0.00  0.00    -0.453 OA
BRANCH  26  27
ATOM     27  C   UNL     1      35.294 -18.424 -22.802  0.00  0.00    +0.145 C 
ATOM     28  C   UNL     1      35.356 -17.428 -21.843  0.00  0.00    +0.037 C 
ATOM     29  C   UNL     1      34.908 -18.157 -24.103  0.00  0.00    +0.037 C 
ATOM     30  C   UNL     1      35.020 -16.121 -22.199  0.00  0.00    +0.003 C 
ATOM     31  C   UNL     1      34.572 -16.850 -24.459  0.00  0.00    +0.003 C 
ATOM     32  C   UNL     1      34.628 -15.833 -23.506  0.00  0.00    +0.000 C 
ENDBRANCH  26  27
ENDBRANCH  23  26
ENDBRANCH   2  20
TORSDOF 6
ENDMDL
MODEL 4
REMARK VINA RESULT:     -12.1      5.150      9.135
REMARK  Name = 16040289
REMARK  6 active torsions:
REMARK  status: ('A' for Active; 'I' for Inactive)
REMARK    1  A    between atoms: N_2  and  C_20
REMARK    2  A    between atoms: C_3  and  C_6
REMARK    3  A    between atoms: N_11  and  C_13
REMARK    4  A    between atoms: C_13  and  C_15
REMARK    5  A    between atoms: C_23  and  O_26
REMARK    6  A    between atoms: O_26  and  C_27
REMARK                            x       y       z     vdW  Elec       q    Type
REMARK                         _______ _______ _______ _____ _____    ______ ____
ROOT
ATOM      1  O   UNL     1      34.965 -15.590 -21.596  0.00  0.00    -0.270 OA
ATOM      2  N   UNL     1      33.536 -14.816 -23.294  0.00  0.00    -0.280 N 
ATOM      3  C   UNL     1      34.414 -15.720 -22.683  0.00  0.00    +0.252 C 
ATOM      4  H   UNL     1      33.184 -15.084 -24.174  0.00  0.00    +0.155 HD
ENDROOT
BRANCH   3   6
ATOM      5  N   UNL     1      35.571 -19.176 -23.579  0.00  0.00    -0.229 NA
ATOM      6  C   UNL     1      34.713 -16.947 -23.467  0.00  0.00    +0.085 C 
ATOM      7  C   UNL     1      35.287 -18.048 -22.890  0.00  0.00    +0.133 C 
ATOM      8  C   UNL     1      34.398 -16.957 -24.807  0.00  0.00    +0.009 C 
ATOM      9  C   UNL     1      34.674 -18.099 -25.550  0.00  0.00    +0.021 C 
ATOM     10  C   UNL     1      35.257 -19.173 -24.894  0.00  0.00    +0.100 C 
ATOM     11  N   UNL     1      35.605 -18.021 -21.509  0.00  0.00    -0.314 N 
ATOM     12  H   UNL     1      35.402 -17.207 -20.994  0.00  0.00    +0.149 HD
BRANCH  11  13
ATOM     13  C   UNL     1      36.204 -19.127 -20.835  0.00  0.00    +0.115 C 
BRANCH  13  15
ATOM     14  N   UNL     1      33.231 -22.021 -19.760  0.00  0.00    -0.242 NA
ATOM     15  C   UNL     1      35.159 -20.142 -20.458  0.00  0.00    +0.000 C 
ATOM     16  C   UNL     1      33.828 -19.895 -20.743  0.00  0.00    +0.018 C 
ATOM     17  C   UNL     1      35.542 -21.314 -19.828  0.00  0.00    +0.018 C 
ATOM     18  C   UNL     1      32.907 -20.861 -20.376  0.00  0.00    +0.099 C 
ATOM     19  C   UNL     1      34.542 -22.218 -19.502  0.00  0.00    +0.099 C 
ENDBRANCH  13  15
ENDBRANCH  11  13
ENDBRANCH   3   6
BRANCH   2  20
ATOM     20  C   UNL     1      33.098 -13.583 -22.810  0.00  0.00    +0.051 C 
ATOM     21  C   UNL     1      32.380 -13.518 -21.616  0.00  0.00    +0.018 C 
ATOM     22  C   UNL     1      33.378 -12.416 -23.521  0.00  0.00    +0.018 C 
ATOM     23  C   UNL     1      32.221 -11.117 -21.843  0.00  0.00    +0.145 C 
ATOM     24  C   UNL     1      31.942 -12.284 -21.132  0.00  0.00    +0.039 C 
ATOM     25  C   UNL     1      32.939 -11.183 -23.037  0.00  0.00    +0.039 C 
BRANCH  23  26
ATOM     26  O   UNL     1      31.793  -9.914 -21.372  0.00  0.00    -0.453 OA
BRANCH  26  27
ATOM     27  C   UNL     1      32.046  -8.793 -22.144  0.00  0.00    +0.145 C 
ATOM     28  C   UNL     1      31.189  -8.485 -23.186  0.00  0.00    +0.037 C 
ATOM     29  C   UNL     1      33.149  -8.011 -21.855  0.00  0.00    +0.037 C 
ATOM     30  C   UNL     1      31.445  -7.356 -23.965  0.00  0.00    +0.003 C 
ATOM     31  C   UNL     1      33.405  -6.882 -22.634  0.00  0.00    +0.003 C 
ATOM     32  C   UNL     1      32.553  -6.555 -23.688  0.00  0.00    +0.000 C 
ENDBRANCH  26  27
ENDBRANCH  23  26
ENDBRANCH   2  20
TORSDOF 6
ENDMDL
MODEL 5
REMARK VINA RESULT:     -12.0      1.778      4.694
REMARK  Name = 16040289
REMARK  6 active torsions:
REMARK  status: ('A' for Active; 'I' for Inactive)
REMARK    1  A    between atoms: N_2  and  C_20
REMARK    2  A    between atoms: C_3  and  C_6
REMARK    3  A    between atoms: N_11  and  C_13
REMARK    4  A    between atoms: C_13  and  C_15
REMARK    5  A    between atoms: C_23  and  O_26
REMARK    6  A    between atoms: O_26  and  C_27
REMARK                            x       y       z     vdW  Elec       q    Type
REMARK                         _______ _______ _______ _____ _____    ______ ____
ROOT
ATOM      1  O   UNL     1      33.562 -23.944 -17.862  0.00  0.00    -0.270 OA
ATOM      2  N   UNL     1      35.157 -22.244 -17.562  0.00  0.00    -0.280 N 
ATOM      3  C   UNL     1      34.372 -23.336 -17.171  0.00  0.00    +0.252 C 
ATOM      4  H   UNL     1      35.758 -21.876 -16.873  0.00  0.00    +0.155 HD
ENDROOT
BRANCH   3   6
ATOM      5  N   UNL     1      33.598 -24.219 -13.606  0.00  0.00    -0.229 NA
ATOM      6  C   UNL     1      34.538 -23.767 -15.758  0.00  0.00    +0.085 C 
ATOM      7  C   UNL     1      33.476 -23.832 -14.895  0.00  0.00    +0.133 C 
ATOM      8  C   UNL     1      35.799 -24.107 -15.325  0.00  0.00    +0.009 C 
ATOM      9  C   UNL     1      35.965 -24.511 -14.004  0.00  0.00    +0.021 C 
ATOM     10  C   UNL     1      34.842 -24.549 -13.193  0.00  0.00    +0.100 C 
ATOM     11  N   UNL     1      32.184 -23.479 -15.359  0.00  0.00    -0.314 N 
ATOM     12  H   UNL     1      32.079 -23.196 -16.297  0.00  0.00    +0.149 HD
BRANCH  11  13
ATOM     13  C   UNL     1      31.029 -23.520 -14.523  0.00  0.00    +0.115 C 
BRANCH  13  15
ATOM     14  N   UNL     1      27.457 -23.363 -16.887  0.00  0.00    -0.242 NA
ATOM     15  C   UNL     1      29.776 -23.465 -15.353  0.00  0.00    +0.000 C 
ATOM     16  C   UNL     1      29.424 -24.550 -16.137  0.00  0.00    +0.018 C 
ATOM     17  C   UNL     1      28.985 -22.329 -15.324  0.00  0.00    +0.018 C 
ATOM     18  C   UNL     1      28.261 -24.450 -16.882  0.00  0.00    +0.099 C 
ATOM     19  C   UNL     1      27.840 -22.329 -16.106  0.00  0.00    +0.099 C 
ENDBRANCH  13  15
ENDBRANCH  11  13
ENDBRANCH   3   6
BRANCH   2  20
ATOM     20  C   UNL     1      35.193 -21.613 -18.805  0.00  0.00    +0.051 C 
ATOM     21  C   UNL     1      34.005 -21.307 -19.467  0.00  0.00    +0.018 C 
ATOM     22  C   UNL     1      36.420 -21.289 -19.387  0.00  0.00    +0.018 C 
ATOM     23  C   UNL     1      35.267 -20.351 -21.293  0.00  0.00    +0.145 C 
ATOM     24  C   UNL     1      34.042 -20.675 -20.711  0.00  0.00    +0.039 C 
ATOM     25  C   UNL     1      36.456 -20.658 -20.631  0.00  0.00    +0.039 C 
BRANCH  23  26
ATOM     26  O   UNL     1      35.304 -19.738 -22.507  0.00  0.00    -0.453 OA
BRANCH  26  27
ATOM     27  C   UNL     1      35.132 -18.364 -22.539  0.00  0.00    +0.145 C 
ATOM     28  C   UNL     1      34.987 -17.732 -23.762  0.00  0.00    +0.037 C 
ATOM     29  C   UNL     1      35.111 -17.659 -21.350  0.00  0.00    +0.037 C 
ATOM     30  C   UNL     1      34.816 -16.348 -23.795  0.00  0.00    +0.003 C 
ATOM     31  C   UNL     1      34.939 -16.275 -21.383  0.00  0.00    +0.003 C 
ATOM     32  C   UNL     1      34.792 -15.620 -22.606  0.00  0.00    +0.000 C 
ENDBRANCH  26  27
ENDBRANCH  23  26
ENDBRANCH   2  20
TORSDOF 6
ENDMDL
MODEL 6
REMARK VINA RESULT:     -11.5      1.655      4.451
REMARK  Name = 16040289
REMARK  6 active torsions:
REMARK  status: ('A' for Active; 'I' for Inactive)
REMARK    1  A    between atoms: N_2  and  C_20
REMARK    2  A    between atoms: C_3  and  C_6
REMARK    3  A    between atoms: N_11  and  C_13
REMARK    4  A    between atoms: C_13  and  C_15
REMARK    5  A    between atoms: C_23  and  O_26
REMARK    6  A    between atoms: O_26  and  C_27
REMARK                            x       y       z     vdW  Elec       q    Type
REMARK                         _______ _______ _______ _____ _____    ______ ____
ROOT
ATOM      1  O   UNL     1      34.454 -22.590 -18.328  0.00  0.00    -0.270 OA
ATOM      2  N   UNL     1      36.376 -21.281 -18.673  0.00  0.00    -0.280 N 
ATOM      3  C   UNL     1      35.580 -22.223 -18.009  0.00  0.00    +0.252 C 
ATOM      4  H   UNL     1      37.259 -21.106 -18.274  0.00  0.00    +0.155 HD
ENDROOT
BRANCH   3   6
ATOM      5  N   UNL     1      35.908 -23.910 -14.673  0.00  0.00    -0.229 NA
ATOM      6  C   UNL     1      36.172 -22.804 -16.776  0.00  0.00    +0.085 C 
ATOM      7  C   UNL     1      35.395 -23.376 -15.804  0.00  0.00    +0.133 C 
ATOM      8  C   UNL     1      37.539 -22.756 -16.626  0.00  0.00    +0.009 C 
ATOM      9  C   UNL     1      38.104 -23.296 -15.476  0.00  0.00    +0.021 C 
ATOM     10  C   UNL     1      37.252 -23.857 -14.537  0.00  0.00    +0.100 C 
ATOM     11  N   UNL     1      33.989 -23.417 -15.975  0.00  0.00    -0.314 N 
ATOM     12  H   UNL     1      33.602 -23.033 -16.795  0.00  0.00    +0.149 HD
BRANCH  11  13
ATOM     13  C   UNL     1      33.113 -23.995 -15.009  0.00  0.00    +0.115 C 
BRANCH  13  15
ATOM     14  N   UNL     1      29.040 -23.685 -16.305  0.00  0.00    -0.242 NA
ATOM     15  C   UNL     1      31.683 -23.887 -15.464  0.00  0.00    +0.000 C 
ATOM     16  C   UNL     1      30.725 -24.724 -14.920  0.00  0.00    +0.018 C 
ATOM     17  C   UNL     1      31.339 -22.949 -16.423  0.00  0.00    +0.018 C 
ATOM     18  C   UNL     1      29.424 -24.585 -15.372  0.00  0.00    +0.099 C 
ATOM     19  C   UNL     1      30.009 -22.888 -16.807  0.00  0.00    +0.099 C 
ENDBRANCH  13  15
ENDBRANCH  11  13
ENDBRANCH   3   6
BRANCH   2  20
ATOM     20  C   UNL     1      36.073 -20.562 -19.828  0.00  0.00    +0.051 C 
ATOM     21  C   UNL     1      37.055 -19.786 -20.445  0.00  0.00    +0.018 C 
ATOM     22  C   UNL     1      34.787 -20.617 -20.367  0.00  0.00    +0.018 C 
ATOM     23  C   UNL     1      35.466 -19.121 -22.140  0.00  0.00    +0.145 C 
ATOM     24  C   UNL     1      36.751 -19.067 -21.602  0.00  0.00    +0.039 C 
ATOM     25  C   UNL     1      34.484 -19.897 -21.523  0.00  0.00    +0.039 C 
BRANCH  23  26
ATOM     26  O   UNL     1      35.169 -18.418 -23.266  0.00  0.00    -0.453 OA
BRANCH  26  27
ATOM     27  C   UNL     1      34.932 -17.060 -23.134  0.00  0.00    +0.145 C 
ATOM     28  C   UNL     1      34.912 -16.500 -21.868  0.00  0.00    +0.037 C 
ATOM     29  C   UNL     1      34.720 -16.299 -24.269  0.00  0.00    +0.037 C 
ATOM     30  C   UNL     1      34.671 -15.133 -21.735  0.00  0.00    +0.003 C 
ATOM     31  C   UNL     1      34.480 -14.931 -24.135  0.00  0.00    +0.003 C 
ATOM     32  C   UNL     1      34.455 -14.349 -22.868  0.00  0.00    +0.000 C 
ENDBRANCH  26  27
ENDBRANCH  23  26
ENDBRANCH   2  20
TORSDOF 6
ENDMDL
MODEL 7
REMARK VINA RESULT:     -11.5      9.078     15.182
REMARK  Name = 16040289
REMARK  6 active torsions:
REMARK  status: ('A' for Active; 'I' for Inactive)
REMARK    1  A    between atoms: N_2  and  C_20
REMARK    2  A    between atoms: C_3  and  C_6
REMARK    3  A    between atoms: N_11  and  C_13
REMARK    4  A    between atoms: C_13  and  C_15
REMARK    5  A    between atoms: C_23  and  O_26
REMARK    6  A    between atoms: O_26  and  C_27
REMARK                            x       y       z     vdW  Elec       q    Type
REMARK                         _______ _______ _______ _____ _____    ______ ____
ROOT
ATOM      1  O   UNL     1      30.651  -9.791 -22.866  0.00  0.00    -0.270 OA
ATOM      2  N   UNL     1      32.888 -10.360 -22.423  0.00  0.00    -0.280 N 
ATOM      3  C   UNL     1      31.733  -9.573 -22.332  0.00  0.00    +0.252 C 
ATOM      4  H   UNL     1      33.673 -10.033 -21.925  0.00  0.00    +0.155 HD
ENDROOT
BRANCH   3   6
ATOM      5  N   UNL     1      31.953  -5.952 -21.372  0.00  0.00    -0.229 NA
ATOM      6  C   UNL     1      31.866  -8.337 -21.518  0.00  0.00    +0.085 C 
ATOM      7  C   UNL     1      31.833  -7.092 -22.088  0.00  0.00    +0.133 C 
ATOM      8  C   UNL     1      32.026  -8.467 -20.157  0.00  0.00    +0.009 C 
ATOM      9  C   UNL     1      32.152  -7.317 -19.386  0.00  0.00    +0.021 C 
ATOM     10  C   UNL     1      32.110  -6.093 -20.037  0.00  0.00    +0.100 C 
ATOM     11  N   UNL     1      31.667  -6.977 -23.491  0.00  0.00    -0.314 N 
ATOM     12  H   UNL     1      31.577  -7.799 -24.025  0.00  0.00    +0.149 HD
BRANCH  11  13
ATOM     13  C   UNL     1      31.622  -5.717 -24.160  0.00  0.00    +0.115 C 
BRANCH  13  15
ATOM     14  N   UNL     1      35.152  -5.148 -26.524  0.00  0.00    -0.242 NA
ATOM     15  C   UNL     1      32.862  -5.518 -24.989  0.00  0.00    +0.000 C 
ATOM     16  C   UNL     1      34.007  -6.236 -24.694  0.00  0.00    +0.018 C 
ATOM     17  C   UNL     1      32.844  -4.616 -26.040  0.00  0.00    +0.018 C 
ATOM     18  C   UNL     1      35.120  -6.016 -25.487  0.00  0.00    +0.099 C 
ATOM     19  C   UNL     1      34.010  -4.470 -26.774  0.00  0.00    +0.099 C 
ENDBRANCH  13  15
ENDBRANCH  11  13
ENDBRANCH   3   6
BRANCH   2  20
ATOM     20  C   UNL     1      33.064 -11.550 -23.130  0.00  0.00    +0.051 C 
ATOM     21  C   UNL     1      33.883 -11.575 -24.259  0.00  0.00    +0.018 C 
ATOM     22  C   UNL     1      32.421 -12.713 -22.708  0.00  0.00    +0.018 C 
ATOM     23  C   UNL     1      33.416 -13.929 -24.544  0.00  0.00    +0.145 C 
ATOM     24  C   UNL     1      34.059 -12.766 -24.966  0.00  0.00    +0.039 C 
ATOM     25  C   UNL     1      32.597 -13.903 -23.415  0.00  0.00    +0.039 C 
BRANCH  23  26
ATOM     26  O   UNL     1      33.586 -15.089 -25.235  0.00  0.00    -0.453 OA
BRANCH  26  27
ATOM     27  C   UNL     1      34.231 -16.132 -24.593  0.00  0.00    +0.145 C 
ATOM     28  C   UNL     1      34.173 -17.401 -25.143  0.00  0.00    +0.037 C 
ATOM     29  C   UNL     1      34.917 -15.880 -23.418  0.00  0.00    +0.037 C 
ATOM     30  C   UNL     1      34.823 -18.452 -24.495  0.00  0.00    +0.003 C 
ATOM     31  C   UNL     1      35.567 -16.931 -22.771  0.00  0.00    +0.003 C 
ATOM     32  C   UNL     1      35.519 -18.217 -23.310  0.00  0.00    +0.000 C 
ENDBRANCH  26  27
ENDBRANCH  23  26
ENDBRANCH   2  20
TORSDOF 6
ENDMDL
MODEL 8
REMARK VINA RESULT:     -10.9      7.039     13.230
REMARK  Name = 16040289
REMARK  6 active torsions:
REMARK  status: ('A' for Active; 'I' for Inactive)
REMARK    1  A    between atoms: N_2  and  C_20
REMARK    2  A    between atoms: C_3  and  C_6
REMARK    3  A    between atoms: N_11  and  C_13
REMARK    4  A    between atoms: C_13  and  C_15
REMARK    5  A    between atoms: C_23  and  O_26
REMARK    6  A    between atoms: O_26  and  C_27
REMARK                            x       y       z     vdW  Elec       q    Type
REMARK                         _______ _______ _______ _____ _____    ______ ____
ROOT
ATOM      1  O   UNL     1      31.659 -12.467 -22.553  0.00  0.00    -0.270 OA
ATOM      2  N   UNL     1      33.442 -12.904 -21.084  0.00  0.00    -0.280 N 
ATOM      3  C   UNL     1      32.356 -12.176 -21.587  0.00  0.00    +0.252 C 
ATOM      4  H   UNL     1      33.890 -12.520 -20.296  0.00  0.00    +0.155 HD
ENDROOT
BRANCH   3   6
ATOM      5  N   UNL     1      31.542  -8.573 -20.923  0.00  0.00    -0.229 NA
ATOM      6  C   UNL     1      32.052 -10.908 -20.873  0.00  0.00    +0.085 C 
ATOM      7  C   UNL     1      31.819  -9.739 -21.548  0.00  0.00    +0.133 C 
ATOM      8  C   UNL     1      32.009 -10.930 -19.497  0.00  0.00    +0.009 C 
ATOM      9  C   UNL     1      31.727  -9.749 -18.819  0.00  0.00    +0.021 C 
ATOM     10  C   UNL     1      31.503  -8.607 -19.572  0.00  0.00    +0.100 C 
ATOM     11  N   UNL     1      31.867  -9.736 -22.964  0.00  0.00    -0.314 N 
ATOM     12  H   UNL     1      32.066 -10.578 -23.432  0.00  0.00    +0.149 HD
BRANCH  11  13
ATOM     13  C   UNL     1      31.636  -8.560 -23.738  0.00  0.00    +0.115 C 
BRANCH  13  15
ATOM     14  N   UNL     1      35.302  -6.432 -24.368  0.00  0.00    -0.242 NA
ATOM     15  C   UNL     1      32.923  -7.813 -23.958  0.00  0.00    +0.000 C 
ATOM     16  C   UNL     1      34.113  -8.345 -23.492  0.00  0.00    +0.018 C 
ATOM     17  C   UNL     1      32.905  -6.601 -24.626  0.00  0.00    +0.018 C 
ATOM     18  C   UNL     1      35.269  -7.619 -23.721  0.00  0.00    +0.099 C 
ATOM     19  C   UNL     1      34.117  -5.953 -24.805  0.00  0.00    +0.099 C 
ENDBRANCH  13  15
ENDBRANCH  11  13
ENDBRANCH   3   6
BRANCH   2  20
ATOM     20  C   UNL     1      33.967 -14.105 -21.562  0.00  0.00    +0.051 C 
ATOM     21  C   UNL     1      34.172 -15.173 -20.689  0.00  0.00    +0.018 C 
ATOM     22  C   UNL     1      34.286 -14.236 -22.914  0.00  0.00    +0.018 C 
ATOM     23  C   UNL     1      35.017 -16.506 -22.519  0.00  0.00    +0.145 C 
ATOM     24  C   UNL     1      34.697 -16.374 -21.168  0.00  0.00    +0.039 C 
ATOM     25  C   UNL     1      34.811 -15.438 -23.392  0.00  0.00    +0.039 C 
BRANCH  23  26
ATOM     26  O   UNL     1      35.531 -17.676 -22.986  0.00  0.00    -0.453 OA
BRANCH  26  27
ATOM     27  C   UNL     1      35.735 -18.699 -22.075  0.00  0.00    +0.145 C 
ATOM     28  C   UNL     1      36.962 -18.805 -21.445  0.00  0.00    +0.037 C 
ATOM     29  C   UNL     1      34.707 -19.588 -21.818  0.00  0.00    +0.037 C 
ATOM     30  C   UNL     1      37.168 -19.836 -20.528  0.00  0.00    +0.003 C 
ATOM     31  C   UNL     1      34.912 -20.619 -20.901  0.00  0.00    +0.003 C 
ATOM     32  C   UNL     1      36.143 -20.743 -20.256  0.00  0.00    +0.000 C 
ENDBRANCH  26  27
ENDBRANCH  23  26
ENDBRANCH   2  20
TORSDOF 6
ENDMDL
MODEL 9
REMARK VINA RESULT:     -10.8      3.536     10.483
REMARK  Name = 16040289
REMARK  6 active torsions:
REMARK  status: ('A' for Active; 'I' for Inactive)
REMARK    1  A    between atoms: N_2  and  C_20
REMARK    2  A    between atoms: C_3  and  C_6
REMARK    3  A    between atoms: N_11  and  C_13
REMARK    4  A    between atoms: C_13  and  C_15
REMARK    5  A    between atoms: C_23  and  O_26
REMARK    6  A    between atoms: O_26  and  C_27
REMARK                            x       y       z     vdW  Elec       q    Type
REMARK                         _______ _______ _______ _____ _____    ______ ____
ROOT
ATOM      1  O   UNL     1      35.247 -17.999 -20.749  0.00  0.00    -0.270 OA
ATOM      2  N   UNL     1      34.602 -20.098 -21.587  0.00  0.00    -0.280 N 
ATOM      3  C   UNL     1      34.932 -18.740 -21.674  0.00  0.00    +0.252 C 
ATOM      4  H   UNL     1      34.372 -20.541 -22.436  0.00  0.00    +0.155 HD
ENDROOT
BRANCH   3   6
ATOM      5  N   UNL     1      34.932 -16.244 -24.477  0.00  0.00    -0.229 NA
ATOM      6  C   UNL     1      34.861 -18.152 -23.037  0.00  0.00    +0.085 C 
ATOM      7  C   UNL     1      34.994 -16.805 -23.248  0.00  0.00    +0.133 C 
ATOM      8  C   UNL     1      34.655 -18.999 -24.101  0.00  0.00    +0.009 C 
ATOM      9  C   UNL     1      34.585 -18.459 -25.381  0.00  0.00    +0.021 C 
ATOM     10  C   UNL     1      34.729 -17.087 -25.514  0.00  0.00    +0.100 C 
ATOM     11  N   UNL     1      35.207 -15.947 -22.140  0.00  0.00    -0.314 N 
ATOM     12  H   UNL     1      35.255 -16.342 -21.240  0.00  0.00    +0.149 HD
BRANCH  11  13
ATOM     13  C   UNL     1      35.355 -14.535 -22.278  0.00  0.00    +0.115 C 
BRANCH  13  15
ATOM     14  N   UNL     1      31.610 -12.560 -21.610  0.00  0.00    -0.242 NA
ATOM     15  C   UNL     1      34.040 -13.843 -22.043  0.00  0.00    +0.000 C 
ATOM     16  C   UNL     1      33.337 -14.084 -20.876  0.00  0.00    +0.018 C 
ATOM     17  C   UNL     1      33.547 -12.970 -22.998  0.00  0.00    +0.018 C 
ATOM     18  C   UNL     1      32.133 -13.421 -20.708  0.00  0.00    +0.099 C 
ATOM     19  C   UNL     1      32.332 -12.356 -22.734  0.00  0.00    +0.099 C 
ENDBRANCH  13  15
ENDBRANCH  11  13
ENDBRANCH   3   6
BRANCH   2  20
ATOM     20  C   UNL     1      34.557 -20.901 -20.447  0.00  0.00    +0.051 C 
ATOM     21  C   UNL     1      35.741 -21.269 -19.806  0.00  0.00    +0.018 C 
ATOM     22  C   UNL     1      33.329 -21.336 -19.949  0.00  0.00    +0.018 C 
ATOM     23  C   UNL     1      34.468 -22.507 -18.167  0.00  0.00    +0.145 C 
ATOM     24  C   UNL     1      35.695 -22.071 -18.666  0.00  0.00    +0.039 C 
ATOM     25  C   UNL     1      33.285 -22.140 -18.808  0.00  0.00    +0.039 C 
BRANCH  23  26
ATOM     26  O   UNL     1      34.424 -23.292 -17.057  0.00  0.00    -0.453 OA
BRANCH  26  27
ATOM     27  C   UNL     1      33.262 -23.279 -16.304  0.00  0.00    +0.145 C 
ATOM     28  C   UNL     1      33.351 -23.154 -14.929  0.00  0.00    +0.037 C 
ATOM     29  C   UNL     1      32.042 -23.392 -16.946  0.00  0.00    +0.037 C 
ATOM     30  C   UNL     1      32.180 -23.142 -14.171  0.00  0.00    +0.003 C 
ATOM     31  C   UNL     1      30.871 -23.380 -16.187  0.00  0.00    +0.003 C 
ATOM     32  C   UNL     1      30.941 -23.255 -14.800  0.00  0.00    +0.000 C 
ENDBRANCH  26  27
ENDBRANCH  23  26
ENDBRANCH   2  20
TORSDOF 6
ENDMDL
