MODEL 1
REMARK VINA RESULT:     -15.6      0.000      0.000
REMARK  Name = 89670174
REMARK  4 active torsions:
REMARK  status: ('A' for Active; 'I' for Inactive)
REMARK    1  A    between atoms: C_3  and  C_13
REMARK    2  A    between atoms: C_9  and  O_26
REMARK    3  A    between atoms: C_18  and  C_25
REMARK    4  A    between atoms: O_26  and  C_30
REMARK                            x       y       z     vdW  Elec       q    Type
REMARK                         _______ _______ _______ _____ _____    ______ ____
ROOT
ATOM      1  O   UNL     1      34.959 -19.484 -24.269  0.00  0.00    -0.479 OA
ATOM      2  C   UNL     1      35.573 -18.561 -22.090  0.00  0.00    +0.072 C 
ATOM      3  C   UNL     1      34.624 -19.694 -21.733  0.00  0.00    +0.085 C 
ATOM      4  C   UNL     1      35.521 -19.821 -22.945  0.00  0.00    +0.174 C 
ATOM      5  C   UNL     1      35.158 -17.513 -23.058  0.00  0.00    +0.018 C 
ATOM      6  C   UNL     1      34.831 -18.104 -24.285  0.00  0.00    +0.135 C 
ATOM      7  C   UNL     1      35.061 -16.137 -22.917  0.00  0.00    +0.036 C 
ATOM      8  C   UNL     1      34.404 -17.375 -25.378  0.00  0.00    +0.040 C 
ATOM      9  C   UNL     1      34.635 -15.377 -24.011  0.00  0.00    +0.145 C 
ATOM     10  C   UNL     1      34.309 -15.992 -25.232  0.00  0.00    +0.041 C 
ENDROOT
BRANCH   3  13
ATOM     11  N   UNL     1      36.107 -20.615 -19.881  0.00  0.00    -0.318 N 
ATOM     12  N   UNL     1      33.985 -21.276 -19.910  0.00  0.00    -0.318 N 
ATOM     13  C   UNL     1      34.892 -20.535 -20.504  0.00  0.00    +0.148 C 
ATOM     14  C   UNL     1      35.974 -21.464 -18.813  0.00  0.00    +0.059 C 
ATOM     15  C   UNL     1      34.642 -21.863 -18.851  0.00  0.00    +0.059 C 
ATOM     16  C   UNL     1      36.879 -21.904 -17.845  0.00  0.00    +0.019 C 
ATOM     17  C   UNL     1      34.165 -22.754 -17.875  0.00  0.00    +0.016 C 
ATOM     18  C   UNL     1      36.387 -22.791 -16.881  0.00  0.00    +0.073 C 
ATOM     19  C   UNL     1      35.055 -23.208 -16.894  0.00  0.00    +0.005 C 
ATOM     20  H   UNL     1      36.930 -20.147 -20.152  0.00  0.00    +0.148 HD
ATOM     21  H   UNL     1      33.041 -21.387 -20.164  0.00  0.00    +0.148 HD
BRANCH  18  25
ATOM     22  F   UNL     1      37.188 -22.624 -14.634  0.00  0.00    -0.166 F 
ATOM     23  F   UNL     1      37.109 -24.608 -15.504  0.00  0.00    -0.166 F 
ATOM     24  F   UNL     1      38.619 -23.193 -16.170  0.00  0.00    -0.166 F 
ATOM     25  C   UNL     1      37.305 -23.295 -15.817  0.00  0.00    +0.419 C 
ENDBRANCH  18  25
ENDBRANCH   3  13
BRANCH   9  26
ATOM     26  O   UNL     1      34.530 -14.003 -23.890  0.00  0.00    -0.454 OA
BRANCH  26  30
ATOM     27  O   UNL     1      31.835  -8.332 -23.025  0.00  0.00    -0.275 OA
ATOM     28  N   UNL     1      31.806 -10.444 -22.125  0.00  0.00    -0.270 N 
ATOM     29  N   UNL     1      31.794 -12.580 -21.107  0.00  0.00    -0.229 NA
ATOM     30  C   UNL     1      33.649 -13.513 -22.973  0.00  0.00    +0.146 C 
ATOM     31  C   UNL     1      33.208 -12.190 -23.028  0.00  0.00    +0.045 C 
ATOM     32  C   UNL     1      33.618 -11.273 -24.140  0.00  0.00    +0.042 C 
ATOM     33  C   UNL     1      33.176 -14.360 -21.977  0.00  0.00    +0.058 C 
ATOM     34  C   UNL     1      32.284 -11.768 -22.074  0.00  0.00    +0.133 C 
ATOM     35  C   UNL     1      33.594  -9.823 -23.682  0.00  0.00    +0.090 C 
ATOM     36  C   UNL     1      32.316  -9.462 -22.950  0.00  0.00    +0.227 C 
ATOM     37  C   UNL     1      32.256 -13.849 -21.079  0.00  0.00    +0.103 C 
ATOM     38  H   UNL     1      31.057 -10.203 -21.533  0.00  0.00    +0.156 HD
ENDBRANCH  26  30
ENDBRANCH   9  26
TORSDOF 4
ENDMDL
MODEL 2
REMARK VINA RESULT:     -15.1      5.612     11.149
REMARK  Name = 89670174
REMARK  4 active torsions:
REMARK  status: ('A' for Active; 'I' for Inactive)
REMARK    1  A    between atoms: C_3  and  C_13
REMARK    2  A    between atoms: C_9  and  O_26
REMARK    3  A    between atoms: C_18  and  C_25
REMARK    4  A    between atoms: O_26  and  C_30
REMARK                            x       y       z     vdW  Elec       q    Type
REMARK                         _______ _______ _______ _____ _____    ______ ____
ROOT
ATOM      1  O   UNL     1      36.532 -19.203 -21.806  0.00  0.00    -0.479 OA
ATOM      2  C   UNL     1      34.205 -18.585 -21.378  0.00  0.00    +0.072 C 
ATOM      3  C   UNL     1      34.966 -17.301 -21.085  0.00  0.00    +0.085 C 
ATOM      4  C   UNL     1      35.468 -18.241 -22.159  0.00  0.00    +0.174 C 
ATOM      5  C   UNL     1      34.591 -19.854 -20.710  0.00  0.00    +0.018 C 
ATOM      6  C   UNL     1      35.928 -20.156 -21.001  0.00  0.00    +0.135 C 
ATOM      7  C   UNL     1      33.860 -20.710 -19.900  0.00  0.00    +0.036 C 
ATOM      8  C   UNL     1      36.567 -21.279 -20.512  0.00  0.00    +0.040 C 
ATOM      9  C   UNL     1      34.485 -21.855 -19.395  0.00  0.00    +0.145 C 
ATOM     10  C   UNL     1      35.828 -22.137 -19.699  0.00  0.00    +0.041 C 
ENDROOT
BRANCH   3  13
ATOM     11  N   UNL     1      33.485 -15.270 -20.686  0.00  0.00    -0.318 N 
ATOM     12  N   UNL     1      34.612 -15.349 -22.601  0.00  0.00    -0.318 N 
ATOM     13  C   UNL     1      34.360 -15.969 -21.471  0.00  0.00    +0.148 C 
ATOM     14  C   UNL     1      33.151 -14.120 -21.355  0.00  0.00    +0.059 C 
ATOM     15  C   UNL     1      33.867 -14.192 -22.546  0.00  0.00    +0.059 C 
ATOM     16  C   UNL     1      32.309 -13.056 -21.029  0.00  0.00    +0.019 C 
ATOM     17  C   UNL     1      33.748 -13.150 -23.481  0.00  0.00    +0.016 C 
ATOM     18  C   UNL     1      32.202 -12.027 -21.971  0.00  0.00    +0.073 C 
ATOM     19  C   UNL     1      32.909 -12.071 -23.175  0.00  0.00    +0.005 C 
ATOM     20  H   UNL     1      33.154 -15.543 -19.800  0.00  0.00    +0.148 HD
ATOM     21  H   UNL     1      35.205 -15.645 -23.328  0.00  0.00    +0.148 HD
BRANCH  18  25
ATOM     22  F   UNL     1      31.095 -10.061 -22.765  0.00  0.00    -0.166 F 
ATOM     23  F   UNL     1      30.079 -11.210 -21.232  0.00  0.00    -0.166 F 
ATOM     24  F   UNL     1      31.838 -10.039 -20.721  0.00  0.00    -0.166 F 
ATOM     25  C   UNL     1      31.320 -10.859 -21.680  0.00  0.00    +0.419 C 
ENDBRANCH  18  25
ENDBRANCH   3  13
BRANCH   9  26
ATOM     26  O   UNL     1      33.773 -22.721 -18.584  0.00  0.00    -0.454 OA
BRANCH  26  30
ATOM     27  O   UNL     1      30.863 -23.978 -13.095  0.00  0.00    -0.275 OA
ATOM     28  N   UNL     1      32.982 -23.690 -13.933  0.00  0.00    -0.270 N 
ATOM     29  N   UNL     1      35.182 -23.324 -14.723  0.00  0.00    -0.229 NA
ATOM     30  C   UNL     1      34.215 -22.901 -17.308  0.00  0.00    +0.146 C 
ATOM     31  C   UNL     1      33.327 -23.181 -16.267  0.00  0.00    +0.045 C 
ATOM     32  C   UNL     1      31.863 -23.375 -16.517  0.00  0.00    +0.042 C 
ATOM     33  C   UNL     1      35.579 -22.816 -17.051  0.00  0.00    +0.058 C 
ATOM     34  C   UNL     1      33.856 -23.382 -14.993  0.00  0.00    +0.133 C 
ATOM     35  C   UNL     1      31.052 -23.015 -15.283  0.00  0.00    +0.090 C 
ATOM     36  C   UNL     1      31.605 -23.637 -14.016  0.00  0.00    +0.227 C 
ATOM     37  C   UNL     1      36.006 -23.037 -15.754  0.00  0.00    +0.103 C 
ATOM     38  H   UNL     1      33.379 -23.962 -13.073  0.00  0.00    +0.156 HD
ENDBRANCH  26  30
ENDBRANCH   9  26
TORSDOF 4
ENDMDL
MODEL 3
REMARK VINA RESULT:     -15.0      5.782     11.320
REMARK  Name = 89670174
REMARK  4 active torsions:
REMARK  status: ('A' for Active; 'I' for Inactive)
REMARK    1  A    between atoms: C_3  and  C_13
REMARK    2  A    between atoms: C_9  and  O_26
REMARK    3  A    between atoms: C_18  and  C_25
REMARK    4  A    between atoms: O_26  and  C_30
REMARK                            x       y       z     vdW  Elec       q    Type
REMARK                         _______ _______ _______ _____ _____    ______ ____
ROOT
ATOM      1  O   UNL     1      37.344 -19.848 -19.856  0.00  0.00    -0.479 OA
ATOM      2  C   UNL     1      35.340 -20.043 -21.242  0.00  0.00    +0.072 C 
ATOM      3  C   UNL     1      35.443 -18.547 -20.989  0.00  0.00    +0.085 C 
ATOM      4  C   UNL     1      36.703 -19.378 -21.101  0.00  0.00    +0.174 C 
ATOM      5  C   UNL     1      35.342 -20.998 -20.105  0.00  0.00    +0.018 C 
ATOM      6  C   UNL     1      36.517 -20.843 -19.358  0.00  0.00    +0.135 C 
ATOM      7  C   UNL     1      34.408 -21.946 -19.716  0.00  0.00    +0.036 C 
ATOM      8  C   UNL     1      36.796 -21.595 -18.233  0.00  0.00    +0.040 C 
ATOM      9  C   UNL     1      34.670 -22.723 -18.582  0.00  0.00    +0.145 C 
ATOM     10  C   UNL     1      35.855 -22.548 -17.847  0.00  0.00    +0.041 C 
ENDROOT
BRANCH   3  13
ATOM     11  N   UNL     1      34.966 -16.225 -21.914  0.00  0.00    -0.318 N 
ATOM     12  N   UNL     1      34.833 -17.932 -23.331  0.00  0.00    -0.318 N 
ATOM     13  C   UNL     1      35.079 -17.576 -22.091  0.00  0.00    +0.148 C 
ATOM     14  C   UNL     1      34.624 -15.672 -23.122  0.00  0.00    +0.059 C 
ATOM     15  C   UNL     1      34.548 -16.757 -23.990  0.00  0.00    +0.059 C 
ATOM     16  C   UNL     1      34.383 -14.356 -23.518  0.00  0.00    +0.019 C 
ATOM     17  C   UNL     1      34.212 -16.536 -25.336  0.00  0.00    +0.016 C 
ATOM     18  C   UNL     1      34.050 -14.153 -24.861  0.00  0.00    +0.073 C 
ATOM     19  C   UNL     1      33.966 -15.223 -25.755  0.00  0.00    +0.005 C 
ATOM     20  H   UNL     1      35.104 -15.736 -21.071  0.00  0.00    +0.148 HD
ATOM     21  H   UNL     1      34.850 -18.841 -23.708  0.00  0.00    +0.148 HD
BRANCH  18  25
ATOM     22  F   UNL     1      32.948 -12.057 -24.532  0.00  0.00    -0.166 F 
ATOM     23  F   UNL     1      34.907 -12.002 -25.460  0.00  0.00    -0.166 F 
ATOM     24  F   UNL     1      33.199 -12.748 -26.579  0.00  0.00    -0.166 F 
ATOM     25  C   UNL     1      33.783 -12.767 -25.346  0.00  0.00    +0.419 C 
ENDBRANCH  18  25
ENDBRANCH   3  13
BRANCH   9  26
ATOM     26  O   UNL     1      33.750 -23.674 -18.178  0.00  0.00    -0.454 OA
BRANCH  26  30
ATOM     27  O   UNL     1      34.959 -24.339 -11.991  0.00  0.00    -0.275 OA
ATOM     28  N   UNL     1      33.306 -23.561 -13.383  0.00  0.00    -0.270 N 
ATOM     29  N   UNL     1      31.537 -22.819 -14.767  0.00  0.00    -0.229 NA
ATOM     30  C   UNL     1      33.031 -23.419 -17.049  0.00  0.00    +0.146 C 
ATOM     31  C   UNL     1      33.564 -23.661 -15.781  0.00  0.00    +0.045 C 
ATOM     32  C   UNL     1      34.974 -24.134 -15.601  0.00  0.00    +0.042 C 
ATOM     33  C   UNL     1      31.749 -22.896 -17.173  0.00  0.00    +0.058 C 
ATOM     34  C   UNL     1      32.780 -23.349 -14.671  0.00  0.00    +0.133 C 
ATOM     35  C   UNL     1      35.118 -24.925 -14.311  0.00  0.00    +0.090 C 
ATOM     36  C   UNL     1      34.487 -24.227 -13.123  0.00  0.00    +0.227 C 
ATOM     37  C   UNL     1      31.052 -22.613 -16.012  0.00  0.00    +0.103 C 
ATOM     38  H   UNL     1      32.798 -23.211 -12.615  0.00  0.00    +0.156 HD
ENDBRANCH  26  30
ENDBRANCH   9  26
TORSDOF 4
ENDMDL
MODEL 4
REMARK VINA RESULT:     -14.9      2.554      4.428
REMARK  Name = 89670174
REMARK  4 active torsions:
REMARK  status: ('A' for Active; 'I' for Inactive)
REMARK    1  A    between atoms: C_3  and  C_13
REMARK    2  A    between atoms: C_9  and  O_26
REMARK    3  A    between atoms: C_18  and  C_25
REMARK    4  A    between atoms: O_26  and  C_30
REMARK                            x       y       z     vdW  Elec       q    Type
REMARK                         _______ _______ _______ _____ _____    ______ ____
ROOT
ATOM      1  O   UNL     1      33.060 -22.002 -20.113  0.00  0.00    -0.479 OA
ATOM      2  C   UNL     1      35.385 -21.820 -19.380  0.00  0.00    +0.072 C 
ATOM      3  C   UNL     1      34.621 -21.994 -18.076  0.00  0.00    +0.085 C 
ATOM      4  C   UNL     1      34.121 -22.671 -19.334  0.00  0.00    +0.174 C 
ATOM      5  C   UNL     1      35.002 -20.749 -20.335  0.00  0.00    +0.018 C 
ATOM      6  C   UNL     1      33.666 -20.915 -20.724  0.00  0.00    +0.135 C 
ATOM      7  C   UNL     1      35.736 -19.692 -20.852  0.00  0.00    +0.036 C 
ATOM      8  C   UNL     1      33.030 -20.063 -21.605  0.00  0.00    +0.040 C 
ATOM      9  C   UNL     1      35.114 -18.817 -21.749  0.00  0.00    +0.145 C 
ATOM     10  C   UNL     1      33.772 -19.002 -22.123  0.00  0.00    +0.041 C 
ENDROOT
BRANCH   3  13
ATOM     11  N   UNL     1      36.505 -22.678 -16.508  0.00  0.00    -0.318 N 
ATOM     12  N   UNL     1      34.576 -23.766 -16.318  0.00  0.00    -0.318 N 
ATOM     13  C   UNL     1      35.224 -22.822 -16.962  0.00  0.00    +0.148 C 
ATOM     14  C   UNL     1      36.697 -23.590 -15.502  0.00  0.00    +0.059 C 
ATOM     15  C   UNL     1      35.480 -24.257 -15.401  0.00  0.00    +0.059 C 
ATOM     16  C   UNL     1      37.799 -23.880 -14.695  0.00  0.00    +0.019 C 
ATOM     17  C   UNL     1      35.333 -25.276 -14.446  0.00  0.00    +0.016 C 
ATOM     18  C   UNL     1      37.636 -24.898 -13.750  0.00  0.00    +0.073 C 
ATOM     19  C   UNL     1      36.425 -25.584 -13.626  0.00  0.00    +0.005 C 
ATOM     20  H   UNL     1      37.171 -22.035 -16.843  0.00  0.00    +0.148 HD
ATOM     21  H   UNL     1      33.647 -24.059 -16.458  0.00  0.00    +0.148 HD
BRANCH  18  25
ATOM     22  F   UNL     1      39.896 -25.647 -13.531  0.00  0.00    -0.166 F 
ATOM     23  F   UNL     1      39.185 -24.225 -12.056  0.00  0.00    -0.166 F 
ATOM     24  F   UNL     1      38.478 -26.280 -12.009  0.00  0.00    -0.166 F 
ATOM     25  C   UNL     1      38.777 -25.253 -12.855  0.00  0.00    +0.419 C 
ENDBRANCH  18  25
ENDBRANCH   3  13
BRANCH   9  26
ATOM     26  O   UNL     1      35.829 -17.756 -22.275  0.00  0.00    -0.454 OA
BRANCH  26  30
ATOM     27  O   UNL     1      32.154 -12.741 -21.041  0.00  0.00    -0.275 OA
ATOM     28  N   UNL     1      33.037 -13.870 -22.835  0.00  0.00    -0.270 N 
ATOM     29  N   UNL     1      33.854 -15.040 -24.722  0.00  0.00    -0.229 NA
ATOM     30  C   UNL     1      35.157 -16.868 -23.062  0.00  0.00    +0.146 C 
ATOM     31  C   UNL     1      34.411 -15.828 -22.505  0.00  0.00    +0.045 C 
ATOM     32  C   UNL     1      34.379 -15.591 -21.027  0.00  0.00    +0.042 C 
ATOM     33  C   UNL     1      35.235 -17.003 -24.443  0.00  0.00    +0.058 C 
ATOM     34  C   UNL     1      33.775 -14.942 -23.373  0.00  0.00    +0.133 C 
ATOM     35  C   UNL     1      33.082 -14.910 -20.617  0.00  0.00    +0.090 C 
ATOM     36  C   UNL     1      32.742 -13.723 -21.495  0.00  0.00    +0.227 C 
ATOM     37  C   UNL     1      34.574 -16.069 -25.221  0.00  0.00    +0.103 C 
ATOM     38  H   UNL     1      32.710 -13.180 -23.456  0.00  0.00    +0.156 HD
ENDBRANCH  26  30
ENDBRANCH   9  26
TORSDOF 4
ENDMDL
MODEL 5
REMARK VINA RESULT:     -14.8      1.884      2.424
REMARK  Name = 89670174
REMARK  4 active torsions:
REMARK  status: ('A' for Active; 'I' for Inactive)
REMARK    1  A    between atoms: C_3  and  C_13
REMARK    2  A    between atoms: C_9  and  O_26
REMARK    3  A    between atoms: C_18  and  C_25
REMARK    4  A    between atoms: O_26  and  C_30
REMARK                            x       y       z     vdW  Elec       q    Type
REMARK                         _______ _______ _______ _____ _____    ______ ____
ROOT
ATOM      1  O   UNL     1      35.059 -19.712 -23.918  0.00  0.00    -0.479 OA
ATOM      2  C   UNL     1      35.129 -18.854 -21.630  0.00  0.00    +0.072 C 
ATOM      3  C   UNL     1      34.042 -19.916 -21.571  0.00  0.00    +0.085 C 
ATOM      4  C   UNL     1      35.220 -20.100 -22.503  0.00  0.00    +0.174 C 
ATOM      5  C   UNL     1      35.063 -17.771 -22.644  0.00  0.00    +0.018 C 
ATOM      6  C   UNL     1      35.036 -18.326 -23.930  0.00  0.00    +0.135 C 
ATOM      7  C   UNL     1      35.028 -16.393 -22.496  0.00  0.00    +0.036 C 
ATOM      8  C   UNL     1      34.970 -17.559 -25.077  0.00  0.00    +0.040 C 
ATOM      9  C   UNL     1      34.964 -15.595 -23.644  0.00  0.00    +0.145 C 
ATOM     10  C   UNL     1      34.936 -16.174 -24.924  0.00  0.00    +0.041 C 
ENDROOT
BRANCH   3  13
ATOM     11  N   UNL     1      32.723 -21.080 -19.732  0.00  0.00    -0.318 N 
ATOM     12  N   UNL     1      34.930 -21.341 -19.723  0.00  0.00    -0.318 N 
ATOM     13  C   UNL     1      33.912 -20.784 -20.338  0.00  0.00    +0.148 C 
ATOM     14  C   UNL     1      32.993 -21.883 -18.653  0.00  0.00    +0.059 C 
ATOM     15  C   UNL     1      34.376 -22.032 -18.669  0.00  0.00    +0.059 C 
ATOM     16  C   UNL     1      32.169 -22.474 -17.693  0.00  0.00    +0.019 C 
ATOM     17  C   UNL     1      34.993 -22.813 -17.677  0.00  0.00    +0.016 C 
ATOM     18  C   UNL     1      32.799 -23.248 -16.713  0.00  0.00    +0.073 C 
ATOM     19  C   UNL     1      34.186 -23.416 -16.704  0.00  0.00    +0.005 C 
ATOM     20  H   UNL     1      31.833 -20.772 -20.018  0.00  0.00    +0.148 HD
ATOM     21  H   UNL     1      35.883 -21.280 -19.963  0.00  0.00    +0.148 HD
BRANCH  18  25
ATOM     22  F   UNL     1      31.342 -23.027 -14.830  0.00  0.00    -0.166 F 
ATOM     23  F   UNL     1      30.978 -24.698 -16.163  0.00  0.00    -0.166 F 
ATOM     24  F   UNL     1      32.709 -24.718 -14.848  0.00  0.00    -0.166 F 
ATOM     25  C   UNL     1      31.972 -23.909 -15.661  0.00  0.00    +0.419 C 
ENDBRANCH  18  25
ENDBRANCH   3  13
BRANCH   9  26
ATOM     26  O   UNL     1      34.927 -14.217 -23.517  0.00  0.00    -0.454 OA
BRANCH  26  30
ATOM     27  O   UNL     1      31.986  -8.603 -23.559  0.00  0.00    -0.275 OA
ATOM     28  N   UNL     1      31.907 -10.617 -22.460  0.00  0.00    -0.270 N 
ATOM     29  N   UNL     1      31.830 -12.643 -21.240  0.00  0.00    -0.229 NA
ATOM     30  C   UNL     1      33.926 -13.677 -22.767  0.00  0.00    +0.146 C 
ATOM     31  C   UNL     1      33.458 -12.384 -23.008  0.00  0.00    +0.045 C 
ATOM     32  C   UNL     1      33.975 -11.563 -24.150  0.00  0.00    +0.042 C 
ATOM     33  C   UNL     1      33.359 -14.441 -21.754  0.00  0.00    +0.058 C 
ATOM     34  C   UNL     1      32.412 -11.909 -22.218  0.00  0.00    +0.133 C 
ATOM     35  C   UNL     1      33.854 -10.078 -23.846  0.00  0.00    +0.090 C 
ATOM     36  C   UNL     1      32.487  -9.700 -23.313  0.00  0.00    +0.227 C 
ATOM     37  C   UNL     1      32.321 -13.884 -21.029  0.00  0.00    +0.103 C 
ATOM     38  H   UNL     1      31.084 -10.350 -21.989  0.00  0.00    +0.156 HD
ENDBRANCH  26  30
ENDBRANCH   9  26
TORSDOF 4
ENDMDL
MODEL 6
REMARK VINA RESULT:     -14.7      1.775      2.654
REMARK  Name = 89670174
REMARK  4 active torsions:
REMARK  status: ('A' for Active; 'I' for Inactive)
REMARK    1  A    between atoms: C_3  and  C_13
REMARK    2  A    between atoms: C_9  and  O_26
REMARK    3  A    between atoms: C_18  and  C_25
REMARK    4  A    between atoms: O_26  and  C_30
REMARK                            x       y       z     vdW  Elec       q    Type
REMARK                         _______ _______ _______ _____ _____    ______ ____
ROOT
ATOM      1  O   UNL     1      34.556 -17.411 -25.539  0.00  0.00    -0.479 OA
ATOM      2  C   UNL     1      35.029 -16.843 -23.209  0.00  0.00    +0.072 C 
ATOM      3  C   UNL     1      34.146 -18.076 -23.094  0.00  0.00    +0.085 C 
ATOM      4  C   UNL     1      35.091 -17.937 -24.267  0.00  0.00    +0.174 C 
ATOM      5  C   UNL     1      34.579 -15.671 -24.002  0.00  0.00    +0.018 C 
ATOM      6  C   UNL     1      34.336 -16.059 -25.326  0.00  0.00    +0.135 C 
ATOM      7  C   UNL     1      34.386 -14.348 -23.633  0.00  0.00    +0.036 C 
ATOM      8  C   UNL     1      33.900 -15.179 -26.297  0.00  0.00    +0.040 C 
ATOM      9  C   UNL     1      33.948 -13.437 -24.601  0.00  0.00    +0.145 C 
ATOM     10  C   UNL     1      33.708 -13.850 -25.923  0.00  0.00    +0.041 C 
ENDROOT
BRANCH   3  13
ATOM     11  N   UNL     1      33.455 -19.777 -21.331  0.00  0.00    -0.318 N 
ATOM     12  N   UNL     1      35.633 -19.439 -21.623  0.00  0.00    -0.318 N 
ATOM     13  C   UNL     1      34.426 -19.099 -22.015  0.00  0.00    +0.148 C 
ATOM     14  C   UNL     1      34.079 -20.612 -20.439  0.00  0.00    +0.059 C 
ATOM     15  C   UNL     1      35.436 -20.383 -20.640  0.00  0.00    +0.059 C 
ATOM     16  C   UNL     1      33.585 -21.520 -19.501  0.00  0.00    +0.019 C 
ATOM     17  C   UNL     1      36.372 -21.092 -19.869  0.00  0.00    +0.016 C 
ATOM     18  C   UNL     1      34.531 -22.217 -18.742  0.00  0.00    +0.073 C 
ATOM     19  C   UNL     1      35.900 -22.009 -18.922  0.00  0.00    +0.005 C 
ATOM     20  H   UNL     1      32.484 -19.683 -21.457  0.00  0.00    +0.148 HD
ATOM     21  H   UNL     1      36.492 -19.095 -21.959  0.00  0.00    +0.148 HD
BRANCH  18  25
ATOM     22  F   UNL     1      33.714 -24.412 -18.257  0.00  0.00    -0.166 F 
ATOM     23  F   UNL     1      35.001 -23.493 -16.774  0.00  0.00    -0.166 F 
ATOM     24  F   UNL     1      32.968 -22.772 -17.040  0.00  0.00    -0.166 F 
ATOM     25  C   UNL     1      34.065 -23.205 -17.724  0.00  0.00    +0.419 C 
ENDBRANCH  18  25
ENDBRANCH   3  13
BRANCH   9  26
ATOM     26  O   UNL     1      33.748 -12.113 -24.252  0.00  0.00    -0.454 OA
BRANCH  26  30
ATOM     27  O   UNL     1      31.675  -6.791 -21.505  0.00  0.00    -0.275 OA
ATOM     28  N   UNL     1      31.605  -9.066 -21.200  0.00  0.00    -0.270 N 
ATOM     29  N   UNL     1      31.567 -11.395 -20.791  0.00  0.00    -0.229 NA
ATOM     30  C   UNL     1      33.051 -11.857 -23.110  0.00  0.00    +0.146 C 
ATOM     31  C   UNL     1      32.715 -10.553 -22.744  0.00  0.00    +0.045 C 
ATOM     32  C   UNL     1      33.034  -9.385 -23.626  0.00  0.00    +0.042 C 
ATOM     33  C   UNL     1      32.660 -12.924 -22.309  0.00  0.00    +0.058 C 
ATOM     34  C   UNL     1      31.976 -10.371 -21.576  0.00  0.00    +0.133 C 
ATOM     35  C   UNL     1      33.194  -8.115 -22.805  0.00  0.00    +0.090 C 
ATOM     36  C   UNL     1      32.069  -7.917 -21.809  0.00  0.00    +0.227 C 
ATOM     37  C   UNL     1      31.924 -12.642 -21.172  0.00  0.00    +0.103 C 
ATOM     38  H   UNL     1      30.971  -8.965 -20.453  0.00  0.00    +0.156 HD
ENDBRANCH  26  30
ENDBRANCH   9  26
TORSDOF 4
ENDMDL
MODEL 7
REMARK VINA RESULT:     -14.7      5.957     11.447
REMARK  Name = 89670174
REMARK  4 active torsions:
REMARK  status: ('A' for Active; 'I' for Inactive)
REMARK    1  A    between atoms: C_3  and  C_13
REMARK    2  A    between atoms: C_9  and  O_26
REMARK    3  A    between atoms: C_18  and  C_25
REMARK    4  A    between atoms: O_26  and  C_30
REMARK                            x       y       z     vdW  Elec       q    Type
REMARK                         _______ _______ _______ _____ _____    ______ ____
ROOT
ATOM      1  O   UNL     1      37.337 -19.582 -21.022  0.00  0.00    -0.479 OA
ATOM      2  C   UNL     1      34.986 -19.243 -21.600  0.00  0.00    +0.072 C 
ATOM      3  C   UNL     1      35.504 -17.827 -21.406  0.00  0.00    +0.085 C 
ATOM      4  C   UNL     1      36.425 -18.893 -21.958  0.00  0.00    +0.174 C 
ATOM      5  C   UNL     1      35.170 -20.261 -20.535  0.00  0.00    +0.018 C 
ATOM      6  C   UNL     1      36.535 -20.415 -20.258  0.00  0.00    +0.135 C 
ATOM      7  C   UNL     1      34.243 -21.019 -19.835  0.00  0.00    +0.036 C 
ATOM      8  C   UNL     1      37.012 -21.293 -19.304  0.00  0.00    +0.040 C 
ATOM      9  C   UNL     1      34.702 -21.917 -18.867  0.00  0.00    +0.145 C 
ATOM     10  C   UNL     1      36.077 -22.053 -18.603  0.00  0.00    +0.041 C 
ENDROOT
BRANCH   3  13
ATOM     11  N   UNL     1      34.729 -16.880 -23.638  0.00  0.00    -0.318 N 
ATOM     12  N   UNL     1      34.791 -15.487 -21.908  0.00  0.00    -0.318 N 
ATOM     13  C   UNL     1      35.006 -16.719 -22.309  0.00  0.00    +0.148 C 
ATOM     14  C   UNL     1      34.306 -15.671 -24.127  0.00  0.00    +0.059 C 
ATOM     15  C   UNL     1      34.353 -14.818 -23.028  0.00  0.00    +0.059 C 
ATOM     16  C   UNL     1      33.898 -15.262 -25.398  0.00  0.00    +0.019 C 
ATOM     17  C   UNL     1      33.974 -13.474 -23.187  0.00  0.00    +0.016 C 
ATOM     18  C   UNL     1      33.525 -13.921 -25.538  0.00  0.00    +0.073 C 
ATOM     19  C   UNL     1      33.562 -13.042 -24.454  0.00  0.00    +0.005 C 
ATOM     20  H   UNL     1      34.818 -17.715 -24.153  0.00  0.00    +0.148 HD
ATOM     21  H   UNL     1      34.915 -15.121 -21.002  0.00  0.00    +0.148 HD
BRANCH  18  25
ATOM     22  F   UNL     1      32.038 -14.137 -27.398  0.00  0.00    -0.166 F 
ATOM     23  F   UNL     1      32.650 -12.128 -26.858  0.00  0.00    -0.166 F 
ATOM     24  F   UNL     1      34.068 -13.474 -27.809  0.00  0.00    -0.166 F 
ATOM     25  C   UNL     1      33.077 -13.425 -26.873  0.00  0.00    +0.419 C 
ENDBRANCH  18  25
ENDBRANCH   3  13
BRANCH   9  26
ATOM     26  O   UNL     1      33.793 -22.681 -18.157  0.00  0.00    -0.454 OA
BRANCH  26  30
ATOM     27  O   UNL     1      30.547 -24.458 -13.011  0.00  0.00    -0.275 OA
ATOM     28  N   UNL     1      32.716 -24.291 -13.747  0.00  0.00    -0.270 N 
ATOM     29  N   UNL     1      34.972 -24.064 -14.421  0.00  0.00    -0.229 NA
ATOM     30  C   UNL     1      34.161 -23.117 -16.919  0.00  0.00    +0.146 C 
ATOM     31  C   UNL     1      33.208 -23.454 -15.957  0.00  0.00    +0.045 C 
ATOM     32  C   UNL     1      31.742 -23.431 -16.265  0.00  0.00    +0.042 C 
ATOM     33  C   UNL     1      35.515 -23.236 -16.625  0.00  0.00    +0.058 C 
ATOM     34  C   UNL     1      33.660 -23.920 -14.723  0.00  0.00    +0.133 C 
ATOM     35  C   UNL     1      30.929 -23.182 -15.005  0.00  0.00    +0.090 C 
ATOM     36  C   UNL     1      31.358 -24.062 -13.848  0.00  0.00    +0.227 C 
ATOM     37  C   UNL     1      35.863 -23.714 -15.374  0.00  0.00    +0.103 C 
ATOM     38  H   UNL     1      33.046 -24.743 -12.937  0.00  0.00    +0.156 HD
ENDBRANCH  26  30
ENDBRANCH   9  26
TORSDOF 4
ENDMDL
MODEL 8
REMARK VINA RESULT:     -14.5      5.830     11.427
REMARK  Name = 89670174
REMARK  4 active torsions:
REMARK  status: ('A' for Active; 'I' for Inactive)
REMARK    1  A    between atoms: C_3  and  C_13
REMARK    2  A    between atoms: C_9  and  O_26
REMARK    3  A    between atoms: C_18  and  C_25
REMARK    4  A    between atoms: O_26  and  C_30
REMARK                            x       y       z     vdW  Elec       q    Type
REMARK                         _______ _______ _______ _____ _____    ______ ____
ROOT
ATOM      1  O   UNL     1      33.434 -15.148 -25.807  0.00  0.00    -0.479 OA
ATOM      2  C   UNL     1      33.676 -14.315 -23.522  0.00  0.00    +0.072 C 
ATOM      3  C   UNL     1      34.264 -13.194 -24.365  0.00  0.00    +0.085 C 
ATOM      4  C   UNL     1      33.118 -14.019 -24.909  0.00  0.00    +0.174 C 
ATOM      5  C   UNL     1      34.169 -15.707 -23.677  0.00  0.00    +0.018 C 
ATOM      6  C   UNL     1      33.993 -16.128 -25.002  0.00  0.00    +0.135 C 
ATOM      7  C   UNL     1      34.734 -16.575 -22.755  0.00  0.00    +0.036 C 
ATOM      8  C   UNL     1      34.365 -17.381 -25.446  0.00  0.00    +0.040 C 
ATOM      9  C   UNL     1      35.116 -17.852 -23.181  0.00  0.00    +0.145 C 
ATOM     10  C   UNL     1      34.932 -18.252 -24.516  0.00  0.00    +0.041 C 
ENDROOT
BRANCH   3  13
ATOM     11  N   UNL     1      32.911 -11.311 -23.316  0.00  0.00    -0.318 N 
ATOM     12  N   UNL     1      34.885 -10.782 -24.191  0.00  0.00    -0.318 N 
ATOM     13  C   UNL     1      34.032 -11.754 -23.961  0.00  0.00    +0.148 C 
ATOM     14  C   UNL     1      33.051  -9.961 -23.116  0.00  0.00    +0.059 C 
ATOM     15  C   UNL     1      34.291  -9.655 -23.669  0.00  0.00    +0.059 C 
ATOM     16  C   UNL     1      32.224  -9.011 -22.515  0.00  0.00    +0.019 C 
ATOM     17  C   UNL     1      34.749  -8.328 -23.631  0.00  0.00    +0.016 C 
ATOM     18  C   UNL     1      32.696  -7.694 -22.486  0.00  0.00    +0.073 C 
ATOM     19  C   UNL     1      33.936  -7.357 -23.034  0.00  0.00    +0.005 C 
ATOM     20  H   UNL     1      32.142 -11.861 -23.045  0.00  0.00    +0.148 HD
ATOM     21  H   UNL     1      35.761 -10.845 -24.637  0.00  0.00    +0.148 HD
BRANCH  18  25
ATOM     22  F   UNL     1      32.427  -5.392 -21.898  0.00  0.00    -0.166 F 
ATOM     23  F   UNL     1      30.633  -6.484 -22.438  0.00  0.00    -0.166 F 
ATOM     24  F   UNL     1      31.610  -6.877 -20.536  0.00  0.00    -0.166 F 
ATOM     25  C   UNL     1      31.858  -6.632 -21.855  0.00  0.00    +0.419 C 
ENDBRANCH  18  25
ENDBRANCH   3  13
BRANCH   9  26
ATOM     26  O   UNL     1      35.683 -18.733 -22.277  0.00  0.00    -0.454 OA
BRANCH  26  30
ATOM     27  O   UNL     1      36.530 -22.671 -17.384  0.00  0.00    -0.275 OA
ATOM     28  N   UNL     1      34.840 -21.853 -18.706  0.00  0.00    -0.270 N 
ATOM     29  N   UNL     1      33.070 -21.105 -20.086  0.00  0.00    -0.229 NA
ATOM     30  C   UNL     1      34.844 -19.533 -21.561  0.00  0.00    +0.146 C 
ATOM     31  C   UNL     1      35.315 -20.310 -20.501  0.00  0.00    +0.045 C 
ATOM     32  C   UNL     1      36.742 -20.239 -20.051  0.00  0.00    +0.042 C 
ATOM     33  C   UNL     1      33.494 -19.558 -21.892  0.00  0.00    +0.058 C 
ATOM     34  C   UNL     1      34.393 -21.081 -19.795  0.00  0.00    +0.133 C 
ATOM     35  C   UNL     1      37.169 -21.547 -19.403  0.00  0.00    +0.090 C 
ATOM     36  C   UNL     1      36.168 -22.049 -18.382  0.00  0.00    +0.227 C 
ATOM     37  C   UNL     1      32.657 -20.351 -21.128  0.00  0.00    +0.103 C 
ATOM     38  H   UNL     1      34.161 -22.282 -18.137  0.00  0.00    +0.156 HD
ENDBRANCH  26  30
ENDBRANCH   9  26
TORSDOF 4
ENDMDL
MODEL 9
REMARK VINA RESULT:     -14.3      5.052      8.569
REMARK  Name = 89670174
REMARK  4 active torsions:
REMARK  status: ('A' for Active; 'I' for Inactive)
REMARK    1  A    between atoms: C_3  and  C_13
REMARK    2  A    between atoms: C_9  and  O_26
REMARK    3  A    between atoms: C_18  and  C_25
REMARK    4  A    between atoms: O_26  and  C_30
REMARK                            x       y       z     vdW  Elec       q    Type
REMARK                         _______ _______ _______ _____ _____    ______ ____
ROOT
ATOM      1  O   UNL     1      31.571 -10.834 -21.197  0.00  0.00    -0.479 OA
ATOM      2  C   UNL     1      32.817 -11.171 -23.273  0.00  0.00    +0.072 C 
ATOM      3  C   UNL     1      33.344 -12.274 -22.368  0.00  0.00    +0.085 C 
ATOM      4  C   UNL     1      31.905 -11.824 -22.241  0.00  0.00    +0.174 C 
ATOM      5  C   UNL     1      32.835  -9.757 -22.820  0.00  0.00    +0.018 C 
ATOM      6  C   UNL     1      32.098  -9.629 -21.635  0.00  0.00    +0.135 C 
ATOM      7  C   UNL     1      33.438  -8.637 -23.371  0.00  0.00    +0.036 C 
ATOM      8  C   UNL     1      31.942  -8.426 -20.975  0.00  0.00    +0.040 C 
ATOM      9  C   UNL     1      33.291  -7.406 -22.723  0.00  0.00    +0.145 C 
ATOM     10  C   UNL     1      32.549  -7.302 -21.534  0.00  0.00    +0.041 C 
ENDROOT
BRANCH   3  13
ATOM     11  N   UNL     1      34.224 -14.659 -22.245  0.00  0.00    -0.318 N 
ATOM     12  N   UNL     1      33.427 -13.967 -24.201  0.00  0.00    -0.318 N 
ATOM     13  C   UNL     1      33.660 -13.633 -22.952  0.00  0.00    +0.148 C 
ATOM     14  C   UNL     1      34.363 -15.726 -23.096  0.00  0.00    +0.059 C 
ATOM     15  C   UNL     1      33.858 -15.270 -24.310  0.00  0.00    +0.059 C 
ATOM     16  C   UNL     1      34.872 -17.013 -22.912  0.00  0.00    +0.019 C 
ATOM     17  C   UNL     1      33.852 -16.134 -25.417  0.00  0.00    +0.016 C 
ATOM     18  C   UNL     1      34.859 -17.860 -24.025  0.00  0.00    +0.073 C 
ATOM     19  C   UNL     1      34.358 -17.430 -25.256  0.00  0.00    +0.005 C 
ATOM     20  H   UNL     1      34.484 -14.635 -21.296  0.00  0.00    +0.148 HD
ATOM     21  H   UNL     1      33.029 -13.408 -24.907  0.00  0.00    +0.148 HD
BRANCH  18  25
ATOM     22  F   UNL     1      34.862 -19.932 -22.831  0.00  0.00    -0.166 F 
ATOM     23  F   UNL     1      35.139 -20.036 -24.979  0.00  0.00    -0.166 F 
ATOM     24  F   UNL     1      36.739 -19.280 -23.715  0.00  0.00    -0.166 F 
ATOM     25  C   UNL     1      35.387 -19.249 -23.891  0.00  0.00    +0.419 C 
ENDBRANCH  18  25
ENDBRANCH   3  13
BRANCH   9  26
ATOM     26  O   UNL     1      33.886  -6.277 -23.256  0.00  0.00    -0.454 OA
BRANCH  26  30
ATOM     27  O   UNL     1      34.813  -4.154 -29.156  0.00  0.00    -0.275 OA
ATOM     28  N   UNL     1      33.210  -4.125 -27.512  0.00  0.00    -0.270 N 
ATOM     29  N   UNL     1      31.555  -3.993 -25.826  0.00  0.00    -0.229 NA
ATOM     30  C   UNL     1      33.145  -5.511 -24.105  0.00  0.00    +0.146 C 
ATOM     31  C   UNL     1      33.605  -5.196 -25.385  0.00  0.00    +0.045 C 
ATOM     32  C   UNL     1      34.893  -5.749 -25.913  0.00  0.00    +0.042 C 
ATOM     33  C   UNL     1      31.902  -5.052 -23.683  0.00  0.00    +0.058 C 
ATOM     34  C   UNL     1      32.778  -4.433 -26.208  0.00  0.00    +0.133 C 
ATOM     35  C   UNL     1      35.493  -4.820 -26.956  0.00  0.00    +0.090 C 
ATOM     36  C   UNL     1      34.481  -4.371 -27.991  0.00  0.00    +0.227 C 
ATOM     37  C   UNL     1      31.153  -4.307 -24.575  0.00  0.00    +0.103 C 
ATOM     38  H   UNL     1      32.563  -3.704 -28.123  0.00  0.00    +0.156 HD
ENDBRANCH  26  30
ENDBRANCH   9  26
TORSDOF 4
ENDMDL
