MODEL 1
REMARK VINA RESULT:     -14.9      0.000      0.000
REMARK  Name = 10074640
REMARK  6 active torsions:
REMARK  status: ('A' for Active; 'I' for Inactive)
REMARK    1  A    between atoms: N_2  and  C_5
REMARK    2  A    between atoms: C_3  and  C_30
REMARK    3  A    between atoms: C_6  and  N_13
REMARK    4  A    between atoms: C_16  and  C_20
REMARK    5  A    between atoms: C_25  and  C_31
REMARK    6  A    between atoms: C_31  and  N_32
REMARK                            x       y       z     vdW  Elec       q    Type
REMARK                         _______ _______ _______ _____ _____    ______ ____
ROOT
ATOM      1  O   UNL     1      33.839 -23.858 -19.188  0.00  0.00    -0.270 OA
ATOM      2  N   UNL     1      33.377 -22.227 -17.567  0.00  0.00    -0.280 N 
ATOM      3  C   UNL     1      33.862 -22.679 -18.801  0.00  0.00    +0.249 C 
ATOM      4  H   UNL     1      33.463 -21.260 -17.401  0.00  0.00    +0.155 HD
ENDROOT
BRANCH   2   5
ATOM      5  C   UNL     1      32.778 -22.979 -16.526  0.00  0.00    +0.052 C 
ATOM      6  C   UNL     1      32.844 -23.839 -14.289  0.00  0.00    +0.048 C 
ATOM      7  C   UNL     1      33.435 -23.099 -15.314  0.00  0.00    +0.029 C 
ATOM      8  C   UNL     1      31.606 -24.447 -14.492  0.00  0.00    -0.008 C 
ATOM      9  C   UNL     1      31.548 -23.576 -16.745  0.00  0.00    +0.014 C 
ATOM     10  C   UNL     1      30.958 -24.316 -15.722  0.00  0.00    -0.002 C 
ATOM     11  C   UNL     1      30.952 -25.245 -13.413  0.00  0.00    +0.032 C 
BRANCH   6  13
ATOM     12  S   UNL     1      35.306 -24.510 -11.165  0.00  0.00    -0.059 S 
ATOM     13  N   UNL     1      33.514 -23.961 -13.052  0.00  0.00    -0.283 N 
ATOM     14  N   UNL     1      35.750 -24.361 -13.707  0.00  0.00    -0.384 NA
ATOM     15  C   UNL     1      34.823 -24.256 -12.788  0.00  0.00    +0.211 C 
ATOM     16  C   UNL     1      36.948 -24.668 -13.091  0.00  0.00    +0.124 C 
ATOM     17  C   UNL     1      36.906 -24.788 -11.718  0.00  0.00    +0.125 C 
ATOM     18  H   UNL     1      32.952 -23.809 -12.257  0.00  0.00    +0.155 HD
BRANCH  16  20
ATOM     19  N   UNL     1      39.502 -24.245 -15.758  0.00  0.00    -0.242 NA
ATOM     20  C   UNL     1      38.156 -24.846 -13.843  0.00  0.00    +0.046 C 
ATOM     21  C   UNL     1      39.129 -25.749 -13.432  0.00  0.00    +0.005 C 
ATOM     22  C   UNL     1      38.387 -24.125 -15.003  0.00  0.00    +0.101 C 
ATOM     23  C   UNL     1      40.290 -25.901 -14.183  0.00  0.00    +0.021 C 
ATOM     24  C   UNL     1      40.426 -25.132 -15.328  0.00  0.00    +0.099 C 
ENDBRANCH  16  20
ENDBRANCH   6  13
ENDBRANCH   2   5
BRANCH   3  30
ATOM     25  C   UNL     1      35.580 -19.729 -21.300  0.00  0.00    -0.043 C 
ATOM     26  C   UNL     1      36.405 -20.629 -20.638  0.00  0.00    -0.006 C 
ATOM     27  C   UNL     1      34.201 -19.783 -21.155  0.00  0.00    -0.006 C 
ATOM     28  C   UNL     1      35.837 -21.602 -19.814  0.00  0.00    +0.004 C 
ATOM     29  C   UNL     1      33.634 -20.756 -20.332  0.00  0.00    +0.004 C 
ATOM     30  C   UNL     1      34.452 -21.665 -19.662  0.00  0.00    +0.054 C 
BRANCH  25  31
ATOM     31  C   UNL     1      36.192 -18.680 -22.190  0.00  0.00    -0.050 C 
BRANCH  31  32
ATOM     32  N   UNL     1      35.181 -17.980 -22.979  0.00  0.00    +0.387 N 
ATOM     33  N   UNL     1      34.342 -16.220 -25.114  0.00  0.00    +0.383 N 
ATOM     34  C   UNL     1      35.357 -16.526 -22.882  0.00  0.00    -0.100 C 
ATOM     35  C   UNL     1      35.226 -18.408 -24.382  0.00  0.00    -0.100 C 
ATOM     36  C   UNL     1      34.298 -15.791 -23.711  0.00  0.00    -0.101 C 
ATOM     37  C   UNL     1      34.166 -17.675 -25.211  0.00  0.00    -0.101 C 
ATOM     38  C   UNL     1      33.329 -15.522 -25.903  0.00  0.00    -0.101 C 
ATOM     39  H   UNL     1      34.264 -18.219 -22.599  0.00  0.00    -0.079 HD
ATOM     40  H   UNL     1      35.257 -15.980 -25.495  0.00  0.00    -0.080 HD
ENDBRANCH  31  32
ENDBRANCH  25  31
ENDBRANCH   3  30
TORSDOF 6
ENDMDL
MODEL 2
REMARK VINA RESULT:     -12.9      6.320     11.132
REMARK  Name = 10074640
REMARK  6 active torsions:
REMARK  status: ('A' for Active; 'I' for Inactive)
REMARK    1  A    between atoms: N_2  and  C_5
REMARK    2  A    between atoms: C_3  and  C_30
REMARK    3  A    between atoms: C_6  and  N_13
REMARK    4  A    between atoms: C_16  and  C_20
REMARK    5  A    between atoms: C_25  and  C_31
REMARK    6  A    between atoms: C_31  and  N_32
REMARK                            x       y       z     vdW  Elec       q    Type
REMARK                         _______ _______ _______ _____ _____    ______ ____
ROOT
ATOM      1  O   UNL     1      32.199 -13.784 -21.714  0.00  0.00    -0.270 OA
ATOM      2  N   UNL     1      33.437 -13.385 -23.667  0.00  0.00    -0.280 N 
ATOM      3  C   UNL     1      32.689 -13.002 -22.545  0.00  0.00    +0.249 C 
ATOM      4  H   UNL     1      33.761 -12.649 -24.236  0.00  0.00    +0.155 HD
ENDROOT
BRANCH   2   5
ATOM      5  C   UNL     1      33.787 -14.691 -24.089  0.00  0.00    +0.052 C 
ATOM      6  C   UNL     1      35.221 -16.605 -23.927  0.00  0.00    +0.048 C 
ATOM      7  C   UNL     1      34.877 -15.319 -23.512  0.00  0.00    +0.029 C 
ATOM      8  C   UNL     1      34.470 -17.244 -24.914  0.00  0.00    -0.008 C 
ATOM      9  C   UNL     1      33.030 -15.310 -25.070  0.00  0.00    +0.014 C 
ATOM     10  C   UNL     1      33.374 -16.596 -25.486  0.00  0.00    -0.002 C 
ATOM     11  C   UNL     1      34.816 -18.621 -25.378  0.00  0.00    +0.032 C 
BRANCH   6  13
ATOM     12  S   UNL     1      37.894 -18.681 -21.731  0.00  0.00    -0.059 S 
ATOM     13  N   UNL     1      36.332 -17.247 -23.338  0.00  0.00    -0.283 N 
ATOM     14  N   UNL     1      35.319 -18.838 -21.912  0.00  0.00    -0.384 NA
ATOM     15  C   UNL     1      36.376 -18.220 -22.379  0.00  0.00    +0.211 C 
ATOM     16  C   UNL     1      35.729 -19.754 -20.961  0.00  0.00    +0.124 C 
ATOM     17  C   UNL     1      37.086 -19.813 -20.728  0.00  0.00    +0.125 C 
ATOM     18  H   UNL     1      37.210 -16.947 -23.669  0.00  0.00    +0.155 HD
BRANCH  16  20
ATOM     19  N   UNL     1      32.489 -21.123 -19.761  0.00  0.00    -0.242 NA
ATOM     20  C   UNL     1      34.790 -20.587 -20.268  0.00  0.00    +0.046 C 
ATOM     21  C   UNL     1      35.220 -21.629 -19.455  0.00  0.00    +0.005 C 
ATOM     22  C   UNL     1      33.426 -20.376 -20.387  0.00  0.00    +0.101 C 
ATOM     23  C   UNL     1      34.286 -22.420 -18.795  0.00  0.00    +0.021 C 
ATOM     24  C   UNL     1      32.944 -22.127 -18.980  0.00  0.00    +0.099 C 
ENDBRANCH  16  20
ENDBRANCH   6  13
ENDBRANCH   2   5
BRANCH   3  30
ATOM     25  C   UNL     1      32.043  -8.847 -22.082  0.00  0.00    -0.043 C 
ATOM     26  C   UNL     1      31.558  -9.726 -21.122  0.00  0.00    -0.006 C 
ATOM     27  C   UNL     1      32.738  -9.312 -23.190  0.00  0.00    -0.006 C 
ATOM     28  C   UNL     1      31.772 -11.096 -21.276  0.00  0.00    +0.004 C 
ATOM     29  C   UNL     1      32.951 -10.681 -23.343  0.00  0.00    +0.004 C 
ATOM     30  C   UNL     1      32.468 -11.573 -22.386  0.00  0.00    +0.054 C 
BRANCH  25  31
ATOM     31  C   UNL     1      31.814  -7.368 -21.916  0.00  0.00    -0.050 C 
BRANCH  31  32
ATOM     32  N   UNL     1      31.893  -6.660 -23.192  0.00  0.00    +0.387 N 
ATOM     33  N   UNL     1      32.582  -4.384 -24.836  0.00  0.00    +0.383 N 
ATOM     34  C   UNL     1      31.103  -5.424 -23.152  0.00  0.00    -0.100 C 
ATOM     35  C   UNL     1      33.289  -6.363 -23.538  0.00  0.00    -0.100 C 
ATOM     36  C   UNL     1      31.187  -4.679 -24.489  0.00  0.00    -0.101 C 
ATOM     37  C   UNL     1      33.373  -5.620 -24.875  0.00  0.00    -0.101 C 
ATOM     38  C   UNL     1      32.661  -3.677 -26.113  0.00  0.00    -0.101 C 
ATOM     39  H   UNL     1      31.505  -7.267 -23.913  0.00  0.00    -0.079 HD
ATOM     40  H   UNL     1      32.971  -3.775 -24.116  0.00  0.00    -0.080 HD
ENDBRANCH  31  32
ENDBRANCH  25  31
ENDBRANCH   3  30
TORSDOF 6
ENDMDL
