MODEL 1
REMARK VINA RESULT:     -13.0      0.000      0.000
REMARK  Name = 44814409
REMARK  5 active torsions:
REMARK  status: ('A' for Active; 'I' for Inactive)
REMARK    1  A    between atoms: N_2  and  C_22
REMARK    2  A    between atoms: C_3  and  C_7
REMARK    3  A    between atoms: C_9  and  C_14
REMARK    4  A    between atoms: C_21  and  C_26
REMARK    5  A    between atoms: C_29  and  N_33
REMARK                            x       y       z     vdW  Elec       q    Type
REMARK                         _______ _______ _______ _____ _____    ______ ____
ROOT
ATOM      1  O   UNL     1      32.752 -22.043 -19.756  0.00  0.00    -0.267 OA
ATOM      2  N   UNL     1      33.976 -22.320 -17.766  0.00  0.00    -0.278 N 
ATOM      3  C   UNL     1      33.771 -21.900 -19.088  0.00  0.00    +0.275 C 
ATOM      4  H   UNL     1      34.860 -22.121 -17.382  0.00  0.00    +0.155 HD
ENDROOT
BRANCH   3   7
ATOM      5  F   UNL     1      37.937 -19.142 -21.513  0.00  0.00    -0.202 F 
ATOM      6  N   UNL     1      34.590 -20.272 -20.656  0.00  0.00    -0.399 NA
ATOM      7  C   UNL     1      34.914 -21.184 -19.713  0.00  0.00    +0.167 C 
ATOM      8  C   UNL     1      36.213 -21.469 -19.322  0.00  0.00    +0.092 C 
ATOM      9  C   UNL     1      35.620 -19.613 -21.232  0.00  0.00    +0.162 C 
ATOM     10  C   UNL     1      37.245 -20.770 -19.938  0.00  0.00    +0.014 C 
ATOM     11  C   UNL     1      36.952 -19.822 -20.912  0.00  0.00    +0.166 C 
BRANCH   9  14
ATOM     12  F   UNL     1      35.328 -16.889 -20.633  0.00  0.00    -0.204 F 
ATOM     13  F   UNL     1      35.122 -20.347 -23.893  0.00  0.00    -0.204 F 
ATOM     14  C   UNL     1      35.236 -18.645 -22.234  0.00  0.00    +0.087 C 
ATOM     15  C   UNL     1      35.103 -17.301 -21.890  0.00  0.00    +0.145 C 
ATOM     16  C   UNL     1      34.999 -19.057 -23.546  0.00  0.00    +0.145 C 
ATOM     17  C   UNL     1      34.733 -16.367 -22.858  0.00  0.00    +0.030 C 
ATOM     18  C   UNL     1      34.628 -18.124 -24.514  0.00  0.00    +0.030 C 
ATOM     19  C   UNL     1      34.495 -16.778 -24.169  0.00  0.00    +0.005 C 
ENDBRANCH   9  14
ENDBRANCH   3   7
BRANCH   2  22
ATOM     20  N   UNL     1      30.783 -23.524 -16.402  0.00  0.00    -0.241 NA
ATOM     21  C   UNL     1      33.514 -23.741 -15.845  0.00  0.00    -0.006 C 
ATOM     22  C   UNL     1      33.081 -22.986 -16.928  0.00  0.00    +0.066 C 
ATOM     23  C   UNL     1      32.584 -24.388 -15.039  0.00  0.00    +0.018 C 
ATOM     24  C   UNL     1      31.718 -22.910 -17.163  0.00  0.00    +0.113 C 
ATOM     25  C   UNL     1      31.243 -24.250 -15.358  0.00  0.00    +0.099 C 
BRANCH  21  26
ATOM     26  C   UNL     1      34.969 -23.874 -15.524  0.00  0.00    +0.022 C 
ATOM     27  C   UNL     1      36.860 -25.535 -15.172  0.00  0.00    -0.002 C 
ATOM     28  C   UNL     1      35.384 -25.357 -15.557  0.00  0.00    +0.004 C 
ATOM     29  C   UNL     1      36.743 -23.426 -13.770  0.00  0.00    -0.065 C 
ATOM     30  C   UNL     1      35.267 -23.249 -14.150  0.00  0.00    -0.017 C 
ATOM     31  C   UNL     1      37.149 -24.903 -13.803  0.00  0.00    -0.022 C 
ATOM     32  C   UNL     1      37.239 -27.016 -15.173  0.00  0.00    -0.000 C 
BRANCH  29  33
ATOM     33  N   UNL     1      36.980 -22.876 -12.436  0.00  0.00    +0.382 N 
ATOM     34  H   UNL     1      37.975 -22.691 -12.316  0.00  0.00    -0.089 HD
ATOM     35  H   UNL     1      36.672 -23.547 -11.732  0.00  0.00    -0.089 HD
ATOM     36  H   UNL     1      36.457 -22.007 -12.328  0.00  0.00    -0.089 HD
ENDBRANCH  29  33
ENDBRANCH  21  26
ENDBRANCH   2  22
TORSDOF 5
ENDMDL
MODEL 2
REMARK VINA RESULT:     -12.0      1.166      2.206
REMARK  Name = 44814409
REMARK  5 active torsions:
REMARK  status: ('A' for Active; 'I' for Inactive)
REMARK    1  A    between atoms: N_2  and  C_22
REMARK    2  A    between atoms: C_3  and  C_7
REMARK    3  A    between atoms: C_9  and  C_14
REMARK    4  A    between atoms: C_21  and  C_26
REMARK    5  A    between atoms: C_29  and  N_33
REMARK                            x       y       z     vdW  Elec       q    Type
REMARK                         _______ _______ _______ _____ _____    ______ ____
ROOT
ATOM      1  O   UNL     1      32.704 -22.124 -19.732  0.00  0.00    -0.267 OA
ATOM      2  N   UNL     1      33.895 -22.355 -17.718  0.00  0.00    -0.278 N 
ATOM      3  C   UNL     1      33.711 -21.964 -19.051  0.00  0.00    +0.275 C 
ATOM      4  H   UNL     1      34.773 -22.145 -17.324  0.00  0.00    +0.155 HD
ENDROOT
BRANCH   3   7
ATOM      5  F   UNL     1      37.911 -19.245 -21.463  0.00  0.00    -0.202 F 
ATOM      6  N   UNL     1      34.550 -20.327 -20.600  0.00  0.00    -0.399 NA
ATOM      7  C   UNL     1      34.863 -21.260 -19.673  0.00  0.00    +0.167 C 
ATOM      8  C   UNL     1      36.159 -21.574 -19.296  0.00  0.00    +0.092 C 
ATOM      9  C   UNL     1      35.588 -19.677 -21.172  0.00  0.00    +0.162 C 
ATOM     10  C   UNL     1      37.200 -20.884 -19.908  0.00  0.00    +0.014 C 
ATOM     11  C   UNL     1      36.917 -19.917 -20.865  0.00  0.00    +0.166 C 
BRANCH   9  14
ATOM     12  F   UNL     1      35.051 -20.361 -23.839  0.00  0.00    -0.204 F 
ATOM     13  F   UNL     1      35.359 -16.957 -20.531  0.00  0.00    -0.204 F 
ATOM     14  C   UNL     1      35.215 -18.687 -22.156  0.00  0.00    +0.087 C 
ATOM     15  C   UNL     1      34.958 -19.074 -23.471  0.00  0.00    +0.145 C 
ATOM     16  C   UNL     1      35.113 -17.345 -21.790  0.00  0.00    +0.145 C 
ATOM     17  C   UNL     1      34.597 -18.117 -24.421  0.00  0.00    +0.030 C 
ATOM     18  C   UNL     1      34.753 -16.388 -22.740  0.00  0.00    +0.030 C 
ATOM     19  C   UNL     1      34.496 -16.775 -24.055  0.00  0.00    +0.005 C 
ENDBRANCH   9  14
ENDBRANCH   3   7
BRANCH   2  22
ATOM     20  N   UNL     1      30.706 -23.692 -16.476  0.00  0.00    -0.241 NA
ATOM     21  C   UNL     1      33.385 -23.593 -15.685  0.00  0.00    -0.006 C 
ATOM     22  C   UNL     1      32.988 -23.004 -16.880  0.00  0.00    +0.066 C 
ATOM     23  C   UNL     1      32.444 -24.230 -14.884  0.00  0.00    +0.018 C 
ATOM     24  C   UNL     1      31.650 -23.081 -17.228  0.00  0.00    +0.113 C 
ATOM     25  C   UNL     1      31.129 -24.252 -15.321  0.00  0.00    +0.099 C 
BRANCH  21  26
ATOM     26  C   UNL     1      34.811 -23.555 -15.238  0.00  0.00    +0.022 C 
ATOM     27  C   UNL     1      37.058 -22.421 -15.601  0.00  0.00    -0.002 C 
ATOM     28  C   UNL     1      35.572 -22.447 -15.991  0.00  0.00    +0.004 C 
ATOM     29  C   UNL     1      36.955 -24.899 -15.068  0.00  0.00    -0.065 C 
ATOM     30  C   UNL     1      35.472 -24.927 -15.463  0.00  0.00    -0.017 C 
ATOM     31  C   UNL     1      37.706 -23.795 -15.822  0.00  0.00    -0.022 C 
ATOM     32  C   UNL     1      37.800 -21.341 -16.388  0.00  0.00    -0.000 C 
BRANCH  29  33
ATOM     33  N   UNL     1      37.566 -26.196 -15.349  0.00  0.00    +0.382 N 
ATOM     34  H   UNL     1      36.924 -26.763 -15.901  0.00  0.00    -0.089 HD
ATOM     35  H   UNL     1      37.771 -26.673 -14.470  0.00  0.00    -0.089 HD
ATOM     36  H   UNL     1      38.432 -26.058 -15.870  0.00  0.00    -0.089 HD
ENDBRANCH  29  33
ENDBRANCH  21  26
ENDBRANCH   2  22
TORSDOF 5
ENDMDL
MODEL 3
REMARK VINA RESULT:     -11.5      8.087     13.293
REMARK  Name = 44814409
REMARK  5 active torsions:
REMARK  status: ('A' for Active; 'I' for Inactive)
REMARK    1  A    between atoms: N_2  and  C_22
REMARK    2  A    between atoms: C_3  and  C_7
REMARK    3  A    between atoms: C_9  and  C_14
REMARK    4  A    between atoms: C_21  and  C_26
REMARK    5  A    between atoms: C_29  and  N_33
REMARK                            x       y       z     vdW  Elec       q    Type
REMARK                         _______ _______ _______ _____ _____    ______ ____
ROOT
ATOM      1  O   UNL     1      32.281 -13.213 -21.312  0.00  0.00    -0.267 OA
ATOM      2  N   UNL     1      32.605 -11.067 -22.218  0.00  0.00    -0.278 N 
ATOM      3  C   UNL     1      32.610 -12.468 -22.230  0.00  0.00    +0.275 C 
ATOM      4  H   UNL     1      32.902 -10.627 -23.048  0.00  0.00    +0.155 HD
ENDROOT
BRANCH   3   7
ATOM      5  F   UNL     1      34.227 -14.942 -26.932  0.00  0.00    -0.202 F 
ATOM      6  N   UNL     1      33.386 -14.397 -23.438  0.00  0.00    -0.399 NA
ATOM      7  C   UNL     1      33.037 -13.093 -23.509  0.00  0.00    +0.167 C 
ATOM      8  C   UNL     1      33.061 -12.346 -24.677  0.00  0.00    +0.092 C 
ATOM      9  C   UNL     1      33.775 -14.978 -24.595  0.00  0.00    +0.162 C 
ATOM     10  C   UNL     1      33.468 -12.980 -25.846  0.00  0.00    +0.014 C 
ATOM     11  C   UNL     1      33.833 -14.321 -25.813  0.00  0.00    +0.166 C 
BRANCH   9  14
ATOM     12  F   UNL     1      32.569 -16.963 -26.166  0.00  0.00    -0.204 F 
ATOM     13  F   UNL     1      35.731 -15.860 -22.788  0.00  0.00    -0.204 F 
ATOM     14  C   UNL     1      34.140 -16.372 -24.481  0.00  0.00    +0.087 C 
ATOM     15  C   UNL     1      33.512 -17.324 -25.283  0.00  0.00    +0.145 C 
ATOM     16  C   UNL     1      35.119 -16.763 -23.568  0.00  0.00    +0.145 C 
ATOM     17  C   UNL     1      33.865 -18.670 -25.173  0.00  0.00    +0.030 C 
ATOM     18  C   UNL     1      35.471 -18.109 -23.457  0.00  0.00    +0.030 C 
ATOM     19  C   UNL     1      34.843 -19.062 -24.259  0.00  0.00    +0.005 C 
ENDBRANCH   9  14
ENDBRANCH   3   7
BRANCH   2  22
ATOM     20  N   UNL     1      31.650  -9.976 -18.842  0.00  0.00    -0.241 NA
ATOM     21  C   UNL     1      32.069  -8.851 -21.367  0.00  0.00    -0.006 C 
ATOM     22  C   UNL     1      32.231 -10.218 -21.176  0.00  0.00    +0.066 C 
ATOM     23  C   UNL     1      31.697  -8.045 -20.296  0.00  0.00    +0.018 C 
ATOM     24  C   UNL     1      32.013 -10.727 -19.907  0.00  0.00    +0.113 C 
ATOM     25  C   UNL     1      31.502  -8.651 -19.065  0.00  0.00    +0.099 C 
BRANCH  21  26
ATOM     26  C   UNL     1      32.287  -8.223 -22.706  0.00  0.00    +0.022 C 
ATOM     27  C   UNL     1      34.018  -7.140 -24.220  0.00  0.00    -0.002 C 
ATOM     28  C   UNL     1      33.770  -7.844 -22.878  0.00  0.00    +0.004 C 
ATOM     29  C   UNL     1      31.629  -6.290 -24.208  0.00  0.00    -0.065 C 
ATOM     30  C   UNL     1      31.381  -6.988 -22.865  0.00  0.00    -0.017 C 
ATOM     31  C   UNL     1      33.106  -5.914 -24.372  0.00  0.00    -0.022 C 
ATOM     32  C   UNL     1      35.488  -6.739 -24.351  0.00  0.00    -0.000 C 
BRANCH  29  33
ATOM     33  N   UNL     1      30.799  -5.090 -24.303  0.00  0.00    +0.382 N 
ATOM     34  H   UNL     1      29.927  -5.316 -24.780  0.00  0.00    -0.089 HD
ATOM     35  H   UNL     1      31.298  -4.372 -24.829  0.00  0.00    -0.089 HD
ATOM     36  H   UNL     1      30.594  -4.744 -23.366  0.00  0.00    -0.089 HD
ENDBRANCH  29  33
ENDBRANCH  21  26
ENDBRANCH   2  22
TORSDOF 5
ENDMDL
MODEL 4
REMARK VINA RESULT:     -11.5      8.072     13.244
REMARK  Name = 44814409
REMARK  5 active torsions:
REMARK  status: ('A' for Active; 'I' for Inactive)
REMARK    1  A    between atoms: N_2  and  C_22
REMARK    2  A    between atoms: C_3  and  C_7
REMARK    3  A    between atoms: C_9  and  C_14
REMARK    4  A    between atoms: C_21  and  C_26
REMARK    5  A    between atoms: C_29  and  N_33
REMARK                            x       y       z     vdW  Elec       q    Type
REMARK                         _______ _______ _______ _____ _____    ______ ____
ROOT
ATOM      1  O   UNL     1      32.286 -13.197 -21.294  0.00  0.00    -0.267 OA
ATOM      2  N   UNL     1      32.600 -11.055 -22.213  0.00  0.00    -0.278 N 
ATOM      3  C   UNL     1      32.610 -12.457 -22.217  0.00  0.00    +0.275 C 
ATOM      4  H   UNL     1      32.894 -10.619 -23.045  0.00  0.00    +0.155 HD
ENDROOT
BRANCH   3   7
ATOM      5  F   UNL     1      34.228 -14.950 -26.908  0.00  0.00    -0.202 F 
ATOM      6  N   UNL     1      33.394 -14.388 -23.415  0.00  0.00    -0.399 NA
ATOM      7  C   UNL     1      33.038 -13.087 -23.494  0.00  0.00    +0.167 C 
ATOM      8  C   UNL     1      33.054 -12.347 -24.665  0.00  0.00    +0.092 C 
ATOM      9  C   UNL     1      33.783 -14.974 -24.570  0.00  0.00    +0.162 C 
ATOM     10  C   UNL     1      33.461 -12.985 -25.832  0.00  0.00    +0.014 C 
ATOM     11  C   UNL     1      33.834 -14.324 -25.792  0.00  0.00    +0.166 C 
BRANCH   9  14
ATOM     12  F   UNL     1      35.739 -15.835 -22.754  0.00  0.00    -0.204 F 
ATOM     13  F   UNL     1      32.595 -16.974 -26.136  0.00  0.00    -0.204 F 
ATOM     14  C   UNL     1      34.156 -16.365 -24.448  0.00  0.00    +0.087 C 
ATOM     15  C   UNL     1      35.134 -16.747 -23.531  0.00  0.00    +0.145 C 
ATOM     16  C   UNL     1      33.536 -17.325 -25.248  0.00  0.00    +0.145 C 
ATOM     17  C   UNL     1      35.493 -18.090 -23.413  0.00  0.00    +0.030 C 
ATOM     18  C   UNL     1      33.896 -18.668 -25.131  0.00  0.00    +0.030 C 
ATOM     19  C   UNL     1      34.875 -19.050 -24.214  0.00  0.00    +0.005 C 
ENDBRANCH   9  14
ENDBRANCH   3   7
BRANCH   2  22
ATOM     20  N   UNL     1      31.638  -9.951 -18.843  0.00  0.00    -0.241 NA
ATOM     21  C   UNL     1      32.066  -8.835 -21.370  0.00  0.00    -0.006 C 
ATOM     22  C   UNL     1      32.225 -10.202 -21.175  0.00  0.00    +0.066 C 
ATOM     23  C   UNL     1      31.693  -8.025 -20.304  0.00  0.00    +0.018 C 
ATOM     24  C   UNL     1      32.002 -10.706 -19.904  0.00  0.00    +0.113 C 
ATOM     25  C   UNL     1      31.493  -8.626 -19.071  0.00  0.00    +0.099 C 
BRANCH  21  26
ATOM     26  C   UNL     1      32.289  -8.212 -22.711  0.00  0.00    +0.022 C 
ATOM     27  C   UNL     1      34.027  -7.135 -24.222  0.00  0.00    -0.002 C 
ATOM     28  C   UNL     1      33.773  -7.834 -22.879  0.00  0.00    +0.004 C 
ATOM     29  C   UNL     1      31.637  -6.285 -24.223  0.00  0.00    -0.065 C 
ATOM     30  C   UNL     1      31.384  -6.978 -22.878  0.00  0.00    -0.017 C 
ATOM     31  C   UNL     1      33.115  -5.910 -24.383  0.00  0.00    -0.022 C 
ATOM     32  C   UNL     1      35.496  -6.735 -24.350  0.00  0.00    -0.000 C 
BRANCH  29  33
ATOM     33  N   UNL     1      30.808  -5.086 -24.325  0.00  0.00    +0.382 N 
ATOM     34  H   UNL     1      30.639  -4.707 -23.393  0.00  0.00    -0.089 HD
ATOM     35  H   UNL     1      29.916  -5.325 -24.761  0.00  0.00    -0.089 HD
ATOM     36  H   UNL     1      31.287  -4.388 -24.894  0.00  0.00    -0.089 HD
ENDBRANCH  29  33
ENDBRANCH  21  26
ENDBRANCH   2  22
TORSDOF 5
ENDMDL
MODEL 5
REMARK VINA RESULT:     -10.9      4.233      9.930
REMARK  Name = 44814409
REMARK  5 active torsions:
REMARK  status: ('A' for Active; 'I' for Inactive)
REMARK    1  A    between atoms: N_2  and  C_22
REMARK    2  A    between atoms: C_3  and  C_7
REMARK    3  A    between atoms: C_9  and  C_14
REMARK    4  A    between atoms: C_21  and  C_26
REMARK    5  A    between atoms: C_29  and  N_33
REMARK                            x       y       z     vdW  Elec       q    Type
REMARK                         _______ _______ _______ _____ _____    ______ ____
ROOT
ATOM      1  O   UNL     1      34.202 -18.343 -24.825  0.00  0.00    -0.267 OA
ATOM      2  N   UNL     1      34.714 -16.194 -24.018  0.00  0.00    -0.278 N 
ATOM      3  C   UNL     1      34.725 -17.595 -24.005  0.00  0.00    +0.275 C 
ATOM      4  H   UNL     1      35.188 -15.752 -23.277  0.00  0.00    +0.155 HD
ENDROOT
BRANCH   3   7
ATOM      5  F   UNL     1      37.415 -20.005 -19.786  0.00  0.00    -0.202 F 
ATOM      6  N   UNL     1      34.808 -19.143 -22.166  0.00  0.00    -0.399 NA
ATOM      7  C   UNL     1      35.480 -18.216 -22.885  0.00  0.00    +0.167 C 
ATOM      8  C   UNL     1      36.788 -17.835 -22.630  0.00  0.00    +0.092 C 
ATOM      9  C   UNL     1      35.483 -19.716 -21.145  0.00  0.00    +0.162 C 
ATOM     10  C   UNL     1      37.448 -18.448 -21.570  0.00  0.00    +0.014 C 
ATOM     11  C   UNL     1      36.791 -19.407 -20.809  0.00  0.00    +0.166 C 
BRANCH   9  14
ATOM     12  F   UNL     1      36.654 -22.096 -20.235  0.00  0.00    -0.204 F 
ATOM     13  F   UNL     1      32.770 -19.366 -20.526  0.00  0.00    -0.204 F 
ATOM     14  C   UNL     1      34.734 -20.703 -20.402  0.00  0.00    +0.087 C 
ATOM     15  C   UNL     1      35.358 -21.872 -19.969  0.00  0.00    +0.145 C 
ATOM     16  C   UNL     1      33.386 -20.485 -20.116  0.00  0.00    +0.145 C 
ATOM     17  C   UNL     1      34.635 -22.824 -19.250  0.00  0.00    +0.030 C 
ATOM     18  C   UNL     1      32.662 -21.437 -19.398  0.00  0.00    +0.030 C 
ATOM     19  C   UNL     1      33.287 -22.607 -18.966  0.00  0.00    +0.005 C 
ENDBRANCH   9  14
ENDBRANCH   3   7
BRANCH   2  22
ATOM     20  N   UNL     1      33.484 -14.960 -27.253  0.00  0.00    -0.241 NA
ATOM     21  C   UNL     1      33.564 -14.125 -24.587  0.00  0.00    -0.006 C 
ATOM     22  C   UNL     1      34.114 -15.348 -24.952  0.00  0.00    +0.066 C 
ATOM     23  C   UNL     1      32.975 -13.318 -25.553  0.00  0.00    +0.018 C 
ATOM     24  C   UNL     1      34.048 -15.717 -26.285  0.00  0.00    +0.113 C 
ATOM     25  C   UNL     1      32.960 -13.777 -26.860  0.00  0.00    +0.099 C 
BRANCH  21  26
ATOM     26  C   UNL     1      33.592 -13.655 -23.167  0.00  0.00    +0.022 C 
ATOM     27  C   UNL     1      32.964 -14.261 -20.780  0.00  0.00    -0.002 C 
ATOM     28  C   UNL     1      33.006 -14.736 -22.240  0.00  0.00    +0.004 C 
ATOM     29  C   UNL     1      32.777 -11.859 -21.574  0.00  0.00    -0.065 C 
ATOM     30  C   UNL     1      32.815 -12.333 -23.033  0.00  0.00    -0.017 C 
ATOM     31  C   UNL     1      32.192 -12.939 -20.657  0.00  0.00    -0.022 C 
ATOM     32  C   UNL     1      32.343 -15.333 -19.885  0.00  0.00    -0.000 C 
BRANCH  29  33
ATOM     33  N   UNL     1      31.983 -10.637 -21.471  0.00  0.00    +0.382 N 
ATOM     34  H   UNL     1      31.156 -10.815 -20.902  0.00  0.00    -0.089 HD
ATOM     35  H   UNL     1      31.696 -10.338 -22.403  0.00  0.00    -0.089 HD
ATOM     36  H   UNL     1      32.542  -9.903 -21.037  0.00  0.00    -0.089 HD
ENDBRANCH  29  33
ENDBRANCH  21  26
ENDBRANCH   2  22
TORSDOF 5
ENDMDL
MODEL 6
REMARK VINA RESULT:     -10.6      4.273      8.495
REMARK  Name = 44814409
REMARK  5 active torsions:
REMARK  status: ('A' for Active; 'I' for Inactive)
REMARK    1  A    between atoms: N_2  and  C_22
REMARK    2  A    between atoms: C_3  and  C_7
REMARK    3  A    between atoms: C_9  and  C_14
REMARK    4  A    between atoms: C_21  and  C_26
REMARK    5  A    between atoms: C_29  and  N_33
REMARK                            x       y       z     vdW  Elec       q    Type
REMARK                         _______ _______ _______ _____ _____    ______ ____
ROOT
ATOM      1  O   UNL     1      37.715 -20.989 -16.887  0.00  0.00    -0.267 OA
ATOM      2  N   UNL     1      36.274 -22.683 -17.651  0.00  0.00    -0.278 N 
ATOM      3  C   UNL     1      37.305 -22.145 -16.869  0.00  0.00    +0.275 C 
ATOM      4  H   UNL     1      36.074 -23.637 -17.504  0.00  0.00    +0.155 HD
ENDROOT
BRANCH   3   7
ATOM      5  F   UNL     1      39.535 -25.635 -13.169  0.00  0.00    -0.202 F 
ATOM      6  N   UNL     1      37.309 -23.213 -14.714  0.00  0.00    -0.399 NA
ATOM      7  C   UNL     1      37.934 -23.088 -15.906  0.00  0.00    +0.167 C 
ATOM      8  C   UNL     1      39.088 -23.772 -16.254  0.00  0.00    +0.092 C 
ATOM      9  C   UNL     1      37.869 -24.069 -13.830  0.00  0.00    +0.162 C 
ATOM     10  C   UNL     1      39.634 -24.643 -15.317  0.00  0.00    +0.014 C 
ATOM     11  C   UNL     1      39.019 -24.800 -14.080  0.00  0.00    +0.166 C 
BRANCH   9  14
ATOM     12  F   UNL     1      36.399 -26.354 -13.136  0.00  0.00    -0.204 F 
ATOM     13  F   UNL     1      37.907 -22.008 -11.929  0.00  0.00    -0.204 F 
ATOM     14  C   UNL     1      37.174 -24.178 -12.569  0.00  0.00    +0.087 C 
ATOM     15  C   UNL     1      36.455 -25.334 -12.267  0.00  0.00    +0.145 C 
ATOM     16  C   UNL     1      37.222 -23.126 -11.653  0.00  0.00    +0.145 C 
ATOM     17  C   UNL     1      35.784 -25.439 -11.048  0.00  0.00    +0.030 C 
ATOM     18  C   UNL     1      36.550 -23.231 -10.435  0.00  0.00    +0.030 C 
ATOM     19  C   UNL     1      35.831 -24.388 -10.133  0.00  0.00    +0.005 C 
ENDBRANCH   9  14
ENDBRANCH   3   7
BRANCH   2  22
ATOM     20  N   UNL     1      35.413 -20.570 -20.530  0.00  0.00    -0.241 NA
ATOM     21  C   UNL     1      34.112 -22.171 -18.644  0.00  0.00    -0.006 C 
ATOM     22  C   UNL     1      35.495 -22.035 -18.609  0.00  0.00    +0.066 C 
ATOM     23  C   UNL     1      33.378 -21.506 -19.621  0.00  0.00    +0.018 C 
ATOM     24  C   UNL     1      36.092 -21.231 -19.566  0.00  0.00    +0.113 C 
ATOM     25  C   UNL     1      34.071 -20.725 -20.533  0.00  0.00    +0.099 C 
BRANCH  21  26
ATOM     26  C   UNL     1      33.391 -23.021 -17.648  0.00  0.00    +0.022 C 
ATOM     27  C   UNL     1      31.161 -23.398 -16.487  0.00  0.00    -0.002 C 
ATOM     28  C   UNL     1      31.917 -22.584 -17.547  0.00  0.00    +0.004 C 
ATOM     29  C   UNL     1      33.330 -23.752 -15.221  0.00  0.00    -0.065 C 
ATOM     30  C   UNL     1      34.086 -22.935 -16.278  0.00  0.00    -0.017 C 
ATOM     31  C   UNL     1      31.865 -23.311 -15.125  0.00  0.00    -0.022 C 
ATOM     32  C   UNL     1      29.713 -22.921 -16.377  0.00  0.00    -0.000 C 
BRANCH  29  33
ATOM     33  N   UNL     1      33.980 -23.601 -13.921  0.00  0.00    +0.382 N 
ATOM     34  H   UNL     1      34.244 -24.519 -13.563  0.00  0.00    -0.089 HD
ATOM     35  H   UNL     1      33.335 -23.155 -13.268  0.00  0.00    -0.089 HD
ATOM     36  H   UNL     1      34.814 -23.023 -14.022  0.00  0.00    -0.089 HD
ENDBRANCH  29  33
ENDBRANCH  21  26
ENDBRANCH   2  22
TORSDOF 5
ENDMDL
