MODEL 1
REMARK VINA RESULT:     -13.9      0.000      0.000
REMARK  Name = 25243853
REMARK  6 active torsions:
REMARK  status: ('A' for Active; 'I' for Inactive)
REMARK    1  A    between atoms: N_1  and  C_6
REMARK    2  A    between atoms: N_1  and  C_21
REMARK    3  A    between atoms: C_3  and  C_16
REMARK    4  A    between atoms: C_11  and  C_18
REMARK    5  A    between atoms: C_18  and  O_19
REMARK    6  A    between atoms: C_21  and  C_28
REMARK                            x       y       z     vdW  Elec       q    Type
REMARK                         _______ _______ _______ _____ _____    ______ ____
ROOT
ATOM      1  N   UNL     1      34.917 -19.578 -22.233  0.00  0.00    -0.327 N 
ATOM      2  H   UNL     1      34.731 -19.945 -23.127  0.00  0.00    +0.147 HD
ENDROOT
BRANCH   1   6
ATOM      3  C   UNL     1      34.201 -22.008 -18.882  0.00  0.00    +0.054 C 
ATOM      4  C   UNL     1      35.498 -21.868 -19.378  0.00  0.00    +0.006 C 
ATOM      5  C   UNL     1      33.143 -21.341 -19.499  0.00  0.00    +0.006 C 
ATOM      6  C   UNL     1      34.677 -20.394 -21.107  0.00  0.00    +0.045 C 
ATOM      7  C   UNL     1      35.735 -21.060 -20.490  0.00  0.00    +0.014 C 
ATOM      8  C   UNL     1      33.380 -20.534 -20.612  0.00  0.00    +0.014 C 
BRANCH   3  16
ATOM      9  O   UNL     1      32.785 -23.209 -17.536  0.00  0.00    -0.270 OA
ATOM     10  N   UNL     1      35.037 -23.198 -16.901  0.00  0.00    -0.276 N 
ATOM     11  C   UNL     1      36.722 -22.776 -14.574  0.00  0.00    +0.102 C 
ATOM     12  C   UNL     1      35.286 -23.294 -14.455  0.00  0.00    +0.033 C 
ATOM     13  C   UNL     1      36.957 -22.026 -15.889  0.00  0.00    +0.033 C 
ATOM     14  C   UNL     1      34.822 -24.023 -15.714  0.00  0.00    +0.094 C 
ATOM     15  C   UNL     1      36.426 -22.777 -17.111  0.00  0.00    +0.094 C 
ATOM     16  C   UNL     1      33.951 -22.857 -17.711  0.00  0.00    +0.249 C 
BRANCH  11  18
ATOM     17  O   UNL     1      38.758 -23.987 -15.020  0.00  0.00    -0.250 OA
ATOM     18  C   UNL     1      37.699 -23.906 -14.413  0.00  0.00    +0.317 C 
BRANCH  18  19
ATOM     19  O   UNL     1      37.216 -24.798 -13.503  0.00  0.00    -0.444 OA
ATOM     20  C   UNL     1      38.185 -25.693 -12.947  0.00  0.00    +0.256 C 
ENDBRANCH  18  19
ENDBRANCH  11  18
ENDBRANCH   3  16
ENDBRANCH   1   6
BRANCH   1  21
ATOM     21  C   UNL     1      35.418 -18.243 -22.132  0.00  0.00    +0.145 C 
BRANCH  21  28
ATOM     22  N   UNL     1      34.647 -16.149 -23.116  0.00  0.00    -0.392 NA
ATOM     23  N   UNL     1      34.588 -17.260 -25.651  0.00  0.00    -0.200 NA
ATOM     24  N   UNL     1      33.857 -15.247 -26.531  0.00  0.00    -0.271 NA
ATOM     25  N   UNL     1      33.507 -13.338 -25.122  0.00  0.00    -0.310 NA
ATOM     26  N   UNL     1      33.911 -13.512 -22.800  0.00  0.00    -0.329 N 
ATOM     27  N   UNL     1      33.115 -13.208 -27.426  0.00  0.00    -0.283 N 
ATOM     28  C   UNL     1      34.995 -17.429 -23.323  0.00  0.00    +0.133 C 
ATOM     29  C   UNL     1      34.966 -17.977 -24.576  0.00  0.00    +0.193 C 
ATOM     30  C   UNL     1      34.270 -15.433 -24.193  0.00  0.00    +0.248 C 
ATOM     31  C   UNL     1      34.236 -15.980 -25.478  0.00  0.00    +0.131 C 
ATOM     32  C   UNL     1      33.894 -14.108 -24.088  0.00  0.00    +0.231 C 
ATOM     33  C   UNL     1      33.512 -13.965 -26.304  0.00  0.00    +0.207 C 
ATOM     34  H   UNL     1      33.648 -12.570 -22.690  0.00  0.00    +0.145 HD
ATOM     35  H   UNL     1      34.186 -14.040 -22.017  0.00  0.00    +0.145 HD
ATOM     36  H   UNL     1      33.101 -13.622 -28.319  0.00  0.00    +0.156 HD
ATOM     37  H   UNL     1      32.853 -12.265 -27.317  0.00  0.00    +0.156 HD
ENDBRANCH  21  28
ENDBRANCH   1  21
TORSDOF 6
ENDMDL
MODEL 2
REMARK VINA RESULT:     -13.5      4.033     11.545
REMARK  Name = 25243853
REMARK  6 active torsions:
REMARK  status: ('A' for Active; 'I' for Inactive)
REMARK    1  A    between atoms: N_1  and  C_6
REMARK    2  A    between atoms: N_1  and  C_21
REMARK    3  A    between atoms: C_3  and  C_16
REMARK    4  A    between atoms: C_11  and  C_18
REMARK    5  A    between atoms: C_18  and  O_19
REMARK    6  A    between atoms: C_21  and  C_28
REMARK                            x       y       z     vdW  Elec       q    Type
REMARK                         _______ _______ _______ _____ _____    ______ ____
ROOT
ATOM      1  N   UNL     1      36.446 -21.484 -19.327  0.00  0.00    -0.327 N 
ATOM      2  H   UNL     1      37.386 -21.768 -19.250  0.00  0.00    +0.147 HD
ENDROOT
BRANCH   1   6
ATOM      3  C   UNL     1      35.447 -18.622 -22.235  0.00  0.00    +0.054 C 
ATOM      4  C   UNL     1      36.724 -18.629 -21.674  0.00  0.00    +0.006 C 
ATOM      5  C   UNL     1      34.502 -19.566 -21.831  0.00  0.00    +0.006 C 
ATOM      6  C   UNL     1      36.111 -20.523 -20.304  0.00  0.00    +0.045 C 
ATOM      7  C   UNL     1      37.056 -19.581 -20.708  0.00  0.00    +0.014 C 
ATOM      8  C   UNL     1      34.834 -20.516 -20.866  0.00  0.00    +0.014 C 
BRANCH   3  16
ATOM      9  O   UNL     1      35.455 -17.869 -24.401  0.00  0.00    -0.270 OA
ATOM     10  N   UNL     1      34.392 -16.487 -22.842  0.00  0.00    -0.276 N 
ATOM     11  C   UNL     1      34.288 -13.713 -21.987  0.00  0.00    +0.102 C 
ATOM     12  C   UNL     1      34.641 -14.109 -23.425  0.00  0.00    +0.033 C 
ATOM     13  C   UNL     1      34.537 -14.855 -20.998  0.00  0.00    +0.033 C 
ATOM     14  C   UNL     1      34.047 -15.459 -23.821  0.00  0.00    +0.094 C 
ATOM     15  C   UNL     1      33.966 -16.194 -21.469  0.00  0.00    +0.094 C 
ATOM     16  C   UNL     1      35.097 -17.622 -23.251  0.00  0.00    +0.249 C 
BRANCH  11  18
ATOM     17  O   UNL     1      32.079 -13.557 -21.036  0.00  0.00    -0.250 OA
ATOM     18  C   UNL     1      32.866 -13.233 -21.915  0.00  0.00    +0.317 C 
BRANCH  18  19
ATOM     19  O   UNL     1      32.613 -12.400 -22.964  0.00  0.00    -0.444 OA
ATOM     20  C   UNL     1      32.406 -11.026 -22.620  0.00  0.00    +0.256 C 
ENDBRANCH  18  19
ENDBRANCH  11  18
ENDBRANCH   3  16
ENDBRANCH   1   6
BRANCH   1  21
ATOM     21  C   UNL     1      35.481 -22.066 -18.447  0.00  0.00    +0.145 C 
BRANCH  21  28
ATOM     22  N   UNL     1      35.455 -23.284 -16.335  0.00  0.00    -0.392 NA
ATOM     23  N   UNL     1      37.921 -22.258 -15.608  0.00  0.00    -0.200 NA
ATOM     24  N   UNL     1      37.842 -23.438 -13.618  0.00  0.00    -0.271 NA
ATOM     25  N   UNL     1      35.967 -24.836 -13.086  0.00  0.00    -0.310 NA
ATOM     26  N   UNL     1      34.172 -25.011 -14.612  0.00  0.00    -0.329 N 
ATOM     27  N   UNL     1      37.765 -24.633 -11.599  0.00  0.00    -0.283 N 
ATOM     28  C   UNL     1      36.119 -22.439 -17.138  0.00  0.00    +0.133 C 
ATOM     29  C   UNL     1      37.339 -21.933 -16.778  0.00  0.00    +0.193 C 
ATOM     30  C   UNL     1      36.039 -23.609 -15.165  0.00  0.00    +0.248 C 
ATOM     31  C   UNL     1      37.283 -23.100 -14.786  0.00  0.00    +0.131 C 
ATOM     32  C   UNL     1      35.438 -24.471 -14.268  0.00  0.00    +0.231 C 
ATOM     33  C   UNL     1      37.160 -24.288 -12.827  0.00  0.00    +0.207 C 
ATOM     34  H   UNL     1      33.716 -25.628 -13.995  0.00  0.00    +0.145 HD
ATOM     35  H   UNL     1      33.748 -24.769 -15.466  0.00  0.00    +0.145 HD
ATOM     36  H   UNL     1      38.642 -24.256 -11.360  0.00  0.00    +0.156 HD
ATOM     37  H   UNL     1      37.309 -25.250 -10.982  0.00  0.00    +0.156 HD
ENDBRANCH  21  28
ENDBRANCH   1  21
TORSDOF 6
ENDMDL
MODEL 3
REMARK VINA RESULT:     -13.2      1.490      2.450
REMARK  Name = 25243853
REMARK  6 active torsions:
REMARK  status: ('A' for Active; 'I' for Inactive)
REMARK    1  A    between atoms: N_1  and  C_6
REMARK    2  A    between atoms: N_1  and  C_21
REMARK    3  A    between atoms: C_3  and  C_16
REMARK    4  A    between atoms: C_11  and  C_18
REMARK    5  A    between atoms: C_18  and  O_19
REMARK    6  A    between atoms: C_21  and  C_28
REMARK                            x       y       z     vdW  Elec       q    Type
REMARK                         _______ _______ _______ _____ _____    ______ ____
ROOT
ATOM      1  N   UNL     1      35.248 -18.942 -22.766  0.00  0.00    -0.327 N 
ATOM      2  H   UNL     1      34.961 -19.190 -23.674  0.00  0.00    +0.147 HD
ENDROOT
BRANCH   1   6
ATOM      3  C   UNL     1      34.235 -21.485 -19.580  0.00  0.00    +0.054 C 
ATOM      4  C   UNL     1      35.568 -21.356 -19.973  0.00  0.00    +0.006 C 
ATOM      5  C   UNL     1      33.240 -20.768 -20.244  0.00  0.00    +0.006 C 
ATOM      6  C   UNL     1      34.908 -19.796 -21.695  0.00  0.00    +0.045 C 
ATOM      7  C   UNL     1      35.904 -20.511 -21.031  0.00  0.00    +0.014 C 
ATOM      8  C   UNL     1      33.576 -19.924 -21.302  0.00  0.00    +0.014 C 
BRANCH   3  16
ATOM      9  O   UNL     1      32.694 -22.683 -18.377  0.00  0.00    -0.270 OA
ATOM     10  N   UNL     1      34.901 -22.796 -17.611  0.00  0.00    -0.276 N 
ATOM     11  C   UNL     1      36.458 -22.548 -15.171  0.00  0.00    +0.102 C 
ATOM     12  C   UNL     1      34.997 -23.010 -15.161  0.00  0.00    +0.033 C 
ATOM     13  C   UNL     1      36.801 -21.751 -16.434  0.00  0.00    +0.033 C 
ATOM     14  C   UNL     1      34.582 -23.662 -16.478  0.00  0.00    +0.094 C 
ATOM     15  C   UNL     1      36.317 -22.424 -17.719  0.00  0.00    +0.094 C 
ATOM     16  C   UNL     1      33.881 -22.374 -18.466  0.00  0.00    +0.249 C 
BRANCH  11  18
ATOM     17  O   UNL     1      38.541 -23.741 -15.383  0.00  0.00    -0.250 OA
ATOM     18  C   UNL     1      37.377 -23.724 -15.006  0.00  0.00    +0.317 C 
BRANCH  18  19
ATOM     19  O   UNL     1      36.712 -24.737 -14.382  0.00  0.00    -0.444 OA
ATOM     20  C   UNL     1      37.079 -26.058 -14.796  0.00  0.00    +0.256 C 
ENDBRANCH  18  19
ENDBRANCH  11  18
ENDBRANCH   3  16
ENDBRANCH   1   6
BRANCH   1  21
ATOM     21  C   UNL     1      35.993 -17.735 -22.590  0.00  0.00    +0.145 C 
BRANCH  21  28
ATOM     22  N   UNL     1      34.545 -15.860 -23.168  0.00  0.00    -0.392 NA
ATOM     23  N   UNL     1      33.999 -15.343 -20.504  0.00  0.00    -0.200 NA
ATOM     24  N   UNL     1      32.635 -13.574 -21.111  0.00  0.00    -0.271 NA
ATOM     25  N   UNL     1      32.307 -13.004 -23.418  0.00  0.00    -0.310 NA
ATOM     26  N   UNL     1      33.391 -14.264 -25.097  0.00  0.00    -0.329 N 
ATOM     27  N   UNL     1      31.253 -11.779 -21.724  0.00  0.00    -0.283 N 
ATOM     28  C   UNL     1      35.082 -16.607 -22.192  0.00  0.00    +0.133 C 
ATOM     29  C   UNL     1      34.812 -16.351 -20.874  0.00  0.00    +0.193 C 
ATOM     30  C   UNL     1      33.732 -14.852 -22.795  0.00  0.00    +0.248 C 
ATOM     31  C   UNL     1      33.447 -14.580 -21.455  0.00  0.00    +0.131 C 
ATOM     32  C   UNL     1      33.128 -14.026 -23.723  0.00  0.00    +0.231 C 
ATOM     33  C   UNL     1      32.106 -12.836 -22.106  0.00  0.00    +0.207 C 
ATOM     34  H   UNL     1      32.977 -13.693 -25.784  0.00  0.00    +0.145 HD
ATOM     35  H   UNL     1      33.988 -15.000 -25.364  0.00  0.00    +0.145 HD
ATOM     36  H   UNL     1      31.072 -11.612 -20.771  0.00  0.00    +0.156 HD
ATOM     37  H   UNL     1      30.838 -11.207 -22.411  0.00  0.00    +0.156 HD
ENDBRANCH  21  28
ENDBRANCH   1  21
TORSDOF 6
ENDMDL
MODEL 4
REMARK VINA RESULT:     -13.1      1.075      1.536
REMARK  Name = 25243853
REMARK  6 active torsions:
REMARK  status: ('A' for Active; 'I' for Inactive)
REMARK    1  A    between atoms: N_1  and  C_6
REMARK    2  A    between atoms: N_1  and  C_21
REMARK    3  A    between atoms: C_3  and  C_16
REMARK    4  A    between atoms: C_11  and  C_18
REMARK    5  A    between atoms: C_18  and  O_19
REMARK    6  A    between atoms: C_21  and  C_28
REMARK                            x       y       z     vdW  Elec       q    Type
REMARK                         _______ _______ _______ _____ _____    ______ ____
ROOT
ATOM      1  N   UNL     1      35.954 -20.044 -21.301  0.00  0.00    -0.327 N 
ATOM      2  H   UNL     1      36.233 -20.488 -22.134  0.00  0.00    +0.147 HD
ENDROOT
BRANCH   1   6
ATOM      3  C   UNL     1      34.564 -22.421 -18.129  0.00  0.00    +0.054 C 
ATOM      4  C   UNL     1      33.672 -21.962 -19.099  0.00  0.00    +0.006 C 
ATOM      5  C   UNL     1      35.916 -22.091 -18.213  0.00  0.00    +0.006 C 
ATOM      6  C   UNL     1      35.487 -20.843 -20.236  0.00  0.00    +0.045 C 
ATOM      7  C   UNL     1      34.134 -21.174 -20.153  0.00  0.00    +0.014 C 
ATOM      8  C   UNL     1      36.378 -21.302 -19.266  0.00  0.00    +0.014 C 
BRANCH   3  16
ATOM      9  O   UNL     1      32.874 -23.502 -17.017  0.00  0.00    -0.270 OA
ATOM     10  N   UNL     1      35.005 -23.690 -16.071  0.00  0.00    -0.276 N 
ATOM     11  C   UNL     1      36.374 -23.426 -13.523  0.00  0.00    +0.102 C 
ATOM     12  C   UNL     1      34.896 -23.819 -13.616  0.00  0.00    +0.033 C 
ATOM     13  C   UNL     1      36.855 -22.693 -14.778  0.00  0.00    +0.033 C 
ATOM     14  C   UNL     1      34.555 -24.498 -14.941  0.00  0.00    +0.094 C 
ATOM     15  C   UNL     1      36.442 -23.389 -16.076  0.00  0.00    +0.094 C 
ATOM     16  C   UNL     1      34.078 -23.251 -17.020  0.00  0.00    +0.249 C 
BRANCH  11  18
ATOM     17  O   UNL     1      36.764 -25.733 -12.943  0.00  0.00    -0.250 OA
ATOM     18  C   UNL     1      37.218 -24.637 -13.245  0.00  0.00    +0.317 C 
BRANCH  18  19
ATOM     19  O   UNL     1      38.535 -24.315 -13.382  0.00  0.00    -0.444 OA
ATOM     20  C   UNL     1      39.366 -25.347 -13.924  0.00  0.00    +0.256 C 
ENDBRANCH  18  19
ENDBRANCH  11  18
ENDBRANCH   3  16
ENDBRANCH   1   6
BRANCH   1  21
ATOM     21  C   UNL     1      36.041 -18.620 -21.223  0.00  0.00    +0.145 C 
BRANCH  21  28
ATOM     22  N   UNL     1      35.187 -16.693 -22.449  0.00  0.00    -0.392 NA
ATOM     23  N   UNL     1      34.962 -18.165 -24.783  0.00  0.00    -0.200 NA
ATOM     24  N   UNL     1      34.156 -16.302 -25.897  0.00  0.00    -0.271 NA
ATOM     25  N   UNL     1      33.887 -14.206 -24.763  0.00  0.00    -0.310 NA
ATOM     26  N   UNL     1      34.452 -14.036 -22.475  0.00  0.00    -0.329 N 
ATOM     27  N   UNL     1      33.337 -14.416 -27.029  0.00  0.00    -0.283 N 
ATOM     28  C   UNL     1      35.530 -17.989 -22.488  0.00  0.00    +0.133 C 
ATOM     29  C   UNL     1      35.420 -18.716 -23.643  0.00  0.00    +0.193 C 
ATOM     30  C   UNL     1      34.730 -16.142 -23.591  0.00  0.00    +0.248 C 
ATOM     31  C   UNL     1      34.612 -16.873 -24.776  0.00  0.00    +0.131 C 
ATOM     32  C   UNL     1      34.351 -14.816 -23.656  0.00  0.00    +0.231 C 
ATOM     33  C   UNL     1      33.816 -15.001 -25.837  0.00  0.00    +0.207 C 
ATOM     34  H   UNL     1      34.189 -13.088 -22.487  0.00  0.00    +0.145 HD
ATOM     35  H   UNL     1      34.784 -14.444 -21.643  0.00  0.00    +0.145 HD
ATOM     36  H   UNL     1      33.264 -14.958 -27.848  0.00  0.00    +0.156 HD
ATOM     37  H   UNL     1      33.074 -13.467 -27.042  0.00  0.00    +0.156 HD
ENDBRANCH  21  28
ENDBRANCH   1  21
TORSDOF 6
ENDMDL
MODEL 5
REMARK VINA RESULT:     -13.1      4.021     11.739
REMARK  Name = 25243853
REMARK  6 active torsions:
REMARK  status: ('A' for Active; 'I' for Inactive)
REMARK    1  A    between atoms: N_1  and  C_6
REMARK    2  A    between atoms: N_1  and  C_21
REMARK    3  A    between atoms: C_3  and  C_16
REMARK    4  A    between atoms: C_11  and  C_18
REMARK    5  A    between atoms: C_18  and  O_19
REMARK    6  A    between atoms: C_21  and  C_28
REMARK                            x       y       z     vdW  Elec       q    Type
REMARK                         _______ _______ _______ _____ _____    ______ ____
ROOT
ATOM      1  N   UNL     1      36.631 -21.717 -18.742  0.00  0.00    -0.327 N 
ATOM      2  H   UNL     1      36.451 -22.675 -18.878  0.00  0.00    +0.147 HD
ENDROOT
BRANCH   1   6
ATOM      3  C   UNL     1      35.693 -19.041 -21.841  0.00  0.00    +0.054 C 
ATOM      4  C   UNL     1      34.748 -19.976 -21.418  0.00  0.00    +0.006 C 
ATOM      5  C   UNL     1      36.948 -18.994 -21.234  0.00  0.00    +0.006 C 
ATOM      6  C   UNL     1      36.315 -20.818 -19.782  0.00  0.00    +0.045 C 
ATOM      7  C   UNL     1      35.060 -20.865 -20.388  0.00  0.00    +0.014 C 
ATOM      8  C   UNL     1      37.260 -19.882 -20.206  0.00  0.00    +0.014 C 
BRANCH   3  16
ATOM      9  O   UNL     1      35.774 -18.409 -24.044  0.00  0.00    -0.270 OA
ATOM     10  N   UNL     1      34.624 -16.965 -22.607  0.00  0.00    -0.276 N 
ATOM     11  C   UNL     1      34.435 -14.150 -21.915  0.00  0.00    +0.102 C 
ATOM     12  C   UNL     1      34.853 -14.618 -23.313  0.00  0.00    +0.033 C 
ATOM     13  C   UNL     1      34.665 -15.230 -20.853  0.00  0.00    +0.033 C 
ATOM     14  C   UNL     1      34.300 -16.000 -23.655  0.00  0.00    +0.094 C 
ATOM     15  C   UNL     1      34.139 -16.604 -21.270  0.00  0.00    +0.094 C 
ATOM     16  C   UNL     1      35.365 -18.106 -22.924  0.00  0.00    +0.249 C 
BRANCH  11  18
ATOM     17  O   UNL     1      32.201 -13.944 -21.035  0.00  0.00    -0.250 OA
ATOM     18  C   UNL     1      33.004 -13.696 -21.924  0.00  0.00    +0.317 C 
BRANCH  18  19
ATOM     19  O   UNL     1      32.760 -12.982 -23.060  0.00  0.00    -0.444 OA
ATOM     20  C   UNL     1      32.584 -11.574 -22.874  0.00  0.00    +0.256 C 
ENDBRANCH  18  19
ENDBRANCH  11  18
ENDBRANCH   3  16
ENDBRANCH   1   6
BRANCH   1  21
ATOM     21  C   UNL     1      37.198 -21.297 -17.498  0.00  0.00    +0.145 C 
BRANCH  21  28
ATOM     22  N   UNL     1      37.996 -23.172 -16.160  0.00  0.00    -0.392 NA
ATOM     23  N   UNL     1      35.574 -23.374 -14.835  0.00  0.00    -0.200 NA
ATOM     24  N   UNL     1      36.386 -25.151 -13.592  0.00  0.00    -0.271 NA
ATOM     25  N   UNL     1      38.622 -25.958 -13.908  0.00  0.00    -0.310 NA
ATOM     26  N   UNL     1      40.019 -24.929 -15.511  0.00  0.00    -0.329 N 
ATOM     27  N   UNL     1      37.205 -26.953 -12.331  0.00  0.00    -0.283 N 
ATOM     28  C   UNL     1      36.980 -22.342 -16.440  0.00  0.00    +0.133 C 
ATOM     29  C   UNL     1      35.783 -22.442 -15.784  0.00  0.00    +0.193 C 
ATOM     30  C   UNL     1      37.786 -24.104 -15.209  0.00  0.00    +0.248 C 
ATOM     31  C   UNL     1      36.569 -24.217 -14.532  0.00  0.00    +0.131 C 
ATOM     32  C   UNL     1      38.767 -25.006 -14.847  0.00  0.00    +0.231 C 
ATOM     33  C   UNL     1      37.418 -25.974 -13.325  0.00  0.00    +0.207 C 
ATOM     34  H   UNL     1      40.740 -25.557 -15.277  0.00  0.00    +0.145 HD
ATOM     35  H   UNL     1      40.167 -24.248 -16.206  0.00  0.00    +0.145 HD
ATOM     36  H   UNL     1      36.336 -27.008 -11.872  0.00  0.00    +0.156 HD
ATOM     37  H   UNL     1      37.926 -27.582 -12.097  0.00  0.00    +0.156 HD
ENDBRANCH  21  28
ENDBRANCH   1  21
TORSDOF 6
ENDMDL
MODEL 6
REMARK VINA RESULT:     -12.7      4.105     10.926
REMARK  Name = 25243853
REMARK  6 active torsions:
REMARK  status: ('A' for Active; 'I' for Inactive)
REMARK    1  A    between atoms: N_1  and  C_6
REMARK    2  A    between atoms: N_1  and  C_21
REMARK    3  A    between atoms: C_3  and  C_16
REMARK    4  A    between atoms: C_11  and  C_18
REMARK    5  A    between atoms: C_18  and  O_19
REMARK    6  A    between atoms: C_21  and  C_28
REMARK                            x       y       z     vdW  Elec       q    Type
REMARK                         _______ _______ _______ _____ _____    ______ ____
ROOT
ATOM      1  N   UNL     1      36.672 -21.782 -19.144  0.00  0.00    -0.327 N 
ATOM      2  H   UNL     1      36.655 -22.727 -19.415  0.00  0.00    +0.147 HD
ENDROOT
BRANCH   1   6
ATOM      3  C   UNL     1      35.631 -18.863 -21.979  0.00  0.00    +0.054 C 
ATOM      4  C   UNL     1      34.692 -19.815 -21.582  0.00  0.00    +0.006 C 
ATOM      5  C   UNL     1      36.915 -18.880 -21.434  0.00  0.00    +0.006 C 
ATOM      6  C   UNL     1      36.322 -20.801 -20.096  0.00  0.00    +0.045 C 
ATOM      7  C   UNL     1      35.038 -20.784 -20.640  0.00  0.00    +0.014 C 
ATOM      8  C   UNL     1      37.261 -19.848 -20.493  0.00  0.00    +0.014 C 
BRANCH   3  16
ATOM      9  O   UNL     1      35.638 -18.052 -24.125  0.00  0.00    -0.270 OA
ATOM     10  N   UNL     1      34.540 -16.732 -22.536  0.00  0.00    -0.276 N 
ATOM     11  C   UNL     1      34.377 -13.985 -21.609  0.00  0.00    +0.102 C 
ATOM     12  C   UNL     1      34.746 -14.335 -23.054  0.00  0.00    +0.033 C 
ATOM     13  C   UNL     1      34.642 -15.147 -20.649  0.00  0.00    +0.033 C 
ATOM     14  C   UNL     1      34.181 -15.686 -23.490  0.00  0.00    +0.094 C 
ATOM     15  C   UNL     1      34.100 -16.484 -21.158  0.00  0.00    +0.094 C 
ATOM     16  C   UNL     1      35.268 -17.842 -22.971  0.00  0.00    +0.249 C 
BRANCH  11  18
ATOM     17  O   UNL     1      32.139 -13.956 -20.717  0.00  0.00    -0.250 OA
ATOM     18  C   UNL     1      32.946 -13.534 -21.533  0.00  0.00    +0.317 C 
BRANCH  18  19
ATOM     19  O   UNL     1      32.710 -12.602 -22.500  0.00  0.00    -0.444 OA
ATOM     20  C   UNL     1      31.853 -11.523 -22.116  0.00  0.00    +0.256 C 
ENDBRANCH  18  19
ENDBRANCH  11  18
ENDBRANCH   3  16
ENDBRANCH   1   6
BRANCH   1  21
ATOM     21  C   UNL     1      37.049 -21.461 -17.802  0.00  0.00    +0.145 C 
BRANCH  21  28
ATOM     22  N   UNL     1      34.936 -22.466 -17.116  0.00  0.00    -0.392 NA
ATOM     23  N   UNL     1      36.053 -23.434 -14.775  0.00  0.00    -0.200 NA
ATOM     24  N   UNL     1      34.022 -24.367 -14.174  0.00  0.00    -0.271 NA
ATOM     25  N   UNL     1      32.097 -24.150 -15.589  0.00  0.00    -0.310 NA
ATOM     26  N   UNL     1      32.274 -22.966 -17.626  0.00  0.00    -0.329 N 
ATOM     27  N   UNL     1      31.963 -25.314 -13.562  0.00  0.00    -0.283 N 
ATOM     28  C   UNL     1      36.227 -22.249 -16.821  0.00  0.00    +0.133 C 
ATOM     29  C   UNL     1      36.779 -22.728 -15.664  0.00  0.00    +0.193 C 
ATOM     30  C   UNL     1      34.212 -23.173 -16.226  0.00  0.00    +0.248 C 
ATOM     31  C   UNL     1      34.762 -23.667 -15.042  0.00  0.00    +0.131 C 
ATOM     32  C   UNL     1      32.875 -23.451 -16.436  0.00  0.00    +0.231 C 
ATOM     33  C   UNL     1      32.729 -24.574 -14.489  0.00  0.00    +0.207 C 
ATOM     34  H   UNL     1      31.323 -23.146 -17.806  0.00  0.00    +0.145 HD
ATOM     35  H   UNL     1      32.806 -22.448 -18.271  0.00  0.00    +0.145 HD
ATOM     36  H   UNL     1      32.379 -25.649 -12.735  0.00  0.00    +0.156 HD
ATOM     37  H   UNL     1      31.012 -25.494 -13.742  0.00  0.00    +0.156 HD
ENDBRANCH  21  28
ENDBRANCH   1  21
TORSDOF 6
ENDMDL
MODEL 7
REMARK VINA RESULT:     -12.7      4.587     11.415
REMARK  Name = 25243853
REMARK  6 active torsions:
REMARK  status: ('A' for Active; 'I' for Inactive)
REMARK    1  A    between atoms: N_1  and  C_6
REMARK    2  A    between atoms: N_1  and  C_21
REMARK    3  A    between atoms: C_3  and  C_16
REMARK    4  A    between atoms: C_11  and  C_18
REMARK    5  A    between atoms: C_18  and  O_19
REMARK    6  A    between atoms: C_21  and  C_28
REMARK                            x       y       z     vdW  Elec       q    Type
REMARK                         _______ _______ _______ _____ _____    ______ ____
ROOT
ATOM      1  N   UNL     1      35.551 -20.383 -21.788  0.00  0.00    -0.327 N 
ATOM      2  H   UNL     1      35.279 -21.281 -22.086  0.00  0.00    +0.147 HD
ENDROOT
BRANCH   1   6
ATOM      3  C   UNL     1      34.606 -17.090 -24.218  0.00  0.00    +0.054 C 
ATOM      4  C   UNL     1      35.290 -16.897 -23.017  0.00  0.00    +0.006 C 
ATOM      5  C   UNL     1      34.237 -18.376 -24.611  0.00  0.00    +0.006 C 
ATOM      6  C   UNL     1      35.234 -19.277 -22.604  0.00  0.00    +0.045 C 
ATOM      7  C   UNL     1      35.604 -17.991 -22.211  0.00  0.00    +0.014 C 
ATOM      8  C   UNL     1      34.550 -19.470 -23.804  0.00  0.00    +0.014 C 
BRANCH   3  16
ATOM      9  O   UNL     1      34.500 -16.070 -26.269  0.00  0.00    -0.270 OA
ATOM     10  N   UNL     1      33.735 -14.804 -24.457  0.00  0.00    -0.276 N 
ATOM     11  C   UNL     1      34.004 -12.165 -23.275  0.00  0.00    +0.102 C 
ATOM     12  C   UNL     1      34.183 -12.406 -24.778  0.00  0.00    +0.033 C 
ATOM     13  C   UNL     1      34.217 -13.443 -22.458  0.00  0.00    +0.033 C 
ATOM     14  C   UNL     1      33.415 -13.632 -25.268  0.00  0.00    +0.094 C 
ATOM     15  C   UNL     1      33.467 -14.650 -23.023  0.00  0.00    +0.094 C 
ATOM     16  C   UNL     1      34.275 -15.939 -25.067  0.00  0.00    +0.249 C 
BRANCH  11  18
ATOM     17  O   UNL     1      31.779 -12.119 -22.349  0.00  0.00    -0.250 OA
ATOM     18  C   UNL     1      32.654 -11.566 -23.001  0.00  0.00    +0.317 C 
BRANCH  18  19
ATOM     19  O   UNL     1      32.574 -10.337 -23.587  0.00  0.00    -0.444 OA
ATOM     20  C   UNL     1      32.251  -9.257 -22.705  0.00  0.00    +0.256 C 
ENDBRANCH  18  19
ENDBRANCH  11  18
ENDBRANCH   3  16
ENDBRANCH   1   6
BRANCH   1  21
ATOM     21  C   UNL     1      36.248 -20.257 -20.546  0.00  0.00    +0.145 C 
BRANCH  21  28
ATOM     22  N   UNL     1      36.423 -21.504 -18.457  0.00  0.00    -0.392 NA
ATOM     23  N   UNL     1      33.863 -22.517 -18.744  0.00  0.00    -0.200 NA
ATOM     24  N   UNL     1      34.085 -23.680 -16.754  0.00  0.00    -0.271 NA
ATOM     25  N   UNL     1      36.107 -23.554 -15.471  0.00  0.00    -0.310 NA
ATOM     26  N   UNL     1      37.901 -22.227 -16.246  0.00  0.00    -0.329 N 
ATOM     27  N   UNL     1      34.308 -24.861 -14.738  0.00  0.00    -0.283 N 
ATOM     28  C   UNL     1      35.664 -21.184 -19.516  0.00  0.00    +0.133 C 
ATOM     29  C   UNL     1      34.398 -21.685 -19.657  0.00  0.00    +0.193 C 
ATOM     30  C   UNL     1      35.886 -22.337 -17.544  0.00  0.00    +0.248 C 
ATOM     31  C   UNL     1      34.596 -22.855 -17.675  0.00  0.00    +0.131 C 
ATOM     32  C   UNL     1      36.585 -22.727 -16.419  0.00  0.00    +0.231 C 
ATOM     33  C   UNL     1      34.863 -23.989 -15.699  0.00  0.00    +0.207 C 
ATOM     34  H   UNL     1      38.427 -22.486 -15.455  0.00  0.00    +0.145 HD
ATOM     35  H   UNL     1      38.290 -21.621 -16.917  0.00  0.00    +0.145 HD
ATOM     36  H   UNL     1      33.395 -25.210 -14.859  0.00  0.00    +0.156 HD
ATOM     37  H   UNL     1      34.833 -25.120 -13.946  0.00  0.00    +0.156 HD
ENDBRANCH  21  28
ENDBRANCH   1  21
TORSDOF 6
ENDMDL
MODEL 8
REMARK VINA RESULT:     -12.6      1.212      2.162
REMARK  Name = 25243853
REMARK  6 active torsions:
REMARK  status: ('A' for Active; 'I' for Inactive)
REMARK    1  A    between atoms: N_1  and  C_6
REMARK    2  A    between atoms: N_1  and  C_21
REMARK    3  A    between atoms: C_3  and  C_16
REMARK    4  A    between atoms: C_11  and  C_18
REMARK    5  A    between atoms: C_18  and  O_19
REMARK    6  A    between atoms: C_21  and  C_28
REMARK                            x       y       z     vdW  Elec       q    Type
REMARK                         _______ _______ _______ _____ _____    ______ ____
ROOT
ATOM      1  N   UNL     1      35.664 -19.979 -21.160  0.00  0.00    -0.327 N 
ATOM      2  H   UNL     1      35.561 -20.288 -22.089  0.00  0.00    +0.147 HD
ENDROOT
BRANCH   1   6
ATOM      3  C   UNL     1      34.414 -22.519 -18.057  0.00  0.00    +0.054 C 
ATOM      4  C   UNL     1      35.767 -22.213 -18.205  0.00  0.00    +0.006 C 
ATOM      5  C   UNL     1      33.477 -21.981 -18.939  0.00  0.00    +0.006 C 
ATOM      6  C   UNL     1      35.244 -20.832 -20.117  0.00  0.00    +0.045 C 
ATOM      7  C   UNL     1      36.182 -21.369 -19.236  0.00  0.00    +0.014 C 
ATOM      8  C   UNL     1      33.891 -21.138 -19.969  0.00  0.00    +0.014 C 
BRANCH   3  16
ATOM      9  O   UNL     1      32.792 -23.737 -16.986  0.00  0.00    -0.270 OA
ATOM     10  N   UNL     1      34.924 -23.807 -16.026  0.00  0.00    -0.276 N 
ATOM     11  C   UNL     1      36.254 -23.517 -13.461  0.00  0.00    +0.102 C 
ATOM     12  C   UNL     1      34.806 -24.005 -13.576  0.00  0.00    +0.033 C 
ATOM     13  C   UNL     1      36.694 -22.723 -14.694  0.00  0.00    +0.033 C 
ATOM     14  C   UNL     1      34.520 -24.671 -14.920  0.00  0.00    +0.094 C 
ATOM     15  C   UNL     1      36.337 -23.412 -16.012  0.00  0.00    +0.094 C 
ATOM     16  C   UNL     1      33.977 -23.408 -16.973  0.00  0.00    +0.249 C 
BRANCH  11  18
ATOM     17  O   UNL     1      36.799 -25.778 -12.828  0.00  0.00    -0.250 OA
ATOM     18  C   UNL     1      37.174 -24.676 -13.205  0.00  0.00    +0.317 C 
BRANCH  18  19
ATOM     19  O   UNL     1      38.460 -24.301 -13.458  0.00  0.00    -0.444 OA
ATOM     20  C   UNL     1      39.345 -25.359 -13.839  0.00  0.00    +0.256 C 
ENDBRANCH  18  19
ENDBRANCH  11  18
ENDBRANCH   3  16
ENDBRANCH   1   6
BRANCH   1  21
ATOM     21  C   UNL     1      36.232 -18.688 -20.926  0.00  0.00    +0.145 C 
BRANCH  21  28
ATOM     22  N   UNL     1      35.387 -17.870 -23.063  0.00  0.00    -0.392 NA
ATOM     23  N   UNL     1      34.409 -15.559 -21.893  0.00  0.00    -0.200 NA
ATOM     24  N   UNL     1      33.628 -14.832 -23.947  0.00  0.00    -0.271 NA
ATOM     25  N   UNL     1      33.936 -16.157 -25.923  0.00  0.00    -0.310 NA
ATOM     26  N   UNL     1      35.052 -18.233 -25.774  0.00  0.00    -0.329 N 
ATOM     27  N   UNL     1      32.837 -14.092 -26.029  0.00  0.00    -0.283 N 
ATOM     28  C   UNL     1      35.526 -17.645 -21.747  0.00  0.00    +0.133 C 
ATOM     29  C   UNL     1      35.042 -16.503 -21.169  0.00  0.00    +0.193 C 
ATOM     30  C   UNL     1      34.754 -16.925 -23.785  0.00  0.00    +0.248 C 
ATOM     31  C   UNL     1      34.255 -15.755 -23.208  0.00  0.00    +0.131 C 
ATOM     32  C   UNL     1      34.559 -17.061 -25.145  0.00  0.00    +0.231 C 
ATOM     33  C   UNL     1      33.499 -15.076 -25.265  0.00  0.00    +0.207 C 
ATOM     34  H   UNL     1      34.931 -18.361 -26.743  0.00  0.00    +0.145 HD
ATOM     35  H   UNL     1      35.516 -18.919 -25.242  0.00  0.00    +0.145 HD
ATOM     36  H   UNL     1      32.497 -13.277 -25.594  0.00  0.00    +0.156 HD
ATOM     37  H   UNL     1      32.715 -14.219 -26.998  0.00  0.00    +0.156 HD
ENDBRANCH  21  28
ENDBRANCH   1  21
TORSDOF 6
ENDMDL
MODEL 9
REMARK VINA RESULT:     -12.5      5.972      9.479
REMARK  Name = 25243853
REMARK  6 active torsions:
REMARK  status: ('A' for Active; 'I' for Inactive)
REMARK    1  A    between atoms: N_1  and  C_6
REMARK    2  A    between atoms: N_1  and  C_21
REMARK    3  A    between atoms: C_3  and  C_16
REMARK    4  A    between atoms: C_11  and  C_18
REMARK    5  A    between atoms: C_18  and  O_19
REMARK    6  A    between atoms: C_21  and  C_28
REMARK                            x       y       z     vdW  Elec       q    Type
REMARK                         _______ _______ _______ _____ _____    ______ ____
ROOT
ATOM      1  N   UNL     1      32.760 -10.758 -23.178  0.00  0.00    -0.327 N 
ATOM      2  H   UNL     1      31.868 -10.598 -22.793  0.00  0.00    +0.147 HD
ENDROOT
BRANCH   1   6
ATOM      3  C   UNL     1      33.819 -14.688 -24.217  0.00  0.00    +0.054 C 
ATOM      4  C   UNL     1      34.220 -13.622 -25.022  0.00  0.00    +0.006 C 
ATOM      5  C   UNL     1      33.066 -14.448 -23.067  0.00  0.00    +0.006 C 
ATOM      6  C   UNL     1      33.116 -12.078 -23.527  0.00  0.00    +0.045 C 
ATOM      7  C   UNL     1      33.869 -12.316 -24.676  0.00  0.00    +0.014 C 
ATOM      8  C   UNL     1      32.715 -13.144 -22.722  0.00  0.00    +0.014 C 
BRANCH   3  16
ATOM      9  O   UNL     1      33.761 -16.471 -25.658  0.00  0.00    -0.270 OA
ATOM     10  N   UNL     1      34.987 -16.785 -23.690  0.00  0.00    -0.276 N 
ATOM     11  C   UNL     1      35.320 -18.684 -21.518  0.00  0.00    +0.102 C 
ATOM     12  C   UNL     1      34.874 -19.119 -22.918  0.00  0.00    +0.033 C 
ATOM     13  C   UNL     1      35.040 -17.200 -21.259  0.00  0.00    +0.033 C 
ATOM     14  C   UNL     1      35.355 -18.163 -24.007  0.00  0.00    +0.094 C 
ATOM     15  C   UNL     1      35.496 -16.294 -22.404  0.00  0.00    +0.094 C 
ATOM     16  C   UNL     1      34.188 -16.061 -24.580  0.00  0.00    +0.249 C 
BRANCH  11  18
ATOM     17  O   UNL     1      37.665 -18.657 -22.073  0.00  0.00    -0.250 OA
ATOM     18  C   UNL     1      36.773 -19.005 -21.312  0.00  0.00    +0.317 C 
BRANCH  18  19
ATOM     19  O   UNL     1      36.920 -19.730 -20.167  0.00  0.00    -0.444 OA
ATOM     20  C   UNL     1      36.151 -20.936 -20.100  0.00  0.00    +0.256 C 
ENDBRANCH  18  19
ENDBRANCH  11  18
ENDBRANCH   3  16
ENDBRANCH   1   6
BRANCH   1  21
ATOM     21  C   UNL     1      33.636  -9.643 -23.362  0.00  0.00    +0.145 C 
BRANCH  21  28
ATOM     22  N   UNL     1      33.111  -7.320 -23.886  0.00  0.00    -0.392 NA
ATOM     23  N   UNL     1      31.466  -7.098 -21.671  0.00  0.00    -0.200 NA
ATOM     24  N   UNL     1      31.003  -4.896 -22.217  0.00  0.00    -0.271 NA
ATOM     25  N   UNL     1      31.977  -3.875 -24.157  0.00  0.00    -0.310 NA
ATOM     26  N   UNL     1      33.431  -5.132 -25.531  0.00  0.00    -0.329 N 
ATOM     27  N   UNL     1      30.533  -2.664 -22.768  0.00  0.00    -0.283 N 
ATOM     28  C   UNL     1      32.923  -8.356 -23.054  0.00  0.00    +0.133 C 
ATOM     29  C   UNL     1      32.109  -8.245 -21.959  0.00  0.00    +0.193 C 
ATOM     30  C   UNL     1      32.466  -6.173 -23.596  0.00  0.00    +0.248 C 
ATOM     31  C   UNL     1      31.633  -6.047 -22.483  0.00  0.00    +0.131 C 
ATOM     32  C   UNL     1      32.592  -5.049 -24.390  0.00  0.00    +0.231 C 
ATOM     33  C   UNL     1      31.205  -3.869 -23.064  0.00  0.00    +0.207 C 
ATOM     34  H   UNL     1      33.544  -4.349 -26.117  0.00  0.00    +0.145 HD
ATOM     35  H   UNL     1      33.902  -5.971 -25.737  0.00  0.00    +0.145 HD
ATOM     36  H   UNL     1      29.952  -2.606 -21.975  0.00  0.00    +0.156 HD
ATOM     37  H   UNL     1      30.644  -1.880 -23.354  0.00  0.00    +0.156 HD
ENDBRANCH  21  28
ENDBRANCH   1  21
TORSDOF 6
ENDMDL
