MODEL 1
REMARK VINA RESULT:     -13.8      0.000      0.000
REMARK  Name = 66555680
REMARK  4 active torsions:
REMARK  status: ('A' for Active; 'I' for Inactive)
REMARK    1  A    between atoms: N_1  and  C_8
REMARK    2  A    between atoms: C_3  and  C_22
REMARK    3  A    between atoms: C_4  and  N_18
REMARK    4  A    between atoms: C_22  and  C_24
REMARK                            x       y       z     vdW  Elec       q    Type
REMARK                         _______ _______ _______ _____ _____    ______ ____
ROOT
ATOM      1  N   UNL     1      34.245 -15.381 -22.969  0.00  0.00    -0.177 N 
ATOM      2  N   UNL     1      34.298 -15.821 -24.238  0.00  0.00    -0.171 NA
ATOM      3  C   UNL     1      35.370 -17.247 -22.812  0.00  0.00    +0.090 C 
ATOM      4  C   UNL     1      34.872 -16.200 -22.075  0.00  0.00    +0.122 C 
ATOM      5  C   UNL     1      34.986 -16.961 -24.135  0.00  0.00    +0.124 C 
ENDROOT
BRANCH   1   8
ATOM      6  N   UNL     1      33.155 -10.632 -23.689  0.00  0.00    -0.318 N 
ATOM      7  N   UNL     1      31.725 -10.539 -21.989  0.00  0.00    -0.318 N 
ATOM      8  C   UNL     1      33.586 -14.184 -22.684  0.00  0.00    +0.077 C 
ATOM      9  C   UNL     1      33.152 -11.890 -23.144  0.00  0.00    +0.060 C 
ATOM     10  C   UNL     1      33.838 -13.059 -23.475  0.00  0.00    +0.032 C 
ATOM     11  C   UNL     1      32.253 -11.806 -22.085  0.00  0.00    +0.059 C 
ATOM     12  C   UNL     1      32.689 -14.130 -21.615  0.00  0.00    +0.018 C 
ATOM     13  C   UNL     1      32.011 -12.947 -21.300  0.00  0.00    +0.017 C 
ATOM     14  C   UNL     1      32.287  -9.862 -22.965  0.00  0.00    +0.144 C 
ATOM     15  C   UNL     1      32.060  -8.444 -23.300  0.00  0.00    +0.044 C 
ATOM     16  H   UNL     1      33.686 -10.336 -24.463  0.00  0.00    +0.148 HD
ATOM     17  H   UNL     1      31.070 -10.211 -21.332  0.00  0.00    +0.148 HD
ENDBRANCH   1   8
BRANCH   4  18
ATOM     18  N   UNL     1      34.920 -15.919 -20.755  0.00  0.00    -0.344 N 
ATOM     19  H   UNL     1      35.173 -15.017 -20.452  0.00  0.00    +0.144 HD
ATOM     20  H   UNL     1      34.702 -16.616 -20.095  0.00  0.00    +0.144 HD
ENDBRANCH   4  18
BRANCH   3  22
ATOM     21  O   UNL     1      37.337 -18.505 -22.672  0.00  0.00    -0.285 OA
ATOM     22  C   UNL     1      36.149 -18.425 -22.282  0.00  0.00    +0.213 C 
BRANCH  22  24
ATOM     23  N   UNL     1      36.332 -20.130 -20.508  0.00  0.00    -0.310 N 
ATOM     24  C   UNL     1      35.591 -19.398 -21.397  0.00  0.00    +0.088 C 
ATOM     25  C   UNL     1      35.516 -20.982 -19.798  0.00  0.00    +0.048 C 
ATOM     26  C   UNL     1      34.212 -20.780 -20.256  0.00  0.00    +0.015 C 
ATOM     27  C   UNL     1      34.275 -19.777 -21.266  0.00  0.00    +0.019 C 
ATOM     28  C   UNL     1      35.828 -21.906 -18.795  0.00  0.00    +0.015 C 
ATOM     29  C   UNL     1      33.169 -21.535 -19.688  0.00  0.00    +0.001 C 
ATOM     30  C   UNL     1      34.776 -22.644 -18.245  0.00  0.00    +0.001 C 
ATOM     31  C   UNL     1      33.466 -22.463 -18.684  0.00  0.00    +0.000 C 
ATOM     32  H   UNL     1      37.307 -20.057 -20.393  0.00  0.00    +0.152 HD
ENDBRANCH  22  24
ENDBRANCH   3  22
TORSDOF 4
ENDMDL
MODEL 2
REMARK VINA RESULT:     -13.8      1.862      2.613
REMARK  Name = 66555680
REMARK  4 active torsions:
REMARK  status: ('A' for Active; 'I' for Inactive)
REMARK    1  A    between atoms: N_1  and  C_8
REMARK    2  A    between atoms: C_3  and  C_22
REMARK    3  A    between atoms: C_4  and  N_18
REMARK    4  A    between atoms: C_22  and  C_24
REMARK                            x       y       z     vdW  Elec       q    Type
REMARK                         _______ _______ _______ _____ _____    ______ ____
ROOT
ATOM      1  N   UNL     1      33.193 -13.815 -23.927  0.00  0.00    -0.177 N 
ATOM      2  N   UNL     1      32.710 -13.884 -25.179  0.00  0.00    -0.171 NA
ATOM      3  C   UNL     1      34.081 -15.650 -24.711  0.00  0.00    +0.090 C 
ATOM      4  C   UNL     1      34.019 -14.849 -23.596  0.00  0.00    +0.122 C 
ATOM      5  C   UNL     1      33.256 -15.008 -25.653  0.00  0.00    +0.124 C 
ENDROOT
BRANCH   1   8
ATOM      6  N   UNL     1      32.857  -9.046 -22.739  0.00  0.00    -0.318 N 
ATOM      7  N   UNL     1      31.821  -9.438 -20.811  0.00  0.00    -0.318 N 
ATOM      8  C   UNL     1      32.827 -12.744 -23.109  0.00  0.00    +0.077 C 
ATOM      9  C   UNL     1      32.733 -10.410 -22.659  0.00  0.00    +0.060 C 
ATOM     10  C   UNL     1      33.120 -11.439 -23.517  0.00  0.00    +0.032 C 
ATOM     11  C   UNL     1      32.083 -10.628 -21.448  0.00  0.00    +0.059 C 
ATOM     12  C   UNL     1      32.177 -12.995 -21.898  0.00  0.00    +0.018 C 
ATOM     13  C   UNL     1      31.797 -11.946 -21.053  0.00  0.00    +0.017 C 
ATOM     14  C   UNL     1      32.297  -8.511 -21.612  0.00  0.00    +0.144 C 
ATOM     15  C   UNL     1      32.268  -7.053 -21.390  0.00  0.00    +0.044 C 
ATOM     16  H   UNL     1      33.273  -8.544 -23.476  0.00  0.00    +0.148 HD
ATOM     17  H   UNL     1      31.374  -9.307 -19.943  0.00  0.00    +0.148 HD
ENDBRANCH   1   8
BRANCH   4  18
ATOM     18  N   UNL     1      34.597 -14.946 -22.379  0.00  0.00    -0.344 N 
ATOM     19  H   UNL     1      34.378 -14.292 -21.676  0.00  0.00    +0.144 HD
ATOM     20  H   UNL     1      35.238 -15.669 -22.195  0.00  0.00    +0.144 HD
ENDBRANCH   4  18
BRANCH   3  22
ATOM     21  O   UNL     1      35.258 -17.196 -26.014  0.00  0.00    -0.285 OA
ATOM     22  C   UNL     1      34.870 -16.928 -24.853  0.00  0.00    +0.213 C 
BRANCH  22  24
ATOM     23  N   UNL     1      36.331 -17.741 -23.039  0.00  0.00    -0.310 N 
ATOM     24  C   UNL     1      35.165 -17.792 -23.754  0.00  0.00    +0.088 C 
ATOM     25  C   UNL     1      36.322 -18.696 -22.047  0.00  0.00    +0.048 C 
ATOM     26  C   UNL     1      35.105 -19.375 -22.141  0.00  0.00    +0.015 C 
ATOM     27  C   UNL     1      34.385 -18.793 -23.223  0.00  0.00    +0.019 C 
ATOM     28  C   UNL     1      37.288 -19.009 -21.085  0.00  0.00    +0.015 C 
ATOM     29  C   UNL     1      34.837 -20.415 -21.231  0.00  0.00    +0.001 C 
ATOM     30  C   UNL     1      37.000 -20.044 -20.192  0.00  0.00    +0.001 C 
ATOM     31  C   UNL     1      35.794 -20.738 -20.262  0.00  0.00    +0.000 C 
ATOM     32  H   UNL     1      37.070 -17.112 -23.209  0.00  0.00    +0.152 HD
ENDBRANCH  22  24
ENDBRANCH   3  22
TORSDOF 4
ENDMDL
MODEL 3
REMARK VINA RESULT:     -13.4      1.879      8.783
REMARK  Name = 66555680
REMARK  4 active torsions:
REMARK  status: ('A' for Active; 'I' for Inactive)
REMARK    1  A    between atoms: N_1  and  C_8
REMARK    2  A    between atoms: C_3  and  C_22
REMARK    3  A    between atoms: C_4  and  N_18
REMARK    4  A    between atoms: C_22  and  C_24
REMARK                            x       y       z     vdW  Elec       q    Type
REMARK                         _______ _______ _______ _____ _____    ______ ____
ROOT
ATOM      1  N   UNL     1      34.770 -19.104 -22.232  0.00  0.00    -0.177 N 
ATOM      2  N   UNL     1      34.506 -19.517 -23.483  0.00  0.00    -0.171 NA
ATOM      3  C   UNL     1      34.912 -17.271 -23.411  0.00  0.00    +0.090 C 
ATOM      4  C   UNL     1      35.021 -17.766 -22.134  0.00  0.00    +0.122 C 
ATOM      5  C   UNL     1      34.594 -18.393 -24.199  0.00  0.00    +0.124 C 
ENDROOT
BRANCH   1   8
ATOM      6  N   UNL     1      32.632 -21.960 -18.835  0.00  0.00    -0.318 N 
ATOM      7  N   UNL     1      34.558 -22.773 -18.079  0.00  0.00    -0.318 N 
ATOM      8  C   UNL     1      34.767 -20.031 -21.187  0.00  0.00    +0.077 C 
ATOM      9  C   UNL     1      33.606 -21.360 -19.592  0.00  0.00    +0.060 C 
ATOM     10  C   UNL     1      33.547 -20.433 -20.633  0.00  0.00    +0.032 C 
ATOM     11  C   UNL     1      34.798 -21.884 -19.101  0.00  0.00    +0.059 C 
ATOM     12  C   UNL     1      35.979 -20.539 -20.716  0.00  0.00    +0.018 C 
ATOM     13  C   UNL     1      36.014 -21.469 -19.670  0.00  0.00    +0.017 C 
ATOM     14  C   UNL     1      33.250 -22.795 -17.946  0.00  0.00    +0.144 C 
ATOM     15  C   UNL     1      32.474 -23.594 -16.980  0.00  0.00    +0.044 C 
ATOM     16  H   UNL     1      31.662 -21.816 -18.918  0.00  0.00    +0.148 HD
ATOM     17  H   UNL     1      35.221 -23.283 -17.559  0.00  0.00    +0.148 HD
ENDBRANCH   1   8
BRANCH   4  18
ATOM     18  N   UNL     1      35.306 -17.174 -20.955  0.00  0.00    -0.344 N 
ATOM     19  H   UNL     1      35.477 -16.205 -20.918  0.00  0.00    +0.144 HD
ATOM     20  H   UNL     1      35.344 -17.711 -20.131  0.00  0.00    +0.144 HD
ENDBRANCH   4  18
BRANCH   3  22
ATOM     21  O   UNL     1      36.007 -15.636 -24.676  0.00  0.00    -0.285 OA
ATOM     22  C   UNL     1      35.100 -15.835 -23.834  0.00  0.00    +0.213 C 
BRANCH  22  24
ATOM     23  N   UNL     1      34.298 -13.502 -23.866  0.00  0.00    -0.310 N 
ATOM     24  C   UNL     1      34.313 -14.759 -23.322  0.00  0.00    +0.088 C 
ATOM     25  C   UNL     1      33.446 -12.687 -23.154  0.00  0.00    +0.048 C 
ATOM     26  C   UNL     1      32.904 -13.458 -22.124  0.00  0.00    +0.015 C 
ATOM     27  C   UNL     1      33.460 -14.764 -22.243  0.00  0.00    +0.019 C 
ATOM     28  C   UNL     1      33.118 -11.340 -23.342  0.00  0.00    +0.015 C 
ATOM     29  C   UNL     1      31.988 -12.858 -21.238  0.00  0.00    +0.001 C 
ATOM     30  C   UNL     1      32.208 -10.766 -22.450  0.00  0.00    +0.001 C 
ATOM     31  C   UNL     1      31.650 -11.512 -21.413  0.00  0.00    +0.000 C 
ATOM     32  H   UNL     1      34.821 -13.222 -24.651  0.00  0.00    +0.152 HD
ENDBRANCH  22  24
ENDBRANCH   3  22
TORSDOF 4
ENDMDL
MODEL 4
REMARK VINA RESULT:     -13.3      2.029      8.668
REMARK  Name = 66555680
REMARK  4 active torsions:
REMARK  status: ('A' for Active; 'I' for Inactive)
REMARK    1  A    between atoms: N_1  and  C_8
REMARK    2  A    between atoms: C_3  and  C_22
REMARK    3  A    between atoms: C_4  and  N_18
REMARK    4  A    between atoms: C_22  and  C_24
REMARK                            x       y       z     vdW  Elec       q    Type
REMARK                         _______ _______ _______ _____ _____    ______ ____
ROOT
ATOM      1  N   UNL     1      34.941 -18.051 -23.527  0.00  0.00    -0.177 N 
ATOM      2  N   UNL     1      34.585 -18.692 -24.654  0.00  0.00    -0.171 NA
ATOM      3  C   UNL     1      34.295 -16.435 -24.847  0.00  0.00    +0.090 C 
ATOM      4  C   UNL     1      34.786 -16.697 -23.591  0.00  0.00    +0.122 C 
ATOM      5  C   UNL     1      34.192 -17.699 -25.456  0.00  0.00    +0.124 C 
ENDROOT
BRANCH   1   8
ATOM      6  N   UNL     1      34.517 -21.251 -19.806  0.00  0.00    -0.318 N 
ATOM      7  N   UNL     1      36.642 -21.051 -19.184  0.00  0.00    -0.318 N 
ATOM      8  C   UNL     1      35.415 -18.787 -22.440  0.00  0.00    +0.077 C 
ATOM      9  C   UNL     1      35.071 -20.349 -20.678  0.00  0.00    +0.060 C 
ATOM     10  C   UNL     1      34.542 -19.640 -21.757  0.00  0.00    +0.032 C 
ATOM     11  C   UNL     1      36.397 -20.241 -20.270  0.00  0.00    +0.059 C 
ATOM     12  C   UNL     1      36.751 -18.658 -22.053  0.00  0.00    +0.018 C 
ATOM     13  C   UNL     1      37.261 -19.379 -20.967  0.00  0.00    +0.017 C 
ATOM     14  C   UNL     1      35.495 -21.641 -18.933  0.00  0.00    +0.144 C 
ATOM     15  C   UNL     1      35.220 -22.615 -17.861  0.00  0.00    +0.044 C 
ATOM     16  H   UNL     1      33.583 -21.562 -19.809  0.00  0.00    +0.148 HD
ATOM     17  H   UNL     1      37.492 -21.164 -18.700  0.00  0.00    +0.148 HD
ENDBRANCH   1   8
BRANCH   4  18
ATOM     18  N   UNL     1      35.093 -15.890 -22.553  0.00  0.00    -0.344 N 
ATOM     19  H   UNL     1      35.893 -15.317 -22.594  0.00  0.00    +0.144 HD
ATOM     20  H   UNL     1      34.518 -15.875 -21.754  0.00  0.00    +0.144 HD
ENDBRANCH   4  18
BRANCH   3  22
ATOM     21  O   UNL     1      34.046 -14.973 -26.656  0.00  0.00    -0.285 OA
ATOM     22  C   UNL     1      33.955 -15.078 -25.411  0.00  0.00    +0.213 C 
BRANCH  22  24
ATOM     23  N   UNL     1      32.795 -14.093 -23.468  0.00  0.00    -0.310 N 
ATOM     24  C   UNL     1      33.555 -13.971 -24.600  0.00  0.00    +0.088 C 
ATOM     25  C   UNL     1      32.575 -12.854 -22.908  0.00  0.00    +0.048 C 
ATOM     26  C   UNL     1      33.222 -11.917 -23.717  0.00  0.00    +0.015 C 
ATOM     27  C   UNL     1      33.836 -12.636 -24.781  0.00  0.00    +0.019 C 
ATOM     28  C   UNL     1      31.861 -12.495 -21.760  0.00  0.00    +0.015 C 
ATOM     29  C   UNL     1      33.154 -10.555 -23.364  0.00  0.00    +0.001 C 
ATOM     30  C   UNL     1      31.808 -11.139 -21.430  0.00  0.00    +0.001 C 
ATOM     31  C   UNL     1      32.444 -10.181 -22.218  0.00  0.00    +0.000 C 
ATOM     32  H   UNL     1      32.454 -14.943 -23.107  0.00  0.00    +0.152 HD
ENDBRANCH  22  24
ENDBRANCH   3  22
TORSDOF 4
ENDMDL
MODEL 5
REMARK VINA RESULT:     -13.2      3.350      5.595
REMARK  Name = 66555680
REMARK  4 active torsions:
REMARK  status: ('A' for Active; 'I' for Inactive)
REMARK    1  A    between atoms: N_1  and  C_8
REMARK    2  A    between atoms: C_3  and  C_22
REMARK    3  A    between atoms: C_4  and  N_18
REMARK    4  A    between atoms: C_22  and  C_24
REMARK                            x       y       z     vdW  Elec       q    Type
REMARK                         _______ _______ _______ _____ _____    ______ ____
ROOT
ATOM      1  N   UNL     1      35.152 -19.773 -20.853  0.00  0.00    -0.177 N 
ATOM      2  N   UNL     1      36.373 -20.110 -20.402  0.00  0.00    -0.171 NA
ATOM      3  C   UNL     1      34.820 -21.703 -19.885  0.00  0.00    +0.090 C 
ATOM      4  C   UNL     1      34.186 -20.694 -20.569  0.00  0.00    +0.122 C 
ATOM      5  C   UNL     1      36.163 -21.290 -19.812  0.00  0.00    +0.124 C 
ENDROOT
BRANCH   1   8
ATOM      6  N   UNL     1      34.284 -17.023 -24.846  0.00  0.00    -0.318 N 
ATOM      7  N   UNL     1      34.448 -15.096 -23.748  0.00  0.00    -0.318 N 
ATOM      8  C   UNL     1      34.982 -18.570 -21.540  0.00  0.00    +0.077 C 
ATOM      9  C   UNL     1      34.551 -17.364 -23.545  0.00  0.00    +0.060 C 
ATOM     10  C   UNL     1      34.711 -18.597 -22.912  0.00  0.00    +0.032 C 
ATOM     11  C   UNL     1      34.649 -16.145 -22.881  0.00  0.00    +0.059 C 
ATOM     12  C   UNL     1      35.086 -17.362 -20.846  0.00  0.00    +0.018 C 
ATOM     13  C   UNL     1      34.922 -16.136 -21.502  0.00  0.00    +0.017 C 
ATOM     14  C   UNL     1      34.232 -15.658 -24.917  0.00  0.00    +0.144 C 
ATOM     15  C   UNL     1      33.960 -14.968 -26.191  0.00  0.00    +0.044 C 
ATOM     16  H   UNL     1      34.152 -17.648 -25.595  0.00  0.00    +0.148 HD
ATOM     17  H   UNL     1      34.463 -14.134 -23.540  0.00  0.00    +0.148 HD
ENDBRANCH   1   8
BRANCH   4  18
ATOM     18  N   UNL     1      32.900 -20.525 -20.945  0.00  0.00    -0.344 N 
ATOM     19  H   UNL     1      32.680 -20.368 -21.892  0.00  0.00    +0.144 HD
ATOM     20  H   UNL     1      32.183 -20.556 -20.272  0.00  0.00    +0.144 HD
ENDBRANCH   4  18
BRANCH   3  22
ATOM     21  O   UNL     1      34.282 -23.971 -20.082  0.00  0.00    -0.285 OA
ATOM     22  C   UNL     1      34.182 -22.960 -19.348  0.00  0.00    +0.213 C 
BRANCH  22  24
ATOM     23  N   UNL     1      32.154 -22.830 -17.949  0.00  0.00    -0.310 N 
ATOM     24  C   UNL     1      33.502 -23.018 -18.093  0.00  0.00    +0.088 C 
ATOM     25  C   UNL     1      31.797 -22.946 -16.624  0.00  0.00    +0.048 C 
ATOM     26  C   UNL     1      32.964 -23.218 -15.906  0.00  0.00    +0.015 C 
ATOM     27  C   UNL     1      34.032 -23.260 -16.846  0.00  0.00    +0.019 C 
ATOM     28  C   UNL     1      30.544 -22.832 -16.012  0.00  0.00    +0.015 C 
ATOM     29  C   UNL     1      32.878 -23.385 -14.511  0.00  0.00    +0.001 C 
ATOM     30  C   UNL     1      30.483 -23.002 -14.627  0.00  0.00    +0.001 C 
ATOM     31  C   UNL     1      31.631 -23.274 -13.885  0.00  0.00    +0.000 C 
ATOM     32  H   UNL     1      31.530 -22.639 -18.686  0.00  0.00    +0.152 HD
ENDBRANCH  22  24
ENDBRANCH   3  22
TORSDOF 4
ENDMDL
MODEL 6
REMARK VINA RESULT:     -13.1      3.059      5.890
REMARK  Name = 66555680
REMARK  4 active torsions:
REMARK  status: ('A' for Active; 'I' for Inactive)
REMARK    1  A    between atoms: N_1  and  C_8
REMARK    2  A    between atoms: C_3  and  C_22
REMARK    3  A    between atoms: C_4  and  N_18
REMARK    4  A    between atoms: C_22  and  C_24
REMARK                            x       y       z     vdW  Elec       q    Type
REMARK                         _______ _______ _______ _____ _____    ______ ____
ROOT
ATOM      1  N   UNL     1      35.300 -20.045 -20.783  0.00  0.00    -0.177 N 
ATOM      2  N   UNL     1      36.535 -20.331 -20.337  0.00  0.00    -0.171 NA
ATOM      3  C   UNL     1      34.959 -21.657 -19.349  0.00  0.00    +0.090 C 
ATOM      4  C   UNL     1      34.320 -20.811 -20.223  0.00  0.00    +0.122 C 
ATOM      5  C   UNL     1      36.320 -21.317 -19.462  0.00  0.00    +0.124 C 
ENDROOT
BRANCH   1   8
ATOM      6  N   UNL     1      34.677 -15.386 -22.255  0.00  0.00    -0.318 N 
ATOM      7  N   UNL     1      34.617 -15.910 -24.415  0.00  0.00    -0.318 N 
ATOM      8  C   UNL     1      35.130 -19.037 -21.735  0.00  0.00    +0.077 C 
ATOM      9  C   UNL     1      34.832 -16.747 -22.306  0.00  0.00    +0.060 C 
ATOM     10  C   UNL     1      35.000 -17.710 -21.311  0.00  0.00    +0.032 C 
ATOM     11  C   UNL     1      34.791 -17.049 -23.664  0.00  0.00    +0.059 C 
ATOM     12  C   UNL     1      35.093 -19.372 -23.090  0.00  0.00    +0.018 C 
ATOM     13  C   UNL     1      34.923 -18.388 -24.072  0.00  0.00    +0.017 C 
ATOM     14  C   UNL     1      34.552 -14.932 -23.539  0.00  0.00    +0.144 C 
ATOM     15  C   UNL     1      34.370 -13.498 -23.830  0.00  0.00    +0.044 C 
ATOM     16  H   UNL     1      34.659 -14.834 -21.440  0.00  0.00    +0.148 HD
ATOM     17  H   UNL     1      34.553 -15.841 -25.395  0.00  0.00    +0.148 HD
ENDBRANCH   1   8
BRANCH   4  18
ATOM     18  N   UNL     1      33.018 -20.664 -20.551  0.00  0.00    -0.344 N 
ATOM     19  H   UNL     1      32.762 -20.488 -21.485  0.00  0.00    +0.144 HD
ATOM     20  H   UNL     1      32.325 -20.733 -19.855  0.00  0.00    +0.144 HD
ENDBRANCH   4  18
BRANCH   3  22
ATOM     21  O   UNL     1      33.381 -23.352 -19.019  0.00  0.00    -0.285 OA
ATOM     22  C   UNL     1      34.311 -22.706 -18.481  0.00  0.00    +0.213 C 
BRANCH  22  24
ATOM     23  N   UNL     1      33.891 -23.531 -16.194  0.00  0.00    -0.310 N 
ATOM     24  C   UNL     1      34.709 -22.962 -17.133  0.00  0.00    +0.088 C 
ATOM     25  C   UNL     1      34.556 -23.648 -14.993  0.00  0.00    +0.048 C 
ATOM     26  C   UNL     1      35.841 -23.133 -15.183  0.00  0.00    +0.015 C 
ATOM     27  C   UNL     1      35.922 -22.704 -16.538  0.00  0.00    +0.019 C 
ATOM     28  C   UNL     1      34.124 -24.164 -13.767  0.00  0.00    +0.015 C 
ATOM     29  C   UNL     1      36.738 -23.133 -14.098  0.00  0.00    +0.001 C 
ATOM     30  C   UNL     1      35.032 -24.153 -12.705  0.00  0.00    +0.001 C 
ATOM     31  C   UNL     1      36.320 -23.646 -12.866  0.00  0.00    +0.000 C 
ATOM     32  H   UNL     1      32.963 -23.816 -16.353  0.00  0.00    +0.152 HD
ENDBRANCH  22  24
ENDBRANCH   3  22
TORSDOF 4
ENDMDL
MODEL 7
REMARK VINA RESULT:     -12.8      2.824     10.282
REMARK  Name = 66555680
REMARK  4 active torsions:
REMARK  status: ('A' for Active; 'I' for Inactive)
REMARK    1  A    between atoms: N_1  and  C_8
REMARK    2  A    between atoms: C_3  and  C_22
REMARK    3  A    between atoms: C_4  and  N_18
REMARK    4  A    between atoms: C_22  and  C_24
REMARK                            x       y       z     vdW  Elec       q    Type
REMARK                         _______ _______ _______ _____ _____    ______ ____
ROOT
ATOM      1  N   UNL     1      33.688 -13.561 -23.132  0.00  0.00    -0.177 N 
ATOM      2  N   UNL     1      34.191 -12.680 -24.013  0.00  0.00    -0.171 NA
ATOM      3  C   UNL     1      32.572 -11.731 -22.710  0.00  0.00    +0.090 C 
ATOM      4  C   UNL     1      32.715 -13.043 -22.328  0.00  0.00    +0.122 C 
ATOM      5  C   UNL     1      33.506 -11.564 -23.749  0.00  0.00    +0.124 C 
ENDROOT
BRANCH   1   8
ATOM      6  N   UNL     1      35.594 -17.560 -20.977  0.00  0.00    -0.318 N 
ATOM      7  N   UNL     1      35.666 -18.735 -22.863  0.00  0.00    -0.318 N 
ATOM      8  C   UNL     1      34.178 -14.869 -23.113  0.00  0.00    +0.077 C 
ATOM      9  C   UNL     1      35.096 -16.728 -21.947  0.00  0.00    +0.060 C 
ATOM     10  C   UNL     1      34.617 -15.419 -21.904  0.00  0.00    +0.032 C 
ATOM     11  C   UNL     1      35.151 -17.484 -23.114  0.00  0.00    +0.059 C 
ATOM     12  C   UNL     1      34.221 -15.603 -24.300  0.00  0.00    +0.018 C 
ATOM     13  C   UNL     1      34.706 -16.916 -24.320  0.00  0.00    +0.017 C 
ATOM     14  C   UNL     1      35.920 -18.747 -21.573  0.00  0.00    +0.144 C 
ATOM     15  C   UNL     1      36.486 -19.864 -20.796  0.00  0.00    +0.044 C 
ATOM     16  H   UNL     1      35.698 -17.342 -20.023  0.00  0.00    +0.148 HD
ATOM     17  H   UNL     1      35.812 -19.464 -23.508  0.00  0.00    +0.148 HD
ENDBRANCH   1   8
BRANCH   4  18
ATOM     18  N   UNL     1      32.096 -13.783 -21.383  0.00  0.00    -0.344 N 
ATOM     19  H   UNL     1      32.568 -14.017 -20.551  0.00  0.00    +0.144 HD
ATOM     20  H   UNL     1      31.171 -14.089 -21.525  0.00  0.00    +0.144 HD
ENDBRANCH   4  18
BRANCH   3  22
ATOM     21  O   UNL     1      30.772 -11.190 -21.318  0.00  0.00    -0.285 OA
ATOM     22  C   UNL     1      31.616 -10.725 -22.120  0.00  0.00    +0.213 C 
BRANCH  22  24
ATOM     23  N   UNL     1      31.830  -8.344 -21.510  0.00  0.00    -0.310 N 
ATOM     24  C   UNL     1      31.649  -9.333 -22.439  0.00  0.00    +0.088 C 
ATOM     25  C   UNL     1      31.813  -7.110 -22.122  0.00  0.00    +0.048 C 
ATOM     26  C   UNL     1      31.613  -7.330 -23.486  0.00  0.00    +0.015 C 
ATOM     27  C   UNL     1      31.511  -8.738 -23.672  0.00  0.00    +0.019 C 
ATOM     28  C   UNL     1      31.957  -5.830 -21.577  0.00  0.00    +0.015 C 
ATOM     29  C   UNL     1      31.555  -6.219 -24.350  0.00  0.00    +0.001 C 
ATOM     30  C   UNL     1      31.896  -4.743 -22.453  0.00  0.00    +0.001 C 
ATOM     31  C   UNL     1      31.698  -4.933 -23.820  0.00  0.00    +0.000 C 
ATOM     32  H   UNL     1      31.955  -8.493 -20.545  0.00  0.00    +0.152 HD
ENDBRANCH  22  24
ENDBRANCH   3  22
TORSDOF 4
ENDMDL
MODEL 8
REMARK VINA RESULT:     -12.6      3.352      5.439
REMARK  Name = 66555680
REMARK  4 active torsions:
REMARK  status: ('A' for Active; 'I' for Inactive)
REMARK    1  A    between atoms: N_1  and  C_8
REMARK    2  A    between atoms: C_3  and  C_22
REMARK    3  A    between atoms: C_4  and  N_18
REMARK    4  A    between atoms: C_22  and  C_24
REMARK                            x       y       z     vdW  Elec       q    Type
REMARK                         _______ _______ _______ _____ _____    ______ ____
ROOT
ATOM      1  N   UNL     1      35.327 -19.576 -20.905  0.00  0.00    -0.177 N 
ATOM      2  N   UNL     1      36.595 -19.898 -20.596  0.00  0.00    -0.171 NA
ATOM      3  C   UNL     1      35.117 -21.445 -19.794  0.00  0.00    +0.090 C 
ATOM      4  C   UNL     1      34.403 -20.470 -20.448  0.00  0.00    +0.122 C 
ATOM      5  C   UNL     1      36.459 -21.041 -19.917  0.00  0.00    +0.124 C 
ENDROOT
BRANCH   1   8
ATOM      6  N   UNL     1      34.221 -17.035 -24.978  0.00  0.00    -0.318 N 
ATOM      7  N   UNL     1      34.293 -15.062 -23.957  0.00  0.00    -0.318 N 
ATOM      8  C   UNL     1      35.073 -18.411 -21.633  0.00  0.00    +0.077 C 
ATOM      9  C   UNL     1      34.533 -17.310 -23.671  0.00  0.00    +0.060 C 
ATOM     10  C   UNL     1      34.777 -18.507 -22.996  0.00  0.00    +0.032 C 
ATOM     11  C   UNL     1      34.573 -16.063 -23.055  0.00  0.00    +0.059 C 
ATOM     12  C   UNL     1      35.120 -17.174 -20.987  0.00  0.00    +0.018 C 
ATOM     13  C   UNL     1      34.872 -15.986 -21.684  0.00  0.00    +0.017 C 
ATOM     14  C   UNL     1      34.087 -15.680 -25.099  0.00  0.00    +0.144 C 
ATOM     15  C   UNL     1      33.750 -15.056 -26.391  0.00  0.00    +0.044 C 
ATOM     16  H   UNL     1      34.111 -17.696 -25.700  0.00  0.00    +0.148 HD
ATOM     17  H   UNL     1      34.256 -14.093 -23.785  0.00  0.00    +0.148 HD
ENDBRANCH   1   8
BRANCH   4  18
ATOM     18  N   UNL     1      33.080 -20.309 -20.666  0.00  0.00    -0.344 N 
ATOM     19  H   UNL     1      32.761 -19.581 -21.246  0.00  0.00    +0.144 HD
ATOM     20  H   UNL     1      32.434 -20.921 -20.244  0.00  0.00    +0.144 HD
ENDBRANCH   4  18
BRANCH   3  22
ATOM     21  O   UNL     1      33.903 -23.444 -19.846  0.00  0.00    -0.285 OA
ATOM     22  C   UNL     1      34.549 -22.663 -19.109  0.00  0.00    +0.213 C 
BRANCH  22  24
ATOM     23  N   UNL     1      35.894 -22.717 -17.041  0.00  0.00    -0.310 N 
ATOM     24  C   UNL     1      34.722 -22.930 -17.716  0.00  0.00    +0.088 C 
ATOM     25  C   UNL     1      35.749 -23.069 -15.717  0.00  0.00    +0.048 C 
ATOM     26  C   UNL     1      34.438 -23.519 -15.552  0.00  0.00    +0.015 C 
ATOM     27  C   UNL     1      33.802 -23.426 -16.822  0.00  0.00    +0.019 C 
ATOM     28  C   UNL     1      36.670 -23.023 -14.665  0.00  0.00    +0.015 C 
ATOM     29  C   UNL     1      34.023 -23.945 -14.276  0.00  0.00    +0.001 C 
ATOM     30  C   UNL     1      36.235 -23.449 -13.407  0.00  0.00    +0.001 C 
ATOM     31  C   UNL     1      34.932 -23.904 -13.213  0.00  0.00    +0.000 C 
ATOM     32  H   UNL     1      36.720 -22.364 -17.443  0.00  0.00    +0.152 HD
ENDBRANCH  22  24
ENDBRANCH   3  22
TORSDOF 4
ENDMDL
MODEL 9
REMARK VINA RESULT:     -12.5      2.916      5.626
REMARK  Name = 66555680
REMARK  4 active torsions:
REMARK  status: ('A' for Active; 'I' for Inactive)
REMARK    1  A    between atoms: N_1  and  C_8
REMARK    2  A    between atoms: C_3  and  C_22
REMARK    3  A    between atoms: C_4  and  N_18
REMARK    4  A    between atoms: C_22  and  C_24
REMARK                            x       y       z     vdW  Elec       q    Type
REMARK                         _______ _______ _______ _____ _____    ______ ____
ROOT
ATOM      1  N   UNL     1      35.221 -20.061 -20.759  0.00  0.00    -0.177 N 
ATOM      2  N   UNL     1      36.381 -20.372 -20.154  0.00  0.00    -0.171 NA
ATOM      3  C   UNL     1      34.754 -21.903 -19.681  0.00  0.00    +0.090 C 
ATOM      4  C   UNL     1      34.214 -20.947 -20.507  0.00  0.00    +0.122 C 
ATOM      5  C   UNL     1      36.089 -21.498 -19.498  0.00  0.00    +0.124 C 
ENDROOT
BRANCH   1   8
ATOM      6  N   UNL     1      34.470 -15.261 -21.571  0.00  0.00    -0.318 N 
ATOM      7  N   UNL     1      34.875 -15.406 -23.752  0.00  0.00    -0.318 N 
ATOM      8  C   UNL     1      35.147 -18.916 -21.553  0.00  0.00    +0.077 C 
ATOM      9  C   UNL     1      34.756 -16.582 -21.804  0.00  0.00    +0.060 C 
ATOM     10  C   UNL     1      34.817 -17.692 -20.961  0.00  0.00    +0.032 C 
ATOM     11  C   UNL     1      35.005 -16.647 -23.171  0.00  0.00    +0.059 C 
ATOM     12  C   UNL     1      35.401 -19.012 -22.923  0.00  0.00    +0.018 C 
ATOM     13  C   UNL     1      35.335 -17.884 -23.750  0.00  0.00    +0.017 C 
ATOM     14  C   UNL     1      34.554 -14.600 -22.765  0.00  0.00    +0.144 C 
ATOM     15  C   UNL     1      34.301 -13.150 -22.856  0.00  0.00    +0.044 C 
ATOM     16  H   UNL     1      34.246 -14.861 -20.700  0.00  0.00    +0.148 HD
ATOM     17  H   UNL     1      34.995 -15.172 -24.701  0.00  0.00    +0.148 HD
ENDBRANCH   1   8
BRANCH   4  18
ATOM     18  N   UNL     1      32.978 -20.796 -21.031  0.00  0.00    -0.344 N 
ATOM     19  H   UNL     1      32.316 -20.228 -20.576  0.00  0.00    +0.144 HD
ATOM     20  H   UNL     1      32.740 -21.255 -21.869  0.00  0.00    +0.144 HD
ENDBRANCH   4  18
BRANCH   3  22
ATOM     21  O   UNL     1      33.941 -24.086 -19.892  0.00  0.00    -0.285 OA
ATOM     22  C   UNL     1      34.040 -23.106 -19.118  0.00  0.00    +0.213 C 
BRANCH  22  24
ATOM     23  N   UNL     1      34.206 -23.576 -16.701  0.00  0.00    -0.310 N 
ATOM     24  C   UNL     1      33.502 -23.149 -17.794  0.00  0.00    +0.088 C 
ATOM     25  C   UNL     1      33.421 -23.502 -15.572  0.00  0.00    +0.048 C 
ATOM     26  C   UNL     1      32.175 -23.010 -15.969  0.00  0.00    +0.015 C 
ATOM     27  C   UNL     1      32.241 -22.792 -17.374  0.00  0.00    +0.019 C 
ATOM     28  C   UNL     1      33.714 -23.830 -14.244  0.00  0.00    +0.015 C 
ATOM     29  C   UNL     1      31.174 -22.835 -14.995  0.00  0.00    +0.001 C 
ATOM     30  C   UNL     1      32.705 -23.648 -13.295  0.00  0.00    +0.001 C 
ATOM     31  C   UNL     1      31.453 -23.159 -13.662  0.00  0.00    +0.000 C 
ATOM     32  H   UNL     1      35.139 -23.891 -16.719  0.00  0.00    +0.152 HD
ENDBRANCH  22  24
ENDBRANCH   3  22
TORSDOF 4
ENDMDL
