MODEL 1
REMARK VINA RESULT:     -12.7      0.000      0.000
REMARK  Name = 124173720
REMARK  4 active torsions:
REMARK  status: ('A' for Active; 'I' for Inactive)
REMARK    1  A    between atoms: C_13  and  N_24
REMARK    2  A    between atoms: C_18  and  C_23
REMARK    3  A    between atoms: N_24  and  C_26
REMARK    4  A    between atoms: C_26  and  C_30
REMARK                            x       y       z     vdW  Elec       q    Type
REMARK                         _______ _______ _______ _____ _____    ______ ____
ROOT
ATOM      1  O   UNL     1      32.366 -22.686 -18.381  0.00  0.00    -0.473 OA
ATOM      2  N   UNL     1      34.197 -23.763 -16.217  0.00  0.00    -0.272 N 
ATOM      3  N   UNL     1      36.325 -23.305 -16.574  0.00  0.00    -0.374 NA
ATOM      4  C   UNL     1      36.213 -24.121 -15.483  0.00  0.00    +0.190 C 
ATOM      5  C   UNL     1      35.094 -23.091 -17.024  0.00  0.00    +0.188 C 
ATOM      6  C   UNL     1      32.754 -23.815 -16.309  0.00  0.00    +0.141 C 
ATOM      7  C   UNL     1      34.901 -24.424 -15.242  0.00  0.00    +0.169 C 
ATOM      8  C   UNL     1      34.793 -22.258 -18.206  0.00  0.00    +0.078 C 
ATOM      9  C   UNL     1      32.157 -22.596 -16.975  0.00  0.00    +0.227 C 
ATOM     10  C   UNL     1      33.532 -22.109 -18.807  0.00  0.00    +0.144 C 
ATOM     11  C   UNL     1      35.876 -21.581 -18.809  0.00  0.00    +0.008 C 
ATOM     12  C   UNL     1      33.382 -21.358 -19.986  0.00  0.00    +0.051 C 
ATOM     13  C   UNL     1      34.469 -20.707 -20.559  0.00  0.00    +0.048 C 
ATOM     14  C   UNL     1      35.719 -20.814 -19.966  0.00  0.00    +0.015 C 
ATOM     15  O   UNL     1      39.444 -24.983 -14.199  0.00  0.00    -0.432 OA
ATOM     16  O   UNL     1      39.059 -23.428 -15.834  0.00  0.00    -0.226 OA
ATOM     17  N   UNL     1      37.295 -24.558 -14.759  0.00  0.00    -0.194 N 
ATOM     18  C   UNL     1      37.238 -25.422 -13.601  0.00  0.00    +0.195 C 
ATOM     19  C   UNL     1      38.642 -25.993 -13.577  0.00  0.00    +0.236 C 
ATOM     20  C   UNL     1      38.630 -24.237 -15.022  0.00  0.00    +0.411 C 
ENDROOT
BRANCH  18  23
ATOM     21  F   UNL     1      35.953 -25.290 -11.650  0.00  0.00    -0.196 F 
ATOM     22  F   UNL     1      38.021 -24.621 -11.545  0.00  0.00    -0.196 F 
ATOM     23  C   UNL     1      36.921 -24.641 -12.327  0.00  0.00    +0.340 C 
ENDBRANCH  18  23
BRANCH  13  24
ATOM     24  N   UNL     1      34.302 -19.946 -21.733  0.00  0.00    -0.327 N 
ATOM     25  H   UNL     1      33.390 -19.801 -22.073  0.00  0.00    +0.147 HD
BRANCH  24  26
ATOM     26  C   UNL     1      35.399 -19.374 -22.453  0.00  0.00    +0.146 C 
ATOM     27  C   UNL     1      35.166 -19.536 -23.947  0.00  0.00    +0.031 C 
BRANCH  26  30
ATOM     28  O   UNL     1      35.444 -17.486 -20.931  0.00  0.00    -0.274 OA
ATOM     29  N   UNL     1      35.752 -17.094 -23.172  0.00  0.00    -0.327 N 
ATOM     30  C   UNL     1      35.528 -17.907 -22.082  0.00  0.00    +0.237 C 
ATOM     31  H   UNL     1      35.851 -16.123 -23.050  0.00  0.00    +0.145 HD
ATOM     32  H   UNL     1      35.813 -17.485 -24.074  0.00  0.00    +0.145 HD
ENDBRANCH  26  30
ENDBRANCH  24  26
ENDBRANCH  13  24
TORSDOF 4
ENDMDL
MODEL 2
REMARK VINA RESULT:     -12.4      3.796      6.027
REMARK  Name = 124173720
REMARK  4 active torsions:
REMARK  status: ('A' for Active; 'I' for Inactive)
REMARK    1  A    between atoms: C_13  and  N_24
REMARK    2  A    between atoms: C_18  and  C_23
REMARK    3  A    between atoms: N_24  and  C_26
REMARK    4  A    between atoms: C_26  and  C_30
REMARK                            x       y       z     vdW  Elec       q    Type
REMARK                         _______ _______ _______ _____ _____    ______ ____
ROOT
ATOM      1  O   UNL     1      32.521 -22.380 -17.847  0.00  0.00    -0.473 OA
ATOM      2  N   UNL     1      34.912 -23.305 -16.228  0.00  0.00    -0.272 N 
ATOM      3  N   UNL     1      34.388 -23.899 -14.170  0.00  0.00    -0.374 NA
ATOM      4  C   UNL     1      35.746 -23.931 -14.320  0.00  0.00    +0.190 C 
ATOM      5  C   UNL     1      33.880 -23.512 -15.334  0.00  0.00    +0.188 C 
ATOM      6  C   UNL     1      34.845 -22.890 -17.613  0.00  0.00    +0.141 C 
ATOM      7  C   UNL     1      36.099 -23.562 -15.590  0.00  0.00    +0.169 C 
ATOM      8  C   UNL     1      32.432 -23.346 -15.575  0.00  0.00    +0.078 C 
ATOM      9  C   UNL     1      33.544 -23.269 -18.284  0.00  0.00    +0.227 C 
ATOM     10  C   UNL     1      31.849 -22.810 -16.735  0.00  0.00    +0.144 C 
ATOM     11  C   UNL     1      31.558 -23.724 -14.532  0.00  0.00    +0.008 C 
ATOM     12  C   UNL     1      30.458 -22.617 -16.817  0.00  0.00    +0.051 C 
ATOM     13  C   UNL     1      29.624 -22.995 -15.770  0.00  0.00    +0.048 C 
ATOM     14  C   UNL     1      30.175 -23.555 -14.627  0.00  0.00    +0.015 C 
ATOM     15  O   UNL     1      37.350 -24.783 -11.232  0.00  0.00    -0.432 OA
ATOM     16  O   UNL     1      35.093 -24.865 -11.600  0.00  0.00    -0.226 OA
ATOM     17  N   UNL     1      36.605 -24.285 -13.308  0.00  0.00    -0.194 N 
ATOM     18  C   UNL     1      38.047 -24.334 -13.408  0.00  0.00    +0.195 C 
ATOM     19  C   UNL     1      38.456 -24.227 -11.952  0.00  0.00    +0.236 C 
ATOM     20  C   UNL     1      36.225 -24.660 -12.016  0.00  0.00    +0.411 C 
ENDROOT
BRANCH  18  23
ATOM     21  F   UNL     1      38.807 -25.418 -15.338  0.00  0.00    -0.196 F 
ATOM     22  F   UNL     1      39.672 -26.019 -13.433  0.00  0.00    -0.196 F 
ATOM     23  C   UNL     1      38.527 -25.641 -14.038  0.00  0.00    +0.340 C 
ENDBRANCH  18  23
BRANCH  13  24
ATOM     24  N   UNL     1      28.231 -22.809 -15.871  0.00  0.00    -0.327 N 
ATOM     25  H   UNL     1      27.679 -22.950 -15.068  0.00  0.00    +0.147 HD
BRANCH  24  26
ATOM     26  C   UNL     1      27.583 -22.426 -17.087  0.00  0.00    +0.146 C 
ATOM     27  C   UNL     1      27.451 -23.639 -17.997  0.00  0.00    +0.031 C 
BRANCH  26  30
ATOM     28  O   UNL     1      25.569 -22.145 -15.763  0.00  0.00    -0.274 OA
ATOM     29  N   UNL     1      25.781 -20.938 -17.705  0.00  0.00    -0.327 N 
ATOM     30  C   UNL     1      26.217 -21.844 -16.763  0.00  0.00    +0.237 C 
ATOM     31  H   UNL     1      24.907 -20.498 -17.598  0.00  0.00    +0.145 HD
ATOM     32  H   UNL     1      26.343 -20.732 -18.488  0.00  0.00    +0.145 HD
ENDBRANCH  26  30
ENDBRANCH  24  26
ENDBRANCH  13  24
TORSDOF 4
ENDMDL
MODEL 3
REMARK VINA RESULT:     -12.3      1.150      1.335
REMARK  Name = 124173720
REMARK  4 active torsions:
REMARK  status: ('A' for Active; 'I' for Inactive)
REMARK    1  A    between atoms: C_13  and  N_24
REMARK    2  A    between atoms: C_18  and  C_23
REMARK    3  A    between atoms: N_24  and  C_26
REMARK    4  A    between atoms: C_26  and  C_30
REMARK                            x       y       z     vdW  Elec       q    Type
REMARK                         _______ _______ _______ _____ _____    ______ ____
ROOT
ATOM      1  O   UNL     1      32.694 -22.454 -18.971  0.00  0.00    -0.473 OA
ATOM      2  N   UNL     1      33.950 -23.600 -16.460  0.00  0.00    -0.272 N 
ATOM      3  N   UNL     1      36.138 -23.334 -16.385  0.00  0.00    -0.374 NA
ATOM      4  C   UNL     1      35.736 -24.098 -15.325  0.00  0.00    +0.190 C 
ATOM      5  C   UNL     1      35.046 -23.035 -17.081  0.00  0.00    +0.188 C 
ATOM      6  C   UNL     1      32.555 -23.536 -16.843  0.00  0.00    +0.141 C 
ATOM      7  C   UNL     1      34.381 -24.281 -15.350  0.00  0.00    +0.169 C 
ATOM      8  C   UNL     1      35.065 -22.222 -18.314  0.00  0.00    +0.078 C 
ATOM      9  C   UNL     1      32.215 -22.296 -17.639  0.00  0.00    +0.227 C 
ATOM     10  C   UNL     1      33.968 -21.991 -19.161  0.00  0.00    +0.144 C 
ATOM     11  C   UNL     1      36.302 -21.660 -18.697  0.00  0.00    +0.008 C 
ATOM     12  C   UNL     1      34.126 -21.273 -20.360  0.00  0.00    +0.051 C 
ATOM     13  C   UNL     1      35.359 -20.736 -20.712  0.00  0.00    +0.048 C 
ATOM     14  C   UNL     1      36.449 -20.925 -19.876  0.00  0.00    +0.015 C 
ATOM     15  O   UNL     1      38.554 -25.178 -13.395  0.00  0.00    -0.432 OA
ATOM     16  O   UNL     1      38.644 -23.656 -15.102  0.00  0.00    -0.226 OA
ATOM     17  N   UNL     1      36.608 -24.597 -14.388  0.00  0.00    -0.194 N 
ATOM     18  C   UNL     1      36.242 -25.410 -13.250  0.00  0.00    +0.195 C 
ATOM     19  C   UNL     1      37.556 -26.094 -12.930  0.00  0.00    +0.236 C 
ATOM     20  C   UNL     1      37.991 -24.397 -14.380  0.00  0.00    +0.411 C 
ENDROOT
BRANCH  18  23
ATOM     21  F   UNL     1      36.219 -25.084 -10.932  0.00  0.00    -0.196 F 
ATOM     22  F   UNL     1      36.257 -23.317 -12.202  0.00  0.00    -0.196 F 
ATOM     23  C   UNL     1      35.746 -24.560 -12.081  0.00  0.00    +0.340 C 
ENDBRANCH  18  23
BRANCH  13  24
ATOM     24  N   UNL     1      35.500 -20.006 -21.909  0.00  0.00    -0.327 N 
ATOM     25  H   UNL     1      36.118 -20.344 -22.596  0.00  0.00    +0.147 HD
BRANCH  24  26
ATOM     26  C   UNL     1      34.784 -18.795 -22.171  0.00  0.00    +0.146 C 
ATOM     27  C   UNL     1      35.320 -17.685 -21.279  0.00  0.00    +0.031 C 
BRANCH  26  30
ATOM     28  O   UNL     1      34.443 -19.080 -24.556  0.00  0.00    -0.274 OA
ATOM     29  N   UNL     1      35.693 -17.295 -23.833  0.00  0.00    -0.327 N 
ATOM     30  C   UNL     1      34.939 -18.432 -23.638  0.00  0.00    +0.237 C 
ATOM     31  H   UNL     1      35.860 -16.965 -24.746  0.00  0.00    +0.145 HD
ATOM     32  H   UNL     1      36.066 -16.812 -23.060  0.00  0.00    +0.145 HD
ENDBRANCH  26  30
ENDBRANCH  24  26
ENDBRANCH  13  24
TORSDOF 4
ENDMDL
MODEL 4
REMARK VINA RESULT:     -12.1      4.066      8.857
REMARK  Name = 124173720
REMARK  4 active torsions:
REMARK  status: ('A' for Active; 'I' for Inactive)
REMARK    1  A    between atoms: C_13  and  N_24
REMARK    2  A    between atoms: C_18  and  C_23
REMARK    3  A    between atoms: N_24  and  C_26
REMARK    4  A    between atoms: C_26  and  C_30
REMARK                            x       y       z     vdW  Elec       q    Type
REMARK                         _______ _______ _______ _____ _____    ______ ____
ROOT
ATOM      1  O   UNL     1      33.926 -23.260 -16.760  0.00  0.00    -0.473 OA
ATOM      2  N   UNL     1      34.092 -21.566 -19.270  0.00  0.00    -0.272 N 
ATOM      3  N   UNL     1      36.083 -20.671 -19.583  0.00  0.00    -0.374 NA
ATOM      4  C   UNL     1      35.218 -20.194 -20.526  0.00  0.00    +0.190 C 
ATOM      5  C   UNL     1      35.394 -21.506 -18.813  0.00  0.00    +0.188 C 
ATOM      6  C   UNL     1      32.985 -22.347 -18.760  0.00  0.00    +0.141 C 
ATOM      7  C   UNL     1      33.972 -20.732 -20.352  0.00  0.00    +0.169 C 
ATOM      8  C   UNL     1      35.980 -22.226 -17.664  0.00  0.00    +0.078 C 
ATOM      9  C   UNL     1      33.424 -23.606 -18.048  0.00  0.00    +0.227 C 
ATOM     10  C   UNL     1      35.271 -23.009 -16.738  0.00  0.00    +0.144 C 
ATOM     11  C   UNL     1      37.369 -22.084 -17.456  0.00  0.00    +0.008 C 
ATOM     12  C   UNL     1      35.924 -23.576 -15.628  0.00  0.00    +0.051 C 
ATOM     13  C   UNL     1      37.293 -23.414 -15.448  0.00  0.00    +0.048 C 
ATOM     14  C   UNL     1      38.019 -22.670 -16.367  0.00  0.00    +0.015 C 
ATOM     15  O   UNL     1      36.825 -17.771 -22.619  0.00  0.00    -0.432 OA
ATOM     16  O   UNL     1      37.892 -19.076 -21.071  0.00  0.00    -0.226 OA
ATOM     17  N   UNL     1      35.587 -19.294 -21.496  0.00  0.00    -0.194 N 
ATOM     18  C   UNL     1      34.717 -18.753 -22.516  0.00  0.00    +0.195 C 
ATOM     19  C   UNL     1      35.451 -17.484 -22.901  0.00  0.00    +0.236 C 
ATOM     20  C   UNL     1      36.867 -18.756 -21.657  0.00  0.00    +0.411 C 
ENDROOT
BRANCH  18  23
ATOM     21  F   UNL     1      33.823 -19.108 -24.649  0.00  0.00    -0.196 F 
ATOM     22  F   UNL     1      35.794 -19.930 -24.229  0.00  0.00    -0.196 F 
ATOM     23  C   UNL     1      34.572 -19.706 -23.701  0.00  0.00    +0.340 C 
ENDBRANCH  18  23
BRANCH  13  24
ATOM     24  N   UNL     1      37.937 -23.999 -14.340  0.00  0.00    -0.327 N 
ATOM     25  H   UNL     1      38.063 -23.457 -13.529  0.00  0.00    +0.147 HD
BRANCH  24  26
ATOM     26  C   UNL     1      38.416 -25.348 -14.342  0.00  0.00    +0.146 C 
ATOM     27  C   UNL     1      39.906 -25.358 -14.031  0.00  0.00    +0.031 C 
BRANCH  26  30
ATOM     28  O   UNL     1      37.753 -25.986 -12.097  0.00  0.00    -0.274 OA
ATOM     29  N   UNL     1      36.804 -27.087 -13.875  0.00  0.00    -0.327 N 
ATOM     30  C   UNL     1      37.644 -26.152 -13.310  0.00  0.00    +0.237 C 
ATOM     31  H   UNL     1      36.254 -27.667 -13.301  0.00  0.00    +0.145 HD
ATOM     32  H   UNL     1      36.754 -27.176 -14.855  0.00  0.00    +0.145 HD
ENDBRANCH  26  30
ENDBRANCH  24  26
ENDBRANCH  13  24
TORSDOF 4
ENDMDL
MODEL 5
REMARK VINA RESULT:     -10.7      7.573     11.263
REMARK  Name = 124173720
REMARK  4 active torsions:
REMARK  status: ('A' for Active; 'I' for Inactive)
REMARK    1  A    between atoms: C_13  and  N_24
REMARK    2  A    between atoms: C_18  and  C_23
REMARK    3  A    between atoms: N_24  and  C_26
REMARK    4  A    between atoms: C_26  and  C_30
REMARK                            x       y       z     vdW  Elec       q    Type
REMARK                         _______ _______ _______ _____ _____    ______ ____
ROOT
ATOM      1  O   UNL     1      33.298 -12.302 -25.461  0.00  0.00    -0.473 OA
ATOM      2  N   UNL     1      34.407 -15.032 -24.746  0.00  0.00    -0.272 N 
ATOM      3  N   UNL     1      34.456 -15.406 -22.573  0.00  0.00    -0.374 NA
ATOM      4  C   UNL     1      35.065 -16.440 -23.226  0.00  0.00    +0.190 C 
ATOM      5  C   UNL     1      34.059 -14.543 -23.502  0.00  0.00    +0.188 C 
ATOM      6  C   UNL     1      34.171 -14.448 -26.049  0.00  0.00    +0.141 C 
ATOM      7  C   UNL     1      35.051 -16.231 -24.578  0.00  0.00    +0.169 C 
ATOM      8  C   UNL     1      33.361 -13.279 -23.192  0.00  0.00    +0.078 C 
ATOM      9  C   UNL     1      32.964 -13.539 -26.083  0.00  0.00    +0.227 C 
ATOM     10  C   UNL     1      33.042 -12.270 -24.117  0.00  0.00    +0.144 C 
ATOM     11  C   UNL     1      33.018 -13.046 -21.843  0.00  0.00    +0.008 C 
ATOM     12  C   UNL     1      32.454 -11.065 -23.691  0.00  0.00    +0.051 C 
ATOM     13  C   UNL     1      32.133 -10.864 -22.353  0.00  0.00    +0.048 C 
ATOM     14  C   UNL     1      32.410 -11.858 -21.427  0.00  0.00    +0.015 C 
ATOM     15  O   UNL     1      36.384 -18.819 -20.894  0.00  0.00    -0.432 OA
ATOM     16  O   UNL     1      35.035 -17.054 -20.341  0.00  0.00    -0.226 OA
ATOM     17  N   UNL     1      35.608 -17.522 -22.575  0.00  0.00    -0.194 N 
ATOM     18  C   UNL     1      36.265 -18.642 -23.212  0.00  0.00    +0.195 C 
ATOM     19  C   UNL     1      37.105 -19.188 -22.074  0.00  0.00    +0.236 C 
ATOM     20  C   UNL     1      35.612 -17.718 -21.192  0.00  0.00    +0.411 C 
ENDROOT
BRANCH  18  23
ATOM     21  F   UNL     1      34.123 -19.561 -23.004  0.00  0.00    -0.196 F 
ATOM     22  F   UNL     1      34.960 -19.389 -25.006  0.00  0.00    -0.196 F 
ATOM     23  C   UNL     1      35.259 -19.673 -23.721  0.00  0.00    +0.340 C 
ENDBRANCH  18  23
BRANCH  13  24
ATOM     24  N   UNL     1      31.531  -9.657 -21.942  0.00  0.00    -0.327 N 
ATOM     25  H   UNL     1      30.557  -9.642 -21.803  0.00  0.00    +0.147 HD
BRANCH  24  26
ATOM     26  C   UNL     1      32.272  -8.455 -21.718  0.00  0.00    +0.146 C 
ATOM     27  C   UNL     1      31.488  -7.267 -22.256  0.00  0.00    +0.031 C 
BRANCH  26  30
ATOM     28  O   UNL     1      31.966  -8.966 -19.366  0.00  0.00    -0.274 OA
ATOM     29  N   UNL     1      33.476  -7.336 -19.945  0.00  0.00    -0.327 N 
ATOM     30  C   UNL     1      32.533  -8.300 -20.229  0.00  0.00    +0.237 C 
ATOM     31  H   UNL     1      33.724  -7.149 -19.011  0.00  0.00    +0.145 HD
ATOM     32  H   UNL     1      33.901  -6.832 -20.677  0.00  0.00    +0.145 HD
ENDBRANCH  26  30
ENDBRANCH  24  26
ENDBRANCH  13  24
TORSDOF 4
ENDMDL
MODEL 6
REMARK VINA RESULT:     -10.4     11.005     14.405
REMARK  Name = 124173720
REMARK  4 active torsions:
REMARK  status: ('A' for Active; 'I' for Inactive)
REMARK    1  A    between atoms: C_13  and  N_24
REMARK    2  A    between atoms: C_18  and  C_23
REMARK    3  A    between atoms: N_24  and  C_26
REMARK    4  A    between atoms: C_26  and  C_30
REMARK                            x       y       z     vdW  Elec       q    Type
REMARK                         _______ _______ _______ _____ _____    ______ ____
ROOT
ATOM      1  O   UNL     1      31.604 -10.064 -20.364  0.00  0.00    -0.473 OA
ATOM      2  N   UNL     1      32.433 -12.511 -21.950  0.00  0.00    -0.272 N 
ATOM      3  N   UNL     1      33.086 -12.035 -24.002  0.00  0.00    -0.374 NA
ATOM      4  C   UNL     1      33.047 -13.391 -23.842  0.00  0.00    +0.190 C 
ATOM      5  C   UNL     1      32.706 -11.498 -22.848  0.00  0.00    +0.188 C 
ATOM      6  C   UNL     1      32.001 -12.412 -20.572  0.00  0.00    +0.141 C 
ATOM      7  C   UNL     1      32.641 -13.714 -22.575  0.00  0.00    +0.169 C 
ATOM      8  C   UNL     1      32.609 -10.041 -22.621  0.00  0.00    +0.078 C 
ATOM      9  C   UNL     1      32.434 -11.126 -19.905  0.00  0.00    +0.227 C 
ATOM     10  C   UNL     1      32.085  -9.423 -21.474  0.00  0.00    +0.144 C 
ATOM     11  C   UNL     1      33.046  -9.196 -23.664  0.00  0.00    +0.008 C 
ATOM     12  C   UNL     1      31.960  -8.024 -21.406  0.00  0.00    +0.051 C 
ATOM     13  C   UNL     1      32.395  -7.218 -22.452  0.00  0.00    +0.048 C 
ATOM     14  C   UNL     1      32.945  -7.805 -23.582  0.00  0.00    +0.015 C 
ATOM     15  O   UNL     1      33.866 -15.061 -26.903  0.00  0.00    -0.432 OA
ATOM     16  O   UNL     1      34.055 -12.807 -26.551  0.00  0.00    -0.226 OA
ATOM     17  N   UNL     1      33.374 -14.275 -24.841  0.00  0.00    -0.194 N 
ATOM     18  C   UNL     1      33.350 -15.716 -24.730  0.00  0.00    +0.195 C 
ATOM     19  C   UNL     1      33.245 -16.132 -26.184  0.00  0.00    +0.236 C 
ATOM     20  C   UNL     1      33.787 -13.924 -26.129  0.00  0.00    +0.411 C 
ENDROOT
BRANCH  18  23
ATOM     21  F   UNL     1      35.292 -16.997 -24.979  0.00  0.00    -0.196 F 
ATOM     22  F   UNL     1      35.409 -15.214 -23.737  0.00  0.00    -0.196 F 
ATOM     23  C   UNL     1      34.621 -16.255 -24.076  0.00  0.00    +0.340 C 
ENDBRANCH  18  23
BRANCH  13  24
ATOM     24  N   UNL     1      32.278  -5.816 -22.365  0.00  0.00    -0.327 N 
ATOM     25  H   UNL     1      33.066  -5.296 -22.089  0.00  0.00    +0.147 HD
BRANCH  24  26
ATOM     26  C   UNL     1      31.065  -5.117 -22.659  0.00  0.00    +0.146 C 
ATOM     27  C   UNL     1      30.252  -4.952 -21.383  0.00  0.00    +0.031 C 
BRANCH  26  30
ATOM     28  O   UNL     1      32.182  -3.615 -24.201  0.00  0.00    -0.274 OA
ATOM     29  N   UNL     1      30.740  -2.723 -22.654  0.00  0.00    -0.327 N 
ATOM     30  C   UNL     1      31.402  -3.766 -23.264  0.00  0.00    +0.237 C 
ATOM     31  H   UNL     1      30.882  -1.799 -22.964  0.00  0.00    +0.145 HD
ATOM     32  H   UNL     1      30.123  -2.900 -21.907  0.00  0.00    +0.145 HD
ENDBRANCH  26  30
ENDBRANCH  24  26
ENDBRANCH  13  24
TORSDOF 4
ENDMDL
MODEL 7
REMARK VINA RESULT:     -10.3     10.739     14.293
REMARK  Name = 124173720
REMARK  4 active torsions:
REMARK  status: ('A' for Active; 'I' for Inactive)
REMARK    1  A    between atoms: C_13  and  N_24
REMARK    2  A    between atoms: C_18  and  C_23
REMARK    3  A    between atoms: N_24  and  C_26
REMARK    4  A    between atoms: C_26  and  C_30
REMARK                            x       y       z     vdW  Elec       q    Type
REMARK                         _______ _______ _______ _____ _____    ______ ____
ROOT
ATOM      1  O   UNL     1      31.383  -9.910 -20.396  0.00  0.00    -0.473 OA
ATOM      2  N   UNL     1      32.487 -12.370 -21.785  0.00  0.00    -0.272 N 
ATOM      3  N   UNL     1      32.889 -12.048 -23.929  0.00  0.00    -0.374 NA
ATOM      4  C   UNL     1      33.091 -13.364 -23.622  0.00  0.00    +0.190 C 
ATOM      5  C   UNL     1      32.515 -11.442 -22.808  0.00  0.00    +0.188 C 
ATOM      6  C   UNL     1      32.151 -12.174 -20.390  0.00  0.00    +0.141 C 
ATOM      7  C   UNL     1      32.845 -13.591 -22.295  0.00  0.00    +0.169 C 
ATOM      8  C   UNL     1      32.192 -10.003 -22.729  0.00  0.00    +0.078 C 
ATOM      9  C   UNL     1      32.412 -10.765 -19.909  0.00  0.00    +0.227 C 
ATOM     10  C   UNL     1      31.662  -9.341 -21.609  0.00  0.00    +0.144 C 
ATOM     11  C   UNL     1      32.399  -9.232 -23.893  0.00  0.00    +0.008 C 
ATOM     12  C   UNL     1      31.310  -7.981 -21.679  0.00  0.00    +0.051 C 
ATOM     13  C   UNL     1      31.521  -7.249 -22.842  0.00  0.00    +0.048 C 
ATOM     14  C   UNL     1      32.073  -7.874 -23.951  0.00  0.00    +0.015 C 
ATOM     15  O   UNL     1      33.941 -15.241 -26.552  0.00  0.00    -0.432 OA
ATOM     16  O   UNL     1      33.775 -12.960 -26.462  0.00  0.00    -0.226 OA
ATOM     17  N   UNL     1      33.484 -14.299 -24.548  0.00  0.00    -0.194 N 
ATOM     18  C   UNL     1      33.711 -15.702 -24.282  0.00  0.00    +0.195 C 
ATOM     19  C   UNL     1      33.566 -16.302 -25.666  0.00  0.00    +0.236 C 
ATOM     20  C   UNL     1      33.732 -14.046 -25.900  0.00  0.00    +0.411 C 
ENDROOT
BRANCH  18  23
ATOM     21  F   UNL     1      34.996 -16.055 -22.358  0.00  0.00    -0.196 F 
ATOM     22  F   UNL     1      35.562 -17.130 -24.164  0.00  0.00    -0.196 F 
ATOM     23  C   UNL     1      35.101 -15.950 -23.699  0.00  0.00    +0.340 C 
ENDBRANCH  18  23
BRANCH  13  24
ATOM     24  N   UNL     1      31.177  -5.883 -22.895  0.00  0.00    -0.327 N 
ATOM     25  H   UNL     1      30.255  -5.623 -22.672  0.00  0.00    +0.147 HD
BRANCH  24  26
ATOM     26  C   UNL     1      32.109  -4.860 -23.257  0.00  0.00    +0.146 C 
ATOM     27  C   UNL     1      32.472  -5.000 -24.728  0.00  0.00    +0.031 C 
BRANCH  26  30
ATOM     28  O   UNL     1      31.884  -2.455 -23.491  0.00  0.00    -0.274 OA
ATOM     29  N   UNL     1      30.430  -3.561 -22.100  0.00  0.00    -0.327 N 
ATOM     30  C   UNL     1      31.488  -3.501 -22.981  0.00  0.00    +0.237 C 
ATOM     31  H   UNL     1      29.952  -2.739 -21.848  0.00  0.00    +0.145 HD
ATOM     32  H   UNL     1      30.153  -4.427 -21.722  0.00  0.00    +0.145 HD
ENDBRANCH  26  30
ENDBRANCH  24  26
ENDBRANCH  13  24
TORSDOF 4
ENDMDL
MODEL 8
REMARK VINA RESULT:     -10.1      6.975     12.269
REMARK  Name = 124173720
REMARK  4 active torsions:
REMARK  status: ('A' for Active; 'I' for Inactive)
REMARK    1  A    between atoms: C_13  and  N_24
REMARK    2  A    between atoms: C_18  and  C_23
REMARK    3  A    between atoms: N_24  and  C_26
REMARK    4  A    between atoms: C_26  and  C_30
REMARK                            x       y       z     vdW  Elec       q    Type
REMARK                         _______ _______ _______ _____ _____    ______ ____
ROOT
ATOM      1  O   UNL     1      34.537 -17.117 -25.007  0.00  0.00    -0.473 OA
ATOM      2  N   UNL     1      33.665 -14.265 -24.461  0.00  0.00    -0.272 N 
ATOM      3  N   UNL     1      33.331 -13.855 -22.320  0.00  0.00    -0.374 NA
ATOM      4  C   UNL     1      32.956 -12.766 -23.054  0.00  0.00    +0.190 C 
ATOM      5  C   UNL     1      33.759 -14.773 -23.180  0.00  0.00    +0.188 C 
ATOM      6  C   UNL     1      34.024 -14.892 -25.715  0.00  0.00    +0.141 C 
ATOM      7  C   UNL     1      33.150 -12.996 -24.389  0.00  0.00    +0.169 C 
ATOM      8  C   UNL     1      34.247 -16.106 -22.772  0.00  0.00    +0.078 C 
ATOM      9  C   UNL     1      35.106 -15.938 -25.567  0.00  0.00    +0.227 C 
ATOM     10  C   UNL     1      34.580 -17.159 -23.640  0.00  0.00    +0.144 C 
ATOM     11  C   UNL     1      34.350 -16.358 -21.386  0.00  0.00    +0.008 C 
ATOM     12  C   UNL     1      34.949 -18.418 -23.133  0.00  0.00    +0.051 C 
ATOM     13  C   UNL     1      35.037 -18.636 -21.763  0.00  0.00    +0.048 C 
ATOM     14  C   UNL     1      34.743 -17.602 -20.886  0.00  0.00    +0.015 C 
ATOM     15  O   UNL     1      31.590 -10.214 -20.944  0.00  0.00    -0.432 OA
ATOM     16  O   UNL     1      32.620 -12.117 -20.197  0.00  0.00    -0.226 OA
ATOM     17  N   UNL     1      32.453 -11.618 -22.491  0.00  0.00    -0.194 N 
ATOM     18  C   UNL     1      32.038 -10.438 -23.217  0.00  0.00    +0.195 C 
ATOM     19  C   UNL     1      31.106  -9.780 -22.219  0.00  0.00    +0.236 C 
ATOM     20  C   UNL     1      32.262 -11.403 -21.124  0.00  0.00    +0.411 C 
ENDROOT
BRANCH  18  23
ATOM     21  F   UNL     1      33.355  -8.604 -22.602  0.00  0.00    -0.196 F 
ATOM     22  F   UNL     1      34.349 -10.287 -23.559  0.00  0.00    -0.196 F 
ATOM     23  C   UNL     1      33.225  -9.541 -23.563  0.00  0.00    +0.340 C 
ENDBRANCH  18  23
BRANCH  13  24
ATOM     24  N   UNL     1      35.422 -19.899 -21.268  0.00  0.00    -0.327 N 
ATOM     25  H   UNL     1      36.177 -20.361 -21.698  0.00  0.00    +0.147 HD
BRANCH  24  26
ATOM     26  C   UNL     1      34.764 -20.538 -20.170  0.00  0.00    +0.146 C 
ATOM     27  C   UNL     1      33.316 -20.822 -20.542  0.00  0.00    +0.031 C 
BRANCH  26  30
ATOM     28  O   UNL     1      34.952 -22.925 -19.778  0.00  0.00    -0.274 OA
ATOM     29  N   UNL     1      36.840 -21.631 -19.590  0.00  0.00    -0.327 N 
ATOM     30  C   UNL     1      35.497 -21.824 -19.830  0.00  0.00    +0.237 C 
ATOM     31  H   UNL     1      37.414 -22.396 -19.359  0.00  0.00    +0.145 HD
ATOM     32  H   UNL     1      37.226 -20.727 -19.648  0.00  0.00    +0.145 HD
ENDBRANCH  26  30
ENDBRANCH  24  26
ENDBRANCH  13  24
TORSDOF 4
ENDMDL
