MODEL 1
REMARK VINA RESULT:     -13.1      0.000      0.000
REMARK  Name = 68488178
REMARK  9 active torsions:
REMARK  status: ('A' for Active; 'I' for Inactive)
REMARK    1  A    between atoms: N_1  and  C_10
REMARK    2  A    between atoms: N_2  and  C_29
REMARK    3  A    between atoms: C_10  and  C_11
REMARK    4  A    between atoms: C_16  and  O_17
REMARK    5  A    between atoms: O_17  and  C_18
REMARK    6  A    between atoms: C_23  and  C_26
REMARK    7  A    between atoms: C_29  and  C_30
REMARK    8  A    between atoms: C_35  and  C_37
REMARK    9  A    between atoms: C_37  and  O_38
REMARK                            x       y       z     vdW  Elec       q    Type
REMARK                         _______ _______ _______ _____ _____    ______ ____
ROOT
ATOM      1  N   UNL     1      33.702 -15.742 -24.102  0.00  0.00    +0.388 N 
ATOM      2  N   UNL     1      34.875 -17.807 -22.614  0.00  0.00    +0.388 N 
ATOM      3  C   UNL     1      34.637 -16.725 -24.701  0.00  0.00    -0.081 C 
ATOM      4  C   UNL     1      35.463 -16.447 -22.695  0.00  0.00    -0.081 C 
ATOM      5  C   UNL     1      35.989 -16.355 -24.116  0.00  0.00    -0.046 C 
ATOM      6  C   UNL     1      34.278 -15.466 -22.762  0.00  0.00    -0.098 C 
ATOM      7  C   UNL     1      34.372 -18.063 -23.988  0.00  0.00    -0.098 C 
ATOM      8  H   UNL     1      32.750 -16.104 -24.051  0.00  0.00    -0.079 HD
ATOM      9  H   UNL     1      34.136 -17.862 -21.912  0.00  0.00    -0.079 HD
ENDROOT
BRANCH   1  10
ATOM     10  C   UNL     1      33.572 -14.531 -24.904  0.00  0.00    -0.050 C 
BRANCH  10  11
ATOM     11  C   UNL     1      33.249 -13.329 -24.056  0.00  0.00    -0.043 C 
ATOM     12  C   UNL     1      32.338 -13.443 -23.005  0.00  0.00    -0.003 C 
ATOM     13  C   UNL     1      33.858 -12.103 -24.322  0.00  0.00    -0.003 C 
ATOM     14  C   UNL     1      32.038 -12.330 -22.220  0.00  0.00    +0.037 C 
ATOM     15  C   UNL     1      33.558 -10.990 -23.537  0.00  0.00    +0.037 C 
ATOM     16  C   UNL     1      32.647 -11.103 -22.486  0.00  0.00    +0.145 C 
BRANCH  16  17
ATOM     17  O   UNL     1      32.354 -10.017 -21.720  0.00  0.00    -0.453 OA
BRANCH  17  18
ATOM     18  C   UNL     1      32.220  -8.796 -22.360  0.00  0.00    +0.145 C 
ATOM     19  C   UNL     1      31.230  -8.620 -23.327  0.00  0.00    +0.038 C 
ATOM     20  C   UNL     1      33.076  -7.742 -22.037  0.00  0.00    +0.038 C 
ATOM     21  C   UNL     1      31.098  -7.391 -23.973  0.00  0.00    +0.008 C 
ATOM     22  C   UNL     1      32.943  -6.514 -22.684  0.00  0.00    +0.008 C 
ATOM     23  C   UNL     1      31.953  -6.337 -23.652  0.00  0.00    +0.054 C 
BRANCH  23  26
ATOM     24  O   UNL     1      32.829  -4.749 -25.173  0.00  0.00    -0.431 OA
ATOM     25  N   UNL     1      30.858  -4.173 -24.225  0.00  0.00    -0.206 NA
ATOM     26  C   UNL     1      31.817  -5.067 -24.320  0.00  0.00    +0.230 C 
ATOM     27  C   UNL     1      32.465  -3.531 -25.661  0.00  0.00    +0.202 C 
ATOM     28  C   UNL     1      31.268  -3.186 -25.083  0.00  0.00    +0.143 C 
ENDBRANCH  23  26
ENDBRANCH  17  18
ENDBRANCH  16  17
ENDBRANCH  10  11
ENDBRANCH   1  10
BRANCH   2  29
ATOM     29  C   UNL     1      35.840 -18.812 -22.186  0.00  0.00    -0.050 C 
BRANCH  29  30
ATOM     30  C   UNL     1      35.231 -19.804 -21.232  0.00  0.00    -0.043 C 
ATOM     31  C   UNL     1      33.845 -19.869 -21.085  0.00  0.00    -0.006 C 
ATOM     32  C   UNL     1      36.052 -20.658 -20.495  0.00  0.00    -0.006 C 
ATOM     33  C   UNL     1      33.281 -20.787 -20.200  0.00  0.00    +0.006 C 
ATOM     34  C   UNL     1      35.487 -21.576 -19.610  0.00  0.00    +0.006 C 
ATOM     35  C   UNL     1      34.101 -21.642 -19.463  0.00  0.00    +0.075 C 
BRANCH  35  37
ATOM     36  O   UNL     1      34.115 -23.524 -17.987  0.00  0.00    -0.245 OA
ATOM     37  C   UNL     1      33.512 -22.600 -18.542  0.00  0.00    +0.338 C 
BRANCH  37  38
ATOM     38  O   UNL     1      32.185 -22.377 -18.338  0.00  0.00    -0.477 OA
ATOM     39  H   UNL     1      31.549 -22.799 -18.882  0.00  0.00    +0.295 HD
ENDBRANCH  37  38
ENDBRANCH  35  37
ENDBRANCH  29  30
ENDBRANCH   2  29
TORSDOF 9
ENDMDL
MODEL 2
REMARK VINA RESULT:     -13.1      5.415     10.260
REMARK  Name = 68488178
REMARK  9 active torsions:
REMARK  status: ('A' for Active; 'I' for Inactive)
REMARK    1  A    between atoms: N_1  and  C_10
REMARK    2  A    between atoms: N_2  and  C_29
REMARK    3  A    between atoms: C_10  and  C_11
REMARK    4  A    between atoms: C_16  and  O_17
REMARK    5  A    between atoms: O_17  and  C_18
REMARK    6  A    between atoms: C_23  and  C_26
REMARK    7  A    between atoms: C_29  and  C_30
REMARK    8  A    between atoms: C_35  and  C_37
REMARK    9  A    between atoms: C_37  and  O_38
REMARK                            x       y       z     vdW  Elec       q    Type
REMARK                         _______ _______ _______ _____ _____    ______ ____
ROOT
ATOM      1  N   UNL     1      33.032 -23.531 -17.208  0.00  0.00    +0.388 N 
ATOM      2  N   UNL     1      34.090 -24.887 -14.996  0.00  0.00    +0.388 N 
ATOM      3  C   UNL     1      34.222 -23.045 -16.470  0.00  0.00    -0.081 C 
ATOM      4  C   UNL     1      32.991 -23.898 -14.875  0.00  0.00    -0.081 C 
ATOM      5  C   UNL     1      33.664 -22.563 -15.143  0.00  0.00    -0.046 C 
ATOM      6  C   UNL     1      32.133 -24.047 -16.145  0.00  0.00    -0.098 C 
ATOM      7  C   UNL     1      34.992 -24.300 -16.018  0.00  0.00    -0.098 C 
ATOM      8  H   UNL     1      33.275 -24.247 -17.895  0.00  0.00    -0.079 HD
ATOM      9  H   UNL     1      33.746 -25.810 -15.264  0.00  0.00    -0.079 HD
ENDROOT
BRANCH   1  10
ATOM     10  C   UNL     1      32.398 -22.486 -18.002  0.00  0.00    -0.050 C 
BRANCH  10  11
ATOM     11  C   UNL     1      33.370 -21.836 -18.951  0.00  0.00    -0.043 C 
ATOM     12  C   UNL     1      34.713 -22.214 -18.942  0.00  0.00    -0.003 C 
ATOM     13  C   UNL     1      32.927 -20.855 -19.840  0.00  0.00    -0.003 C 
ATOM     14  C   UNL     1      35.613 -21.612 -19.821  0.00  0.00    +0.037 C 
ATOM     15  C   UNL     1      33.828 -20.253 -20.719  0.00  0.00    +0.037 C 
ATOM     16  C   UNL     1      35.171 -20.632 -20.709  0.00  0.00    +0.145 C 
BRANCH  16  17
ATOM     17  O   UNL     1      36.049 -20.044 -21.567  0.00  0.00    -0.453 OA
BRANCH  17  18
ATOM     18  C   UNL     1      35.569 -19.042 -22.394  0.00  0.00    +0.145 C 
ATOM     19  C   UNL     1      35.553 -17.720 -21.950  0.00  0.00    +0.038 C 
ATOM     20  C   UNL     1      35.101 -19.355 -23.670  0.00  0.00    +0.038 C 
ATOM     21  C   UNL     1      35.066 -16.712 -22.782  0.00  0.00    +0.008 C 
ATOM     22  C   UNL     1      34.615 -18.347 -24.501  0.00  0.00    +0.008 C 
ATOM     23  C   UNL     1      34.597 -17.024 -24.058  0.00  0.00    +0.054 C 
BRANCH  23  26
ATOM     24  O   UNL     1      33.733 -14.832 -24.284  0.00  0.00    -0.431 OA
ATOM     25  N   UNL     1      33.934 -15.981 -26.222  0.00  0.00    -0.206 NA
ATOM     26  C   UNL     1      34.094 -15.981 -24.918  0.00  0.00    +0.230 C 
ATOM     27  C   UNL     1      33.302 -14.031 -25.298  0.00  0.00    +0.202 C 
ATOM     28  C   UNL     1      33.427 -14.732 -26.471  0.00  0.00    +0.143 C 
ENDBRANCH  23  26
ENDBRANCH  17  18
ENDBRANCH  16  17
ENDBRANCH  10  11
ENDBRANCH   1  10
BRANCH   2  29
ATOM     29  C   UNL     1      34.775 -25.123 -13.730  0.00  0.00    -0.050 C 
BRANCH  29  30
ATOM     30  C   UNL     1      36.258 -25.299 -13.920  0.00  0.00    -0.043 C 
ATOM     31  C   UNL     1      37.146 -24.388 -13.348  0.00  0.00    -0.006 C 
ATOM     32  C   UNL     1      36.744 -26.372 -14.668  0.00  0.00    -0.006 C 
ATOM     33  C   UNL     1      38.520 -24.551 -13.524  0.00  0.00    +0.006 C 
ATOM     34  C   UNL     1      38.117 -26.534 -14.844  0.00  0.00    +0.006 C 
ATOM     35  C   UNL     1      39.007 -25.625 -14.271  0.00  0.00    +0.075 C 
BRANCH  35  37
ATOM     36  O   UNL     1      41.024 -26.876 -14.561  0.00  0.00    -0.245 OA
ATOM     37  C   UNL     1      40.438 -25.794 -14.454  0.00  0.00    +0.338 C 
BRANCH  37  38
ATOM     38  O   UNL     1      41.101 -24.606 -14.500  0.00  0.00    -0.477 OA
ATOM     39  H   UNL     1      41.928 -24.513 -14.067  0.00  0.00    +0.295 HD
ENDBRANCH  37  38
ENDBRANCH  35  37
ENDBRANCH  29  30
ENDBRANCH   2  29
TORSDOF 9
ENDMDL
MODEL 3
REMARK VINA RESULT:     -12.9      1.661      2.657
REMARK  Name = 68488178
REMARK  9 active torsions:
REMARK  status: ('A' for Active; 'I' for Inactive)
REMARK    1  A    between atoms: N_1  and  C_10
REMARK    2  A    between atoms: N_2  and  C_29
REMARK    3  A    between atoms: C_10  and  C_11
REMARK    4  A    between atoms: C_16  and  O_17
REMARK    5  A    between atoms: O_17  and  C_18
REMARK    6  A    between atoms: C_23  and  C_26
REMARK    7  A    between atoms: C_29  and  C_30
REMARK    8  A    between atoms: C_35  and  C_37
REMARK    9  A    between atoms: C_37  and  O_38
REMARK                            x       y       z     vdW  Elec       q    Type
REMARK                         _______ _______ _______ _____ _____    ______ ____
ROOT
ATOM      1  N   UNL     1      34.698 -17.163 -22.155  0.00  0.00    +0.388 N 
ATOM      2  N   UNL     1      35.439 -19.606 -20.998  0.00  0.00    +0.388 N 
ATOM      3  C   UNL     1      35.072 -18.348 -22.965  0.00  0.00    -0.081 C 
ATOM      4  C   UNL     1      36.409 -18.510 -21.241  0.00  0.00    -0.081 C 
ATOM      5  C   UNL     1      36.569 -18.485 -22.750  0.00  0.00    -0.046 C 
ATOM      6  C   UNL     1      35.642 -17.194 -21.011  0.00  0.00    -0.098 C 
ATOM      7  C   UNL     1      34.559 -19.578 -22.194  0.00  0.00    -0.098 C 
ATOM      8  H   UNL     1      33.722 -17.198 -21.857  0.00  0.00    -0.079 HD
ATOM      9  H   UNL     1      34.920 -19.471 -20.129  0.00  0.00    -0.079 HD
ENDROOT
BRANCH   1  10
ATOM     10  C   UNL     1      34.788 -15.918 -22.908  0.00  0.00    -0.050 C 
BRANCH  10  11
ATOM     11  C   UNL     1      33.880 -14.856 -22.347  0.00  0.00    -0.043 C 
ATOM     12  C   UNL     1      33.393 -14.972 -21.045  0.00  0.00    -0.003 C 
ATOM     13  C   UNL     1      33.526 -13.756 -23.129  0.00  0.00    -0.003 C 
ATOM     14  C   UNL     1      32.552 -13.989 -20.524  0.00  0.00    +0.037 C 
ATOM     15  C   UNL     1      32.685 -12.773 -22.609  0.00  0.00    +0.037 C 
ATOM     16  C   UNL     1      32.197 -12.889 -21.306  0.00  0.00    +0.145 C 
BRANCH  16  17
ATOM     17  O   UNL     1      31.376 -11.930 -20.799  0.00  0.00    -0.453 OA
BRANCH  17  18
ATOM     18  C   UNL     1      31.520 -10.639 -21.280  0.00  0.00    +0.145 C 
ATOM     19  C   UNL     1      31.033 -10.307 -22.544  0.00  0.00    +0.038 C 
ATOM     20  C   UNL     1      32.153  -9.671 -20.500  0.00  0.00    +0.038 C 
ATOM     21  C   UNL     1      31.181  -9.008 -23.029  0.00  0.00    +0.008 C 
ATOM     22  C   UNL     1      32.301  -8.372 -20.985  0.00  0.00    +0.008 C 
ATOM     23  C   UNL     1      31.814  -8.039 -22.251  0.00  0.00    +0.054 C 
BRANCH  23  26
ATOM     24  O   UNL     1      32.574  -6.598 -23.967  0.00  0.00    -0.431 OA
ATOM     25  N   UNL     1      31.607  -5.556 -22.208  0.00  0.00    -0.206 NA
ATOM     26  C   UNL     1      31.968  -6.696 -22.753  0.00  0.00    +0.230 C 
ATOM     27  C   UNL     1      32.595  -5.257 -24.205  0.00  0.00    +0.202 C 
ATOM     28  C   UNL     1      32.007  -4.629 -23.135  0.00  0.00    +0.143 C 
ENDBRANCH  23  26
ENDBRANCH  17  18
ENDBRANCH  16  17
ENDBRANCH  10  11
ENDBRANCH   1  10
BRANCH   2  29
ATOM     29  C   UNL     1      36.086 -20.900 -20.823  0.00  0.00    -0.050 C 
BRANCH  29  30
ATOM     30  C   UNL     1      35.638 -21.584 -19.559  0.00  0.00    -0.043 C 
ATOM     31  C   UNL     1      36.524 -21.721 -18.489  0.00  0.00    -0.006 C 
ATOM     32  C   UNL     1      34.339 -22.083 -19.458  0.00  0.00    -0.006 C 
ATOM     33  C   UNL     1      36.109 -22.355 -17.319  0.00  0.00    +0.006 C 
ATOM     34  C   UNL     1      33.925 -22.717 -18.287  0.00  0.00    +0.006 C 
ATOM     35  C   UNL     1      34.809 -22.853 -17.216  0.00  0.00    +0.075 C 
BRANCH  35  37
ATOM     36  O   UNL     1      33.469 -23.126 -15.254  0.00  0.00    -0.245 OA
ATOM     37  C   UNL     1      34.378 -23.513 -15.996  0.00  0.00    +0.338 C 
BRANCH  37  38
ATOM     38  O   UNL     1      35.092 -24.642 -15.734  0.00  0.00    -0.477 OA
ATOM     39  H   UNL     1      35.475 -25.128 -16.438  0.00  0.00    +0.295 HD
ENDBRANCH  37  38
ENDBRANCH  35  37
ENDBRANCH  29  30
ENDBRANCH   2  29
TORSDOF 9
ENDMDL
MODEL 4
REMARK VINA RESULT:     -12.8      2.746      5.491
REMARK  Name = 68488178
REMARK  9 active torsions:
REMARK  status: ('A' for Active; 'I' for Inactive)
REMARK    1  A    between atoms: N_1  and  C_10
REMARK    2  A    between atoms: N_2  and  C_29
REMARK    3  A    between atoms: C_10  and  C_11
REMARK    4  A    between atoms: C_16  and  O_17
REMARK    5  A    between atoms: O_17  and  C_18
REMARK    6  A    between atoms: C_23  and  C_26
REMARK    7  A    between atoms: C_29  and  C_30
REMARK    8  A    between atoms: C_35  and  C_37
REMARK    9  A    between atoms: C_37  and  O_38
REMARK                            x       y       z     vdW  Elec       q    Type
REMARK                         _______ _______ _______ _____ _____    ______ ____
ROOT
ATOM      1  N   UNL     1      35.801 -19.373 -20.617  0.00  0.00    +0.388 N 
ATOM      2  N   UNL     1      34.560 -21.520 -19.313  0.00  0.00    +0.388 N 
ATOM      3  C   UNL     1      34.768 -20.213 -21.270  0.00  0.00    -0.081 C 
ATOM      4  C   UNL     1      35.847 -21.662 -20.036  0.00  0.00    -0.081 C 
ATOM      5  C   UNL     1      35.463 -21.543 -21.501  0.00  0.00    -0.046 C 
ATOM      6  C   UNL     1      36.608 -20.339 -19.830  0.00  0.00    -0.098 C 
ATOM      7  C   UNL     1      33.766 -20.601 -20.167  0.00  0.00    -0.098 C 
ATOM      8  H   UNL     1      35.388 -18.644 -20.034  0.00  0.00    -0.079 HD
ATOM      9  H   UNL     1      34.691 -21.158 -18.367  0.00  0.00    -0.079 HD
ENDROOT
BRANCH   1  10
ATOM     10  C   UNL     1      36.613 -18.634 -21.576  0.00  0.00    -0.050 C 
BRANCH  10  11
ATOM     11  C   UNL     1      35.787 -17.670 -22.385  0.00  0.00    -0.043 C 
ATOM     12  C   UNL     1      35.237 -16.542 -21.776  0.00  0.00    -0.003 C 
ATOM     13  C   UNL     1      35.572 -17.905 -23.744  0.00  0.00    -0.003 C 
ATOM     14  C   UNL     1      34.472 -15.648 -22.525  0.00  0.00    +0.037 C 
ATOM     15  C   UNL     1      34.806 -17.011 -24.493  0.00  0.00    +0.037 C 
ATOM     16  C   UNL     1      34.256 -15.883 -23.883  0.00  0.00    +0.145 C 
BRANCH  16  17
ATOM     17  O   UNL     1      33.509 -15.011 -24.614  0.00  0.00    -0.453 OA
BRANCH  17  18
ATOM     18  C   UNL     1      33.299 -13.746 -24.091  0.00  0.00    +0.145 C 
ATOM     19  C   UNL     1      34.013 -12.657 -24.592  0.00  0.00    +0.038 C 
ATOM     20  C   UNL     1      32.377 -13.561 -23.061  0.00  0.00    +0.038 C 
ATOM     21  C   UNL     1      33.804 -11.384 -24.063  0.00  0.00    +0.008 C 
ATOM     22  C   UNL     1      32.168 -12.288 -22.532  0.00  0.00    +0.008 C 
ATOM     23  C   UNL     1      32.882 -11.198 -23.033  0.00  0.00    +0.054 C 
BRANCH  23  26
ATOM     24  O   UNL     1      32.169  -9.855 -21.219  0.00  0.00    -0.431 OA
ATOM     25  N   UNL     1      32.882  -8.706 -23.032  0.00  0.00    -0.206 NA
ATOM     26  C   UNL     1      32.667  -9.881 -22.486  0.00  0.00    +0.230 C 
ATOM     27  C   UNL     1      32.061  -8.525 -20.947  0.00  0.00    +0.202 C 
ATOM     28  C   UNL     1      32.496  -7.832 -22.049  0.00  0.00    +0.143 C 
ENDBRANCH  23  26
ENDBRANCH  17  18
ENDBRANCH  16  17
ENDBRANCH  10  11
ENDBRANCH   1  10
BRANCH   2  29
ATOM     29  C   UNL     1      33.886 -22.798 -19.109  0.00  0.00    -0.050 C 
BRANCH  29  30
ATOM     30  C   UNL     1      33.480 -22.994 -17.673  0.00  0.00    -0.043 C 
ATOM     31  C   UNL     1      34.456 -23.155 -16.688  0.00  0.00    -0.006 C 
ATOM     32  C   UNL     1      32.129 -23.016 -17.326  0.00  0.00    -0.006 C 
ATOM     33  C   UNL     1      34.079 -23.338 -15.358  0.00  0.00    +0.006 C 
ATOM     34  C   UNL     1      31.753 -23.199 -15.996  0.00  0.00    +0.006 C 
ATOM     35  C   UNL     1      32.728 -23.359 -15.011  0.00  0.00    +0.075 C 
BRANCH  35  37
ATOM     36  O   UNL     1      31.186 -23.759 -13.227  0.00  0.00    -0.245 OA
ATOM     37  C   UNL     1      32.337 -23.549 -13.624  0.00  0.00    +0.338 C 
BRANCH  37  38
ATOM     38  O   UNL     1      33.393 -23.472 -12.769  0.00  0.00    -0.477 OA
ATOM     39  H   UNL     1      34.105 -24.077 -12.848  0.00  0.00    +0.295 HD
ENDBRANCH  37  38
ENDBRANCH  35  37
ENDBRANCH  29  30
ENDBRANCH   2  29
TORSDOF 9
ENDMDL
MODEL 5
REMARK VINA RESULT:     -12.7      4.018     13.749
REMARK  Name = 68488178
REMARK  9 active torsions:
REMARK  status: ('A' for Active; 'I' for Inactive)
REMARK    1  A    between atoms: N_1  and  C_10
REMARK    2  A    between atoms: N_2  and  C_29
REMARK    3  A    between atoms: C_10  and  C_11
REMARK    4  A    between atoms: C_16  and  O_17
REMARK    5  A    between atoms: O_17  and  C_18
REMARK    6  A    between atoms: C_23  and  C_26
REMARK    7  A    between atoms: C_29  and  C_30
REMARK    8  A    between atoms: C_35  and  C_37
REMARK    9  A    between atoms: C_37  and  O_38
REMARK                            x       y       z     vdW  Elec       q    Type
REMARK                         _______ _______ _______ _____ _____    ______ ____
ROOT
ATOM      1  N   UNL     1      34.922 -19.068 -21.723  0.00  0.00    +0.388 N 
ATOM      2  N   UNL     1      34.552 -16.517 -22.821  0.00  0.00    +0.388 N 
ATOM      3  C   UNL     1      35.847 -17.941 -21.451  0.00  0.00    -0.081 C 
ATOM      4  C   UNL     1      35.278 -17.596 -23.535  0.00  0.00    -0.081 C 
ATOM      5  C   UNL     1      36.579 -17.738 -22.765  0.00  0.00    -0.046 C 
ATOM      6  C   UNL     1      34.576 -18.913 -23.158  0.00  0.00    -0.098 C 
ATOM      7  C   UNL     1      34.978 -16.671 -21.407  0.00  0.00    -0.098 C 
ATOM      8  H   UNL     1      34.100 -19.041 -21.118  0.00  0.00    -0.079 HD
ATOM      9  H   UNL     1      33.541 -16.598 -22.935  0.00  0.00    -0.079 HD
ENDROOT
BRANCH   1  10
ATOM     10  C   UNL     1      35.521 -20.367 -21.440  0.00  0.00    -0.050 C 
BRANCH  10  11
ATOM     11  C   UNL     1      34.767 -21.113 -20.372  0.00  0.00    -0.043 C 
ATOM     12  C   UNL     1      35.429 -22.045 -19.572  0.00  0.00    -0.003 C 
ATOM     13  C   UNL     1      33.406 -20.872 -20.182  0.00  0.00    -0.003 C 
ATOM     14  C   UNL     1      34.730 -22.736 -18.582  0.00  0.00    +0.037 C 
ATOM     15  C   UNL     1      32.707 -21.563 -19.192  0.00  0.00    +0.037 C 
ATOM     16  C   UNL     1      33.369 -22.495 -18.392  0.00  0.00    +0.145 C 
BRANCH  16  17
ATOM     17  O   UNL     1      32.687 -23.170 -17.427  0.00  0.00    -0.453 OA
BRANCH  17  18
ATOM     18  C   UNL     1      33.326 -23.385 -16.218  0.00  0.00    +0.145 C 
ATOM     19  C   UNL     1      32.616 -23.910 -15.138  0.00  0.00    +0.038 C 
ATOM     20  C   UNL     1      34.679 -23.076 -16.079  0.00  0.00    +0.038 C 
ATOM     21  C   UNL     1      33.259 -24.123 -13.919  0.00  0.00    +0.008 C 
ATOM     22  C   UNL     1      35.322 -23.289 -14.860  0.00  0.00    +0.008 C 
ATOM     23  C   UNL     1      34.612 -23.814 -13.779  0.00  0.00    +0.054 C 
BRANCH  23  26
ATOM     24  O   UNL     1      36.385 -23.273 -12.307  0.00  0.00    -0.431 OA
ATOM     25  N   UNL     1      34.967 -24.861 -11.546  0.00  0.00    -0.206 NA
ATOM     26  C   UNL     1      35.276 -24.034 -12.518  0.00  0.00    +0.230 C 
ATOM     27  C   UNL     1      36.813 -23.667 -11.075  0.00  0.00    +0.202 C 
ATOM     28  C   UNL     1      35.949 -24.630 -10.617  0.00  0.00    +0.143 C 
ENDBRANCH  23  26
ENDBRANCH  17  18
ENDBRANCH  16  17
ENDBRANCH  10  11
ENDBRANCH   1  10
BRANCH   2  29
ATOM     29  C   UNL     1      34.859 -15.192 -23.346  0.00  0.00    -0.050 C 
BRANCH  29  30
ATOM     30  C   UNL     1      33.913 -14.147 -22.817  0.00  0.00    -0.043 C 
ATOM     31  C   UNL     1      33.198 -14.384 -21.643  0.00  0.00    -0.006 C 
ATOM     32  C   UNL     1      33.751 -12.942 -23.501  0.00  0.00    -0.006 C 
ATOM     33  C   UNL     1      32.322 -13.417 -21.153  0.00  0.00    +0.006 C 
ATOM     34  C   UNL     1      32.874 -11.975 -23.011  0.00  0.00    +0.006 C 
ATOM     35  C   UNL     1      32.159 -12.211 -21.836  0.00  0.00    +0.075 C 
BRANCH  35  37
ATOM     36  O   UNL     1      31.463 -10.463 -20.360  0.00  0.00    -0.245 OA
ATOM     37  C   UNL     1      31.246 -11.203 -21.325  0.00  0.00    +0.338 C 
BRANCH  37  38
ATOM     38  O   UNL     1      30.086 -11.144 -22.035  0.00  0.00    -0.477 OA
ATOM     39  H   UNL     1      29.568 -10.363 -22.023  0.00  0.00    +0.295 HD
ENDBRANCH  37  38
ENDBRANCH  35  37
ENDBRANCH  29  30
ENDBRANCH   2  29
TORSDOF 9
ENDMDL
MODEL 6
REMARK VINA RESULT:     -12.6      2.673     13.296
REMARK  Name = 68488178
REMARK  9 active torsions:
REMARK  status: ('A' for Active; 'I' for Inactive)
REMARK    1  A    between atoms: N_1  and  C_10
REMARK    2  A    between atoms: N_2  and  C_29
REMARK    3  A    between atoms: C_10  and  C_11
REMARK    4  A    between atoms: C_16  and  O_17
REMARK    5  A    between atoms: O_17  and  C_18
REMARK    6  A    between atoms: C_23  and  C_26
REMARK    7  A    between atoms: C_29  and  C_30
REMARK    8  A    between atoms: C_35  and  C_37
REMARK    9  A    between atoms: C_37  and  O_38
REMARK                            x       y       z     vdW  Elec       q    Type
REMARK                         _______ _______ _______ _____ _____    ______ ____
ROOT
ATOM      1  N   UNL     1      32.089 -10.087 -23.088  0.00  0.00    +0.388 N 
ATOM      2  N   UNL     1      32.571  -7.456 -23.923  0.00  0.00    +0.388 N 
ATOM      3  C   UNL     1      31.228  -8.951 -22.680  0.00  0.00    -0.081 C 
ATOM      4  C   UNL     1      33.219  -8.045 -22.725  0.00  0.00    -0.081 C 
ATOM      5  C   UNL     1      32.091  -8.160 -21.714  0.00  0.00    -0.046 C 
ATOM      6  C   UNL     1      33.464  -9.530 -23.051  0.00  0.00    -0.098 C 
ATOM      7  C   UNL     1      31.186  -7.989 -23.881  0.00  0.00    -0.098 C 
ATOM      8  H   UNL     1      31.837 -10.445 -24.011  0.00  0.00    -0.079 HD
ATOM      9  H   UNL     1      33.060  -7.708 -24.783  0.00  0.00    -0.079 HD
ENDROOT
BRANCH   1  10
ATOM     10  C   UNL     1      31.942 -11.245 -22.213  0.00  0.00    -0.050 C 
BRANCH  10  11
ATOM     11  C   UNL     1      32.701 -12.438 -22.729  0.00  0.00    -0.043 C 
ATOM     12  C   UNL     1      33.396 -12.353 -23.936  0.00  0.00    -0.003 C 
ATOM     13  C   UNL     1      32.708 -13.628 -22.002  0.00  0.00    -0.003 C 
ATOM     14  C   UNL     1      34.099 -13.459 -24.415  0.00  0.00    +0.037 C 
ATOM     15  C   UNL     1      33.411 -14.734 -22.481  0.00  0.00    +0.037 C 
ATOM     16  C   UNL     1      34.107 -14.649 -23.687  0.00  0.00    +0.145 C 
BRANCH  16  17
ATOM     17  O   UNL     1      34.792 -15.729 -24.155  0.00  0.00    -0.453 OA
BRANCH  17  18
ATOM     18  C   UNL     1      34.929 -16.818 -23.312  0.00  0.00    +0.145 C 
ATOM     19  C   UNL     1      34.657 -18.103 -23.783  0.00  0.00    +0.038 C 
ATOM     20  C   UNL     1      35.339 -16.632 -21.992  0.00  0.00    +0.038 C 
ATOM     21  C   UNL     1      34.793 -19.200 -22.933  0.00  0.00    +0.008 C 
ATOM     22  C   UNL     1      35.475 -17.729 -21.142  0.00  0.00    +0.008 C 
ATOM     23  C   UNL     1      35.202 -19.014 -21.612  0.00  0.00    +0.054 C 
BRANCH  23  26
ATOM     24  O   UNL     1      36.579 -20.311 -20.189  0.00  0.00    -0.431 OA
ATOM     25  N   UNL     1      34.449 -21.047 -20.382  0.00  0.00    -0.206 NA
ATOM     26  C   UNL     1      35.342 -20.149 -20.733  0.00  0.00    +0.230 C 
ATOM     27  C   UNL     1      36.445 -21.427 -19.419  0.00  0.00    +0.202 C 
ATOM     28  C   UNL     1      35.151 -21.869 -19.539  0.00  0.00    +0.143 C 
ENDBRANCH  23  26
ENDBRANCH  17  18
ENDBRANCH  16  17
ENDBRANCH  10  11
ENDBRANCH   1  10
BRANCH   2  29
ATOM     29  C   UNL     1      32.600  -5.998 -23.917  0.00  0.00    -0.050 C 
BRANCH  29  30
ATOM     30  C   UNL     1      33.366  -5.448 -25.090  0.00  0.00    -0.043 C 
ATOM     31  C   UNL     1      34.661  -5.899 -25.350  0.00  0.00    -0.006 C 
ATOM     32  C   UNL     1      32.783  -4.486 -25.915  0.00  0.00    -0.006 C 
ATOM     33  C   UNL     1      35.371  -5.388 -26.436  0.00  0.00    +0.006 C 
ATOM     34  C   UNL     1      33.494  -3.976 -27.001  0.00  0.00    +0.006 C 
ATOM     35  C   UNL     1      34.788  -4.428 -27.263  0.00  0.00    +0.075 C 
BRANCH  35  37
ATOM     36  O   UNL     1      35.215  -2.898 -29.051  0.00  0.00    -0.245 OA
ATOM     37  C   UNL     1      35.528  -3.896 -28.395  0.00  0.00    +0.338 C 
BRANCH  37  38
ATOM     38  O   UNL     1      36.642  -4.626 -28.677  0.00  0.00    -0.477 OA
ATOM     39  H   UNL     1      37.486  -4.313 -28.415  0.00  0.00    +0.295 HD
ENDBRANCH  37  38
ENDBRANCH  35  37
ENDBRANCH  29  30
ENDBRANCH   2  29
TORSDOF 9
ENDMDL
MODEL 7
REMARK VINA RESULT:     -12.6      2.670     13.299
REMARK  Name = 68488178
REMARK  9 active torsions:
REMARK  status: ('A' for Active; 'I' for Inactive)
REMARK    1  A    between atoms: N_1  and  C_10
REMARK    2  A    between atoms: N_2  and  C_29
REMARK    3  A    between atoms: C_10  and  C_11
REMARK    4  A    between atoms: C_16  and  O_17
REMARK    5  A    between atoms: O_17  and  C_18
REMARK    6  A    between atoms: C_23  and  C_26
REMARK    7  A    between atoms: C_29  and  C_30
REMARK    8  A    between atoms: C_35  and  C_37
REMARK    9  A    between atoms: C_37  and  O_38
REMARK                            x       y       z     vdW  Elec       q    Type
REMARK                         _______ _______ _______ _____ _____    ______ ____
ROOT
ATOM      1  N   UNL     1      32.089 -10.087 -23.080  0.00  0.00    +0.388 N 
ATOM      2  N   UNL     1      32.558  -7.457 -23.925  0.00  0.00    +0.388 N 
ATOM      3  C   UNL     1      31.217  -8.955 -22.683  0.00  0.00    -0.081 C 
ATOM      4  C   UNL     1      33.202  -8.035 -22.720  0.00  0.00    -0.081 C 
ATOM      5  C   UNL     1      32.069  -8.153 -21.716  0.00  0.00    -0.046 C 
ATOM      6  C   UNL     1      33.460  -9.520 -23.038  0.00  0.00    -0.098 C 
ATOM      7  C   UNL     1      31.176  -7.999 -23.890  0.00  0.00    -0.098 C 
ATOM      8  H   UNL     1      31.845 -10.451 -24.002  0.00  0.00    -0.079 HD
ATOM      9  H   UNL     1      33.053  -7.710 -24.781  0.00  0.00    -0.079 HD
ENDROOT
BRANCH   1  10
ATOM     10  C   UNL     1      31.945 -11.241 -22.200  0.00  0.00    -0.050 C 
BRANCH  10  11
ATOM     11  C   UNL     1      32.706 -12.435 -22.711  0.00  0.00    -0.043 C 
ATOM     12  C   UNL     1      33.424 -12.346 -23.904  0.00  0.00    -0.003 C 
ATOM     13  C   UNL     1      32.692 -13.631 -21.993  0.00  0.00    -0.003 C 
ATOM     14  C   UNL     1      34.129 -13.452 -24.378  0.00  0.00    +0.037 C 
ATOM     15  C   UNL     1      33.397 -14.737 -22.467  0.00  0.00    +0.037 C 
ATOM     16  C   UNL     1      34.115 -14.648 -23.660  0.00  0.00    +0.145 C 
BRANCH  16  17
ATOM     17  O   UNL     1      34.802 -15.728 -24.123  0.00  0.00    -0.453 OA
BRANCH  17  18
ATOM     18  C   UNL     1      34.924 -16.822 -23.283  0.00  0.00    +0.145 C 
ATOM     19  C   UNL     1      35.339 -16.645 -21.963  0.00  0.00    +0.038 C 
ATOM     20  C   UNL     1      34.632 -18.101 -23.757  0.00  0.00    +0.038 C 
ATOM     21  C   UNL     1      35.465 -17.747 -21.118  0.00  0.00    +0.008 C 
ATOM     22  C   UNL     1      34.758 -19.203 -22.912  0.00  0.00    +0.008 C 
ATOM     23  C   UNL     1      35.174 -19.027 -21.591  0.00  0.00    +0.054 C 
BRANCH  23  26
ATOM     24  O   UNL     1      36.539 -20.337 -20.169  0.00  0.00    -0.431 OA
ATOM     25  N   UNL     1      34.406 -21.062 -20.375  0.00  0.00    -0.206 NA
ATOM     26  C   UNL     1      35.305 -20.166 -20.717  0.00  0.00    +0.230 C 
ATOM     27  C   UNL     1      36.396 -21.456 -19.405  0.00  0.00    +0.202 C 
ATOM     28  C   UNL     1      35.100 -21.892 -19.533  0.00  0.00    +0.143 C 
ENDBRANCH  23  26
ENDBRANCH  17  18
ENDBRANCH  16  17
ENDBRANCH  10  11
ENDBRANCH   1  10
BRANCH   2  29
ATOM     29  C   UNL     1      32.576  -5.999 -23.927  0.00  0.00    -0.050 C 
BRANCH  29  30
ATOM     30  C   UNL     1      33.359  -5.450 -25.089  0.00  0.00    -0.043 C 
ATOM     31  C   UNL     1      32.784  -4.497 -25.930  0.00  0.00    -0.006 C 
ATOM     32  C   UNL     1      34.660  -5.894 -25.326  0.00  0.00    -0.006 C 
ATOM     33  C   UNL     1      33.510  -3.989 -27.006  0.00  0.00    +0.006 C 
ATOM     34  C   UNL     1      35.386  -5.386 -26.403  0.00  0.00    +0.006 C 
ATOM     35  C   UNL     1      34.811  -4.432 -27.243  0.00  0.00    +0.075 C 
BRANCH  35  37
ATOM     36  O   UNL     1      35.303  -4.085 -29.558  0.00  0.00    -0.245 OA
ATOM     37  C   UNL     1      35.567  -3.902 -28.365  0.00  0.00    +0.338 C 
BRANCH  37  38
ATOM     38  O   UNL     1      36.634  -3.155 -27.968  0.00  0.00    -0.477 OA
ATOM     39  H   UNL     1      37.503  -3.419 -28.198  0.00  0.00    +0.295 HD
ENDBRANCH  37  38
ENDBRANCH  35  37
ENDBRANCH  29  30
ENDBRANCH   2  29
TORSDOF 9
ENDMDL
MODEL 8
REMARK VINA RESULT:     -12.6      2.298     12.592
REMARK  Name = 68488178
REMARK  9 active torsions:
REMARK  status: ('A' for Active; 'I' for Inactive)
REMARK    1  A    between atoms: N_1  and  C_10
REMARK    2  A    between atoms: N_2  and  C_29
REMARK    3  A    between atoms: C_10  and  C_11
REMARK    4  A    between atoms: C_16  and  O_17
REMARK    5  A    between atoms: O_17  and  C_18
REMARK    6  A    between atoms: C_23  and  C_26
REMARK    7  A    between atoms: C_29  and  C_30
REMARK    8  A    between atoms: C_35  and  C_37
REMARK    9  A    between atoms: C_37  and  O_38
REMARK                            x       y       z     vdW  Elec       q    Type
REMARK                         _______ _______ _______ _____ _____    ______ ____
ROOT
ATOM      1  N   UNL     1      33.066 -14.581 -23.639  0.00  0.00    +0.388 N 
ATOM      2  N   UNL     1      31.934 -12.713 -21.883  0.00  0.00    +0.388 N 
ATOM      3  C   UNL     1      33.556 -14.391 -22.252  0.00  0.00    -0.081 C 
ATOM      4  C   UNL     1      33.008 -12.358 -22.844  0.00  0.00    -0.081 C 
ATOM      5  C   UNL     1      34.244 -13.038 -22.284  0.00  0.00    -0.046 C 
ATOM      6  C   UNL     1      32.758 -13.205 -24.105  0.00  0.00    -0.098 C 
ATOM      7  C   UNL     1      32.318 -14.063 -21.398  0.00  0.00    -0.098 C 
ATOM      8  H   UNL     1      32.252 -15.196 -23.675  0.00  0.00    -0.079 HD
ATOM      9  H   UNL     1      31.012 -12.704 -22.321  0.00  0.00    -0.079 HD
ENDROOT
BRANCH   1  10
ATOM     10  C   UNL     1      34.043 -15.244 -24.494  0.00  0.00    -0.050 C 
BRANCH  10  11
ATOM     11  C   UNL     1      34.615 -16.475 -23.842  0.00  0.00    -0.043 C 
ATOM     12  C   UNL     1      34.581 -17.698 -24.512  0.00  0.00    -0.003 C 
ATOM     13  C   UNL     1      35.179 -16.392 -22.569  0.00  0.00    -0.003 C 
ATOM     14  C   UNL     1      35.110 -18.839 -23.909  0.00  0.00    +0.037 C 
ATOM     15  C   UNL     1      35.709 -17.533 -21.966  0.00  0.00    +0.037 C 
ATOM     16  C   UNL     1      35.675 -18.756 -22.636  0.00  0.00    +0.145 C 
BRANCH  16  17
ATOM     17  O   UNL     1      36.191 -19.869 -22.046  0.00  0.00    -0.453 OA
BRANCH  17  18
ATOM     18  C   UNL     1      35.430 -20.493 -21.072  0.00  0.00    +0.145 C 
ATOM     19  C   UNL     1      36.038 -21.354 -20.158  0.00  0.00    +0.038 C 
ATOM     20  C   UNL     1      34.056 -20.262 -21.005  0.00  0.00    +0.038 C 
ATOM     21  C   UNL     1      35.271 -21.985 -19.179  0.00  0.00    +0.008 C 
ATOM     22  C   UNL     1      33.290 -20.893 -20.026  0.00  0.00    +0.008 C 
ATOM     23  C   UNL     1      33.897 -21.755 -19.112  0.00  0.00    +0.054 C 
BRANCH  23  26
ATOM     24  O   UNL     1      33.812 -23.122 -17.181  0.00  0.00    -0.431 OA
ATOM     25  N   UNL     1      31.801 -22.414 -17.936  0.00  0.00    -0.206 NA
ATOM     26  C   UNL     1      33.104 -22.408 -18.099  0.00  0.00    +0.230 C 
ATOM     27  C   UNL     1      32.849 -23.626 -16.359  0.00  0.00    +0.202 C 
ATOM     28  C   UNL     1      31.631 -23.193 -16.821  0.00  0.00    +0.143 C 
ENDBRANCH  23  26
ENDBRANCH  17  18
ENDBRANCH  16  17
ENDBRANCH  10  11
ENDBRANCH   1  10
BRANCH   2  29
ATOM     29  C   UNL     1      31.815 -11.751 -20.794  0.00  0.00    -0.050 C 
BRANCH  29  30
ATOM     30  C   UNL     1      31.762 -10.334 -21.299  0.00  0.00    -0.043 C 
ATOM     31  C   UNL     1      32.276  -9.297 -20.521  0.00  0.00    -0.006 C 
ATOM     32  C   UNL     1      31.199 -10.059 -22.546  0.00  0.00    -0.006 C 
ATOM     33  C   UNL     1      32.226  -7.985 -20.990  0.00  0.00    +0.006 C 
ATOM     34  C   UNL     1      31.149  -8.746 -23.014  0.00  0.00    +0.006 C 
ATOM     35  C   UNL     1      31.664  -7.708 -22.236  0.00  0.00    +0.075 C 
BRANCH  35  37
ATOM     36  O   UNL     1      30.710  -5.530 -22.492  0.00  0.00    -0.245 OA
ATOM     37  C   UNL     1      31.613  -6.340 -22.724  0.00  0.00    +0.338 C 
BRANCH  37  38
ATOM     38  O   UNL     1      32.693  -6.020 -23.489  0.00  0.00    -0.477 OA
ATOM     39  H   UNL     1      32.572  -5.727 -24.371  0.00  0.00    +0.295 HD
ENDBRANCH  37  38
ENDBRANCH  35  37
ENDBRANCH  29  30
ENDBRANCH   2  29
TORSDOF 9
ENDMDL
MODEL 9
REMARK VINA RESULT:     -12.5      4.316      8.682
REMARK  Name = 68488178
REMARK  9 active torsions:
REMARK  status: ('A' for Active; 'I' for Inactive)
REMARK    1  A    between atoms: N_1  and  C_10
REMARK    2  A    between atoms: N_2  and  C_29
REMARK    3  A    between atoms: C_10  and  C_11
REMARK    4  A    between atoms: C_16  and  O_17
REMARK    5  A    between atoms: O_17  and  C_18
REMARK    6  A    between atoms: C_23  and  C_26
REMARK    7  A    between atoms: C_29  and  C_30
REMARK    8  A    between atoms: C_35  and  C_37
REMARK    9  A    between atoms: C_37  and  O_38
REMARK                            x       y       z     vdW  Elec       q    Type
REMARK                         _______ _______ _______ _____ _____    ______ ____
ROOT
ATOM      1  N   UNL     1      34.751 -22.076 -17.997  0.00  0.00    +0.388 N 
ATOM      2  N   UNL     1      32.707 -23.068 -16.357  0.00  0.00    +0.388 N 
ATOM      3  C   UNL     1      33.805 -23.125 -18.448  0.00  0.00    -0.081 C 
ATOM      4  C   UNL     1      34.085 -23.617 -16.335  0.00  0.00    -0.081 C 
ATOM      5  C   UNL     1      34.210 -24.355 -17.656  0.00  0.00    -0.046 C 
ATOM      6  C   UNL     1      35.029 -22.426 -16.581  0.00  0.00    -0.098 C 
ATOM      7  C   UNL     1      32.451 -22.795 -17.794  0.00  0.00    -0.098 C 
ATOM      8  H   UNL     1      34.358 -21.139 -18.097  0.00  0.00    -0.079 HD
ATOM      9  H   UNL     1      32.620 -22.231 -15.780  0.00  0.00    -0.079 HD
ENDROOT
BRANCH   1  10
ATOM     10  C   UNL     1      35.967 -22.033 -18.800  0.00  0.00    -0.050 C 
BRANCH  10  11
ATOM     11  C   UNL     1      35.900 -20.969 -19.863  0.00  0.00    -0.043 C 
ATOM     12  C   UNL     1      37.039 -20.229 -20.181  0.00  0.00    -0.003 C 
ATOM     13  C   UNL     1      34.699 -20.722 -20.529  0.00  0.00    -0.003 C 
ATOM     14  C   UNL     1      36.978 -19.242 -21.165  0.00  0.00    +0.037 C 
ATOM     15  C   UNL     1      34.638 -19.735 -21.513  0.00  0.00    +0.037 C 
ATOM     16  C   UNL     1      35.777 -18.996 -21.831  0.00  0.00    +0.145 C 
BRANCH  16  17
ATOM     17  O   UNL     1      35.717 -18.032 -22.791  0.00  0.00    -0.453 OA
BRANCH  17  18
ATOM     18  C   UNL     1      35.016 -16.874 -22.498  0.00  0.00    +0.145 C 
ATOM     19  C   UNL     1      34.814 -16.499 -21.170  0.00  0.00    +0.038 C 
ATOM     20  C   UNL     1      34.511 -16.084 -23.531  0.00  0.00    +0.038 C 
ATOM     21  C   UNL     1      34.105 -15.335 -20.875  0.00  0.00    +0.008 C 
ATOM     22  C   UNL     1      33.802 -14.920 -23.235  0.00  0.00    +0.008 C 
ATOM     23  C   UNL     1      33.599 -14.544 -21.906  0.00  0.00    +0.054 C 
BRANCH  23  26
ATOM     24  O   UNL     1      32.654 -12.508 -22.657  0.00  0.00    -0.431 OA
ATOM     25  N   UNL     1      32.375 -12.932 -20.453  0.00  0.00    -0.206 NA
ATOM     26  C   UNL     1      32.866 -13.341 -21.601  0.00  0.00    +0.230 C 
ATOM     27  C   UNL     1      31.958 -11.472 -22.111  0.00  0.00    +0.202 C 
ATOM     28  C   UNL     1      31.790 -11.734 -20.774  0.00  0.00    +0.143 C 
ENDBRANCH  23  26
ENDBRANCH  17  18
ENDBRANCH  16  17
ENDBRANCH  10  11
ENDBRANCH   1  10
BRANCH   2  29
ATOM     29  C   UNL     1      31.727 -23.988 -15.790  0.00  0.00    -0.050 C 
BRANCH  29  30
ATOM     30  C   UNL     1      30.319 -23.484 -15.964  0.00  0.00    -0.043 C 
ATOM     31  C   UNL     1      29.814 -22.513 -15.098  0.00  0.00    -0.006 C 
ATOM     32  C   UNL     1      29.519 -23.988 -16.990  0.00  0.00    -0.006 C 
ATOM     33  C   UNL     1      28.510 -22.048 -15.259  0.00  0.00    +0.006 C 
ATOM     34  C   UNL     1      28.215 -23.522 -17.150  0.00  0.00    +0.006 C 
ATOM     35  C   UNL     1      27.709 -22.550 -16.285  0.00  0.00    +0.075 C 
BRANCH  35  37
ATOM     36  O   UNL     1      25.865 -21.642 -17.507  0.00  0.00    -0.245 OA
ATOM     37  C   UNL     1      26.350 -22.064 -16.452  0.00  0.00    +0.338 C 
BRANCH  37  38
ATOM     38  O   UNL     1      25.632 -22.120 -15.297  0.00  0.00    -0.477 OA
ATOM     39  H   UNL     1      26.020 -21.843 -14.490  0.00  0.00    +0.295 HD
ENDBRANCH  37  38
ENDBRANCH  35  37
ENDBRANCH  29  30
ENDBRANCH   2  29
TORSDOF 9
ENDMDL
