MODEL 1
REMARK VINA RESULT:     -13.6      0.000      0.000
REMARK  Name = 24864821
REMARK  5 active torsions:
REMARK  status: ('A' for Active; 'I' for Inactive)
REMARK    1  A    between atoms: C_5  and  C_16
REMARK    2  A    between atoms: C_7  and  C_10
REMARK    3  A    between atoms: C_16  and  O_17
REMARK    4  A    between atoms: O_17  and  C_20
REMARK    5  A    between atoms: C_25  and  O_28
REMARK                            x       y       z     vdW  Elec       q    Type
REMARK                         _______ _______ _______ _____ _____    ______ ____
ROOT
ATOM      1  N   UNL     1      32.463 -10.148 -21.871  0.00  0.00    -0.191 N 
ATOM      2  N   UNL     1      32.832  -9.378 -22.924  0.00  0.00    -0.163 NA
ATOM      3  N   UNL     1      31.863 -11.887 -20.679  0.00  0.00    -0.128 NA
ATOM      4  N   UNL     1      31.937 -10.794 -19.840  0.00  0.00    -0.127 NA
ATOM      5  C   UNL     1      32.180 -11.483 -21.888  0.00  0.00    +0.208 A 
ATOM      6  C   UNL     1      32.297  -9.756 -20.563  0.00  0.00    +0.186 A 
ATOM      7  C   UNL     1      33.049  -8.131 -22.613  0.00  0.00    +0.101 C 
ATOM      8  C   UNL     1      32.521  -8.399 -20.261  0.00  0.00    +0.042 C 
ATOM      9  C   UNL     1      32.891  -7.560 -21.237  0.00  0.00    +0.024 C 
ENDROOT
BRANCH   7  10
ATOM     10  C   UNL     1      33.465  -7.185 -23.682  0.00  0.00    +0.019 C 
ATOM     11  C   UNL     1      34.791  -7.158 -24.112  0.00  0.00    +0.002 C 
ATOM     12  C   UNL     1      32.528  -6.326 -24.256  0.00  0.00    +0.002 C 
ATOM     13  C   UNL     1      35.180  -6.272 -25.116  0.00  0.00    +0.000 C 
ATOM     14  C   UNL     1      32.917  -5.440 -25.260  0.00  0.00    +0.000 C 
ATOM     15  C   UNL     1      34.243  -5.412 -25.691  0.00  0.00    +0.000 C 
ENDBRANCH   7  10
BRANCH   5  16
ATOM     16  C   UNL     1      32.240 -12.318 -23.134  0.00  0.00    +0.272 C 
BRANCH  16  17
ATOM     17  O   UNL     1      33.537 -12.901 -23.241  0.00  0.00    -0.467 OA
BRANCH  17  20
ATOM     18  N   UNL     1      34.043 -15.723 -26.236  0.00  0.00    -0.248 NA
ATOM     19  C   UNL     1      34.233 -15.112 -23.914  0.00  0.00    +0.030 C 
ATOM     20  C   UNL     1      33.712 -13.844 -24.210  0.00  0.00    +0.138 C 
ATOM     21  C   UNL     1      34.384 -16.032 -24.971  0.00  0.00    +0.066 C 
ATOM     22  C   UNL     1      34.599 -15.469 -22.604  0.00  0.00    +0.059 C 
ATOM     23  C   UNL     1      34.901 -17.290 -24.676  0.00  0.00    +0.109 C 
ATOM     24  C   UNL     1      33.360 -13.522 -25.512  0.00  0.00    +0.057 C 
ATOM     25  C   UNL     1      35.265 -17.646 -23.375  0.00  0.00    +0.118 C 
ATOM     26  C   UNL     1      35.114 -16.734 -22.338  0.00  0.00    +0.011 C 
ATOM     27  C   UNL     1      33.544 -14.489 -26.481  0.00  0.00    +0.102 C 
BRANCH  25  28
ATOM     28  O   UNL     1      35.766 -18.886 -23.125  0.00  0.00    -0.476 OA
ATOM     29  C   UNL     1      35.369 -19.513 -21.905  0.00  0.00    +0.252 C 
ENDBRANCH  25  28
ENDBRANCH  17  20
ENDBRANCH  16  17
ENDBRANCH   5  16
TORSDOF 5
ENDMDL
MODEL 2
REMARK VINA RESULT:     -13.4      3.046      6.656
REMARK  Name = 24864821
REMARK  5 active torsions:
REMARK  status: ('A' for Active; 'I' for Inactive)
REMARK    1  A    between atoms: C_5  and  C_16
REMARK    2  A    between atoms: C_7  and  C_10
REMARK    3  A    between atoms: C_16  and  O_17
REMARK    4  A    between atoms: O_17  and  C_20
REMARK    5  A    between atoms: C_25  and  O_28
REMARK                            x       y       z     vdW  Elec       q    Type
REMARK                         _______ _______ _______ _____ _____    ______ ____
ROOT
ATOM      1  N   UNL     1      34.137 -15.368 -24.113  0.00  0.00    -0.191 N 
ATOM      2  N   UNL     1      33.750 -14.356 -23.297  0.00  0.00    -0.163 NA
ATOM      3  N   UNL     1      34.930 -17.290 -24.806  0.00  0.00    -0.128 NA
ATOM      4  N   UNL     1      34.529 -16.566 -25.910  0.00  0.00    -0.127 NA
ATOM      5  C   UNL     1      34.690 -16.558 -23.741  0.00  0.00    +0.208 A 
ATOM      6  C   UNL     1      34.054 -15.415 -25.485  0.00  0.00    +0.186 A 
ATOM      7  C   UNL     1      33.243 -13.335 -23.928  0.00  0.00    +0.101 C 
ATOM      8  C   UNL     1      33.519 -14.290 -26.141  0.00  0.00    +0.042 C 
ATOM      9  C   UNL     1      33.107 -13.241 -25.417  0.00  0.00    +0.024 C 
ENDROOT
BRANCH   7  10
ATOM     10  C   UNL     1      32.777 -12.162 -23.142  0.00  0.00    +0.019 C 
ATOM     11  C   UNL     1      32.023 -12.354 -21.985  0.00  0.00    +0.002 C 
ATOM     12  C   UNL     1      33.095 -10.871 -23.561  0.00  0.00    +0.002 C 
ATOM     13  C   UNL     1      31.587 -11.254 -21.247  0.00  0.00    +0.000 C 
ATOM     14  C   UNL     1      32.660  -9.771 -22.823  0.00  0.00    +0.000 C 
ATOM     15  C   UNL     1      31.905  -9.961 -21.666  0.00  0.00    +0.000 C 
ENDBRANCH   7  10
BRANCH   5  16
ATOM     16  C   UNL     1      34.959 -16.926 -22.312  0.00  0.00    +0.272 C 
BRANCH  16  17
ATOM     17  O   UNL     1      34.539 -18.272 -22.091  0.00  0.00    -0.467 OA
BRANCH  17  20
ATOM     18  N   UNL     1      37.108 -20.635 -19.854  0.00  0.00    -0.248 NA
ATOM     19  C   UNL     1      34.878 -20.167 -20.636  0.00  0.00    +0.030 C 
ATOM     20  C   UNL     1      35.365 -19.063 -21.349  0.00  0.00    +0.138 C 
ATOM     21  C   UNL     1      35.796 -20.935 -19.891  0.00  0.00    +0.066 C 
ATOM     22  C   UNL     1      33.515 -20.510 -20.651  0.00  0.00    +0.059 C 
ATOM     23  C   UNL     1      35.311 -22.031 -19.183  0.00  0.00    +0.109 C 
ATOM     24  C   UNL     1      36.716 -18.751 -21.313  0.00  0.00    +0.057 C 
ATOM     25  C   UNL     1      33.957 -22.372 -19.199  0.00  0.00    +0.118 C 
ATOM     26  C   UNL     1      33.057 -21.610 -19.934  0.00  0.00    +0.011 C 
ATOM     27  C   UNL     1      37.539 -19.562 -20.557  0.00  0.00    +0.102 C 
BRANCH  25  28
ATOM     28  O   UNL     1      33.520 -23.452 -18.495  0.00  0.00    -0.476 OA
ATOM     29  C   UNL     1      32.743 -23.194 -17.325  0.00  0.00    +0.252 C 
ENDBRANCH  25  28
ENDBRANCH  17  20
ENDBRANCH  16  17
ENDBRANCH   5  16
TORSDOF 5
ENDMDL
MODEL 3
REMARK VINA RESULT:     -13.4      8.001     13.662
REMARK  Name = 24864821
REMARK  5 active torsions:
REMARK  status: ('A' for Active; 'I' for Inactive)
REMARK    1  A    between atoms: C_5  and  C_16
REMARK    2  A    between atoms: C_7  and  C_10
REMARK    3  A    between atoms: C_16  and  O_17
REMARK    4  A    between atoms: O_17  and  C_20
REMARK    5  A    between atoms: C_25  and  O_28
REMARK                            x       y       z     vdW  Elec       q    Type
REMARK                         _______ _______ _______ _____ _____    ______ ____
ROOT
ATOM      1  N   UNL     1      36.409 -23.168 -15.755  0.00  0.00    -0.191 N 
ATOM      2  N   UNL     1      35.078 -22.938 -15.877  0.00  0.00    -0.163 NA
ATOM      3  N   UNL     1      38.576 -23.021 -16.044  0.00  0.00    -0.128 NA
ATOM      4  N   UNL     1      38.333 -23.997 -15.099  0.00  0.00    -0.127 NA
ATOM      5  C   UNL     1      37.416 -22.537 -16.426  0.00  0.00    +0.208 A 
ATOM      6  C   UNL     1      37.031 -24.077 -14.932  0.00  0.00    +0.186 A 
ATOM      7  C   UNL     1      34.342 -23.686 -15.102  0.00  0.00    +0.101 C 
ATOM      8  C   UNL     1      36.209 -24.883 -14.120  0.00  0.00    +0.042 C 
ATOM      9  C   UNL     1      34.880 -24.728 -14.170  0.00  0.00    +0.024 C 
ENDROOT
BRANCH   7  10
ATOM     10  C   UNL     1      32.865 -23.525 -15.141  0.00  0.00    +0.019 C 
ATOM     11  C   UNL     1      32.222 -23.267 -16.351  0.00  0.00    +0.002 C 
ATOM     12  C   UNL     1      32.121 -23.635 -13.966  0.00  0.00    +0.002 C 
ATOM     13  C   UNL     1      30.836 -23.118 -16.386  0.00  0.00    +0.000 C 
ATOM     14  C   UNL     1      30.735 -23.487 -14.001  0.00  0.00    +0.000 C 
ATOM     15  C   UNL     1      30.091 -23.228 -15.212  0.00  0.00    +0.000 C 
ENDBRANCH   7  10
BRANCH   5  16
ATOM     16  C   UNL     1      37.176 -21.456 -17.438  0.00  0.00    +0.272 C 
BRANCH  16  17
ATOM     17  O   UNL     1      36.852 -22.055 -18.691  0.00  0.00    -0.467 OA
BRANCH  17  20
ATOM     18  N   UNL     1      33.432 -20.688 -20.595  0.00  0.00    -0.248 NA
ATOM     19  C   UNL     1      35.812 -20.538 -20.253  0.00  0.00    +0.030 C 
ATOM     20  C   UNL     1      35.740 -21.589 -19.329  0.00  0.00    +0.138 C 
ATOM     21  C   UNL     1      34.617 -20.113 -20.871  0.00  0.00    +0.066 C 
ATOM     22  C   UNL     1      37.032 -19.914 -20.566  0.00  0.00    +0.059 C 
ATOM     23  C   UNL     1      34.689 -19.069 -21.789  0.00  0.00    +0.109 C 
ATOM     24  C   UNL     1      34.520 -22.184 -19.042  0.00  0.00    +0.057 C 
ATOM     25  C   UNL     1      35.902 -18.449 -22.099  0.00  0.00    +0.118 C 
ATOM     26  C   UNL     1      37.075 -18.873 -21.487  0.00  0.00    +0.011 C 
ATOM     27  C   UNL     1      33.405 -21.700 -19.697  0.00  0.00    +0.102 C 
BRANCH  25  28
ATOM     28  O   UNL     1      35.933 -17.432 -23.003  0.00  0.00    -0.476 OA
ATOM     29  C   UNL     1      35.095 -17.559 -24.152  0.00  0.00    +0.252 C 
ENDBRANCH  25  28
ENDBRANCH  17  20
ENDBRANCH  16  17
ENDBRANCH   5  16
TORSDOF 5
ENDMDL
MODEL 4
REMARK VINA RESULT:     -13.3      1.517      2.346
REMARK  Name = 24864821
REMARK  5 active torsions:
REMARK  status: ('A' for Active; 'I' for Inactive)
REMARK    1  A    between atoms: C_5  and  C_16
REMARK    2  A    between atoms: C_7  and  C_10
REMARK    3  A    between atoms: C_16  and  O_17
REMARK    4  A    between atoms: O_17  and  C_20
REMARK    5  A    between atoms: C_25  and  O_28
REMARK                            x       y       z     vdW  Elec       q    Type
REMARK                         _______ _______ _______ _____ _____    ______ ____
ROOT
ATOM      1  N   UNL     1      32.794 -11.848 -22.541  0.00  0.00    -0.191 N 
ATOM      2  N   UNL     1      33.142 -10.736 -23.235  0.00  0.00    -0.163 NA
ATOM      3  N   UNL     1      32.627 -13.945 -21.928  0.00  0.00    -0.128 NA
ATOM      4  N   UNL     1      31.913 -13.176 -21.031  0.00  0.00    -0.127 NA
ATOM      5  C   UNL     1      33.145 -13.135 -22.823  0.00  0.00    +0.208 A 
ATOM      6  C   UNL     1      32.020 -11.920 -21.407  0.00  0.00    +0.186 A 
ATOM      7  C   UNL     1      32.669  -9.631 -22.730  0.00  0.00    +0.101 C 
ATOM      8  C   UNL     1      31.507 -10.712 -20.894  0.00  0.00    +0.042 C 
ATOM      9  C   UNL     1      31.799  -9.560 -21.513  0.00  0.00    +0.024 C 
ENDROOT
BRANCH   7  10
ATOM     10  C   UNL     1      32.984  -8.341 -23.399  0.00  0.00    +0.019 C 
ATOM     11  C   UNL     1      31.953  -7.499 -23.811  0.00  0.00    +0.002 C 
ATOM     12  C   UNL     1      34.313  -7.974 -23.612  0.00  0.00    +0.002 C 
ATOM     13  C   UNL     1      32.249  -6.288 -24.437  0.00  0.00    +0.000 C 
ATOM     14  C   UNL     1      34.610  -6.763 -24.238  0.00  0.00    +0.000 C 
ATOM     15  C   UNL     1      33.578  -5.920 -24.651  0.00  0.00    +0.000 C 
ENDBRANCH   7  10
BRANCH   5  16
ATOM     16  C   UNL     1      34.003 -13.514 -23.995  0.00  0.00    +0.272 C 
BRANCH  16  17
ATOM     17  O   UNL     1      34.970 -14.473 -23.573  0.00  0.00    -0.467 OA
BRANCH  17  20
ATOM     18  N   UNL     1      34.359 -18.370 -24.848  0.00  0.00    -0.248 NA
ATOM     19  C   UNL     1      34.982 -16.839 -23.096  0.00  0.00    +0.030 C 
ATOM     20  C   UNL     1      34.776 -15.763 -23.970  0.00  0.00    +0.138 C 
ATOM     21  C   UNL     1      34.759 -18.143 -23.583  0.00  0.00    +0.066 C 
ATOM     22  C   UNL     1      35.399 -16.639 -21.769  0.00  0.00    +0.059 C 
ATOM     23  C   UNL     1      34.964 -19.211 -22.714  0.00  0.00    +0.109 C 
ATOM     24  C   UNL     1      34.363 -15.994 -25.275  0.00  0.00    +0.057 C 
ATOM     25  C   UNL     1      35.379 -19.013 -21.395  0.00  0.00    +0.118 C 
ATOM     26  C   UNL     1      35.597 -17.724 -20.922  0.00  0.00    +0.011 C 
ATOM     27  C   UNL     1      34.170 -17.306 -25.661  0.00  0.00    +0.102 C 
BRANCH  25  28
ATOM     28  O   UNL     1      35.568 -20.081 -20.574  0.00  0.00    -0.476 OA
ATOM     29  C   UNL     1      34.415 -20.852 -20.235  0.00  0.00    +0.252 C 
ENDBRANCH  25  28
ENDBRANCH  17  20
ENDBRANCH  16  17
ENDBRANCH   5  16
TORSDOF 5
ENDMDL
MODEL 5
REMARK VINA RESULT:     -12.9      3.970      7.783
REMARK  Name = 24864821
REMARK  5 active torsions:
REMARK  status: ('A' for Active; 'I' for Inactive)
REMARK    1  A    between atoms: C_5  and  C_16
REMARK    2  A    between atoms: C_7  and  C_10
REMARK    3  A    between atoms: C_16  and  O_17
REMARK    4  A    between atoms: O_17  and  C_20
REMARK    5  A    between atoms: C_25  and  O_28
REMARK                            x       y       z     vdW  Elec       q    Type
REMARK                         _______ _______ _______ _____ _____    ______ ____
ROOT
ATOM      1  N   UNL     1      34.691 -16.829 -23.458  0.00  0.00    -0.191 N 
ATOM      2  N   UNL     1      34.240 -15.777 -22.731  0.00  0.00    -0.163 NA
ATOM      3  N   UNL     1      35.632 -18.736 -23.987  0.00  0.00    -0.128 NA
ATOM      4  N   UNL     1      35.136 -18.165 -25.142  0.00  0.00    -0.127 NA
ATOM      5  C   UNL     1      35.358 -17.924 -22.992  0.00  0.00    +0.208 A 
ATOM      6  C   UNL     1      34.573 -17.022 -24.815  0.00  0.00    +0.186 A 
ATOM      7  C   UNL     1      33.626 -14.872 -23.440  0.00  0.00    +0.101 C 
ATOM      8  C   UNL     1      33.921 -16.019 -25.558  0.00  0.00    +0.042 C 
ATOM      9  C   UNL     1      33.439 -14.941 -24.925  0.00  0.00    +0.024 C 
ENDROOT
BRANCH   7  10
ATOM     10  C   UNL     1      33.080 -13.670 -22.756  0.00  0.00    +0.019 C 
ATOM     11  C   UNL     1      33.101 -12.432 -23.398  0.00  0.00    +0.002 C 
ATOM     12  C   UNL     1      32.545 -13.781 -21.473  0.00  0.00    +0.002 C 
ATOM     13  C   UNL     1      32.587 -11.306 -22.757  0.00  0.00    +0.000 C 
ATOM     14  C   UNL     1      32.031 -12.655 -20.832  0.00  0.00    +0.000 C 
ATOM     15  C   UNL     1      32.052 -11.416 -21.473  0.00  0.00    +0.000 C 
ENDBRANCH   7  10
BRANCH   5  16
ATOM     16  C   UNL     1      35.700 -18.121 -21.544  0.00  0.00    +0.272 C 
BRANCH  16  17
ATOM     17  O   UNL     1      35.970 -19.502 -21.314  0.00  0.00    -0.467 OA
BRANCH  17  20
ATOM     18  N   UNL     1      32.944 -21.687 -19.508  0.00  0.00    -0.248 NA
ATOM     19  C   UNL     1      35.269 -21.061 -19.610  0.00  0.00    +0.030 C 
ATOM     20  C   UNL     1      34.991 -20.230 -20.704  0.00  0.00    +0.138 C 
ATOM     21  C   UNL     1      34.201 -21.781 -19.035  0.00  0.00    +0.066 C 
ATOM     22  C   UNL     1      36.569 -21.184 -19.091  0.00  0.00    +0.059 C 
ATOM     23  C   UNL     1      34.478 -22.607 -17.949  0.00  0.00    +0.109 C 
ATOM     24  C   UNL     1      33.697 -20.130 -21.194  0.00  0.00    +0.057 C 
ATOM     25  C   UNL     1      35.770 -22.729 -17.432  0.00  0.00    +0.118 C 
ATOM     26  C   UNL     1      36.817 -22.017 -18.004  0.00  0.00    +0.011 C 
ATOM     27  C   UNL     1      32.718 -20.873 -20.565  0.00  0.00    +0.102 C 
BRANCH  25  28
ATOM     28  O   UNL     1      36.001 -23.545 -16.367  0.00  0.00    -0.476 OA
ATOM     29  C   UNL     1      37.169 -23.281 -15.590  0.00  0.00    +0.252 C 
ENDBRANCH  25  28
ENDBRANCH  17  20
ENDBRANCH  16  17
ENDBRANCH   5  16
TORSDOF 5
ENDMDL
MODEL 6
REMARK VINA RESULT:     -12.6      2.304      9.561
REMARK  Name = 24864821
REMARK  5 active torsions:
REMARK  status: ('A' for Active; 'I' for Inactive)
REMARK    1  A    between atoms: C_5  and  C_16
REMARK    2  A    between atoms: C_7  and  C_10
REMARK    3  A    between atoms: C_16  and  O_17
REMARK    4  A    between atoms: O_17  and  C_20
REMARK    5  A    between atoms: C_25  and  O_28
REMARK                            x       y       z     vdW  Elec       q    Type
REMARK                         _______ _______ _______ _____ _____    ______ ____
ROOT
ATOM      1  N   UNL     1      33.927 -15.170 -23.654  0.00  0.00    -0.191 N 
ATOM      2  N   UNL     1      34.347 -16.043 -22.705  0.00  0.00    -0.163 NA
ATOM      3  N   UNL     1      33.076 -13.389 -24.607  0.00  0.00    -0.128 NA
ATOM      4  N   UNL     1      33.493 -14.251 -25.600  0.00  0.00    -0.127 NA
ATOM      5  C   UNL     1      33.342 -13.954 -23.451  0.00  0.00    +0.208 A 
ATOM      6  C   UNL     1      34.003 -15.315 -25.020  0.00  0.00    +0.186 A 
ATOM      7  C   UNL     1      34.880 -17.130 -23.189  0.00  0.00    +0.101 C 
ATOM      8  C   UNL     1      34.568 -16.508 -25.513  0.00  0.00    +0.042 C 
ATOM      9  C   UNL     1      35.012 -17.431 -24.650  0.00  0.00    +0.024 C 
ENDROOT
BRANCH   7  10
ATOM     10  C   UNL     1      35.383 -18.164 -22.248  0.00  0.00    +0.019 C 
ATOM     11  C   UNL     1      36.732 -18.188 -21.893  0.00  0.00    +0.002 C 
ATOM     12  C   UNL     1      34.506 -19.110 -21.717  0.00  0.00    +0.002 C 
ATOM     13  C   UNL     1      37.202 -19.158 -21.009  0.00  0.00    +0.000 C 
ATOM     14  C   UNL     1      34.976 -20.080 -20.833  0.00  0.00    +0.000 C 
ATOM     15  C   UNL     1      36.325 -20.105 -20.478  0.00  0.00    +0.000 C 
ENDBRANCH   7  10
BRANCH   5  16
ATOM     16  C   UNL     1      33.069 -13.393 -22.086  0.00  0.00    +0.272 C 
BRANCH  16  17
ATOM     17  O   UNL     1      31.996 -12.458 -22.174  0.00  0.00    -0.467 OA
BRANCH  17  20
ATOM     18  N   UNL     1      32.169  -9.197 -19.619  0.00  0.00    -0.248 NA
ATOM     19  C   UNL     1      32.203 -10.073 -21.863  0.00  0.00    +0.030 C 
ATOM     20  C   UNL     1      32.055 -11.371 -21.353  0.00  0.00    +0.138 C 
ATOM     21  C   UNL     1      32.256  -9.002 -20.948  0.00  0.00    +0.066 C 
ATOM     22  C   UNL     1      32.297  -9.832 -23.244  0.00  0.00    +0.059 C 
ATOM     23  C   UNL     1      32.403  -7.713 -21.455  0.00  0.00    +0.109 C 
ATOM     24  C   UNL     1      31.965 -11.576 -19.984  0.00  0.00    +0.057 C 
ATOM     25  C   UNL     1      32.497  -7.473 -22.828  0.00  0.00    +0.118 C 
ATOM     26  C   UNL     1      32.444  -8.534 -23.724  0.00  0.00    +0.011 C 
ATOM     27  C   UNL     1      32.027 -10.464 -19.166  0.00  0.00    +0.102 C 
BRANCH  25  28
ATOM     28  O   UNL     1      32.638  -6.200 -23.287  0.00  0.00    -0.476 OA
ATOM     29  C   UNL     1      31.448  -5.516 -23.681  0.00  0.00    +0.252 C 
ENDBRANCH  25  28
ENDBRANCH  17  20
ENDBRANCH  16  17
ENDBRANCH   5  16
TORSDOF 5
ENDMDL
MODEL 7
REMARK VINA RESULT:     -12.4      2.858      9.893
REMARK  Name = 24864821
REMARK  5 active torsions:
REMARK  status: ('A' for Active; 'I' for Inactive)
REMARK    1  A    between atoms: C_5  and  C_16
REMARK    2  A    between atoms: C_7  and  C_10
REMARK    3  A    between atoms: C_16  and  O_17
REMARK    4  A    between atoms: O_17  and  C_20
REMARK    5  A    between atoms: C_25  and  O_28
REMARK                            x       y       z     vdW  Elec       q    Type
REMARK                         _______ _______ _______ _____ _____    ______ ____
ROOT
ATOM      1  N   UNL     1      34.617 -17.115 -23.631  0.00  0.00    -0.191 N 
ATOM      2  N   UNL     1      34.689 -17.809 -22.468  0.00  0.00    -0.163 NA
ATOM      3  N   UNL     1      34.405 -15.460 -25.052  0.00  0.00    -0.128 NA
ATOM      4  N   UNL     1      34.618 -16.619 -25.770  0.00  0.00    -0.127 NA
ATOM      5  C   UNL     1      34.407 -15.775 -23.776  0.00  0.00    +0.208 A 
ATOM      6  C   UNL     1      34.744 -17.606 -24.910  0.00  0.00    +0.186 A 
ATOM      7  C   UNL     1      34.909 -19.084 -22.629  0.00  0.00    +0.101 C 
ATOM      8  C   UNL     1      34.963 -18.990 -25.053  0.00  0.00    +0.042 C 
ATOM      9  C   UNL     1      35.050 -19.759 -23.959  0.00  0.00    +0.024 C 
ENDROOT
BRANCH   7  10
ATOM     10  C   UNL     1      35.012 -19.953 -21.427  0.00  0.00    +0.019 C 
ATOM     11  C   UNL     1      36.262 -20.240 -20.880  0.00  0.00    +0.002 C 
ATOM     12  C   UNL     1      33.859 -20.480 -20.847  0.00  0.00    +0.002 C 
ATOM     13  C   UNL     1      36.359 -21.054 -19.751  0.00  0.00    +0.000 C 
ATOM     14  C   UNL     1      33.955 -21.293 -19.718  0.00  0.00    +0.000 C 
ATOM     15  C   UNL     1      35.205 -21.582 -19.170  0.00  0.00    +0.000 C 
ENDBRANCH   7  10
BRANCH   5  16
ATOM     16  C   UNL     1      34.216 -14.844 -22.615  0.00  0.00    +0.272 C 
BRANCH  16  17
ATOM     17  O   UNL     1      33.006 -14.111 -22.801  0.00  0.00    -0.467 OA
BRANCH  17  20
ATOM     18  N   UNL     1      33.403 -10.076 -23.668  0.00  0.00    -0.248 NA
ATOM     19  C   UNL     1      32.666 -11.808 -22.164  0.00  0.00    +0.030 C 
ATOM     20  C   UNL     1      33.126 -12.779 -23.065  0.00  0.00    +0.138 C 
ATOM     21  C   UNL     1      32.827 -10.451 -22.510  0.00  0.00    +0.066 C 
ATOM     22  C   UNL     1      32.060 -12.163 -20.947  0.00  0.00    +0.059 C 
ATOM     23  C   UNL     1      32.370  -9.488 -21.615  0.00  0.00    +0.109 C 
ATOM     24  C   UNL     1      33.720 -12.396 -24.259  0.00  0.00    +0.057 C 
ATOM     25  C   UNL     1      31.767  -9.840 -20.405  0.00  0.00    +0.118 C 
ATOM     26  C   UNL     1      31.612 -11.180 -20.071  0.00  0.00    +0.011 C 
ATOM     27  C   UNL     1      33.834 -11.043 -24.510  0.00  0.00    +0.102 C 
BRANCH  25  28
ATOM     28  O   UNL     1      31.334  -8.870 -19.554  0.00  0.00    -0.476 OA
ATOM     29  C   UNL     1      31.848  -7.554 -19.754  0.00  0.00    +0.252 C 
ENDBRANCH  25  28
ENDBRANCH  17  20
ENDBRANCH  16  17
ENDBRANCH   5  16
TORSDOF 5
ENDMDL
MODEL 8
REMARK VINA RESULT:     -12.2      2.045     10.073
REMARK  Name = 24864821
REMARK  5 active torsions:
REMARK  status: ('A' for Active; 'I' for Inactive)
REMARK    1  A    between atoms: C_5  and  C_16
REMARK    2  A    between atoms: C_7  and  C_10
REMARK    3  A    between atoms: C_16  and  O_17
REMARK    4  A    between atoms: O_17  and  C_20
REMARK    5  A    between atoms: C_25  and  O_28
REMARK                            x       y       z     vdW  Elec       q    Type
REMARK                         _______ _______ _______ _____ _____    ______ ____
ROOT
ATOM      1  N   UNL     1      34.541 -16.874 -23.809  0.00  0.00    -0.191 N 
ATOM      2  N   UNL     1      34.658 -17.572 -22.651  0.00  0.00    -0.163 NA
ATOM      3  N   UNL     1      34.264 -15.216 -25.215  0.00  0.00    -0.128 NA
ATOM      4  N   UNL     1      34.465 -16.370 -25.944  0.00  0.00    -0.127 NA
ATOM      5  C   UNL     1      34.311 -15.536 -23.941  0.00  0.00    +0.208 A 
ATOM      6  C   UNL     1      34.631 -17.359 -25.093  0.00  0.00    +0.186 A 
ATOM      7  C   UNL     1      34.887 -18.844 -22.825  0.00  0.00    +0.101 C 
ATOM      8  C   UNL     1      34.860 -18.740 -25.249  0.00  0.00    +0.042 C 
ATOM      9  C   UNL     1      34.991 -19.512 -24.162  0.00  0.00    +0.024 C 
ENDROOT
BRANCH   7  10
ATOM     10  C   UNL     1      35.039 -19.716 -21.631  0.00  0.00    +0.019 C 
ATOM     11  C   UNL     1      33.915 -20.289 -21.037  0.00  0.00    +0.002 C 
ATOM     12  C   UNL     1      36.308 -19.964 -21.106  0.00  0.00    +0.002 C 
ATOM     13  C   UNL     1      34.059 -21.109 -19.919  0.00  0.00    +0.000 C 
ATOM     14  C   UNL     1      36.452 -20.784 -19.988  0.00  0.00    +0.000 C 
ATOM     15  C   UNL     1      35.328 -21.357 -19.392  0.00  0.00    +0.000 C 
ENDBRANCH   7  10
BRANCH   5  16
ATOM     16  C   UNL     1      34.147 -14.612 -22.770  0.00  0.00    +0.272 C 
BRANCH  16  17
ATOM     17  O   UNL     1      33.405 -13.467 -23.182  0.00  0.00    -0.467 OA
BRANCH  17  20
ATOM     18  N   UNL     1      31.794 -11.152 -20.143  0.00  0.00    -0.248 NA
ATOM     19  C   UNL     1      32.644 -11.317 -22.391  0.00  0.00    +0.030 C 
ATOM     20  C   UNL     1      32.876 -12.686 -22.197  0.00  0.00    +0.138 C 
ATOM     21  C   UNL     1      32.095 -10.578 -21.322  0.00  0.00    +0.066 C 
ATOM     22  C   UNL     1      32.947 -10.685 -23.609  0.00  0.00    +0.059 C 
ATOM     23  C   UNL     1      31.866  -9.219 -21.515  0.00  0.00    +0.109 C 
ATOM     24  C   UNL     1      32.567 -13.280 -20.982  0.00  0.00    +0.057 C 
ATOM     25  C   UNL     1      32.166  -8.590 -22.726  0.00  0.00    +0.118 C 
ATOM     26  C   UNL     1      32.707  -9.324 -23.775  0.00  0.00    +0.011 C 
ATOM     27  C   UNL     1      32.032 -12.476 -19.996  0.00  0.00    +0.102 C 
BRANCH  25  28
ATOM     28  O   UNL     1      31.926  -7.259 -22.879  0.00  0.00    -0.476 OA
ATOM     29  C   UNL     1      32.372  -6.654 -24.092  0.00  0.00    +0.252 C 
ENDBRANCH  25  28
ENDBRANCH  17  20
ENDBRANCH  16  17
ENDBRANCH   5  16
TORSDOF 5
ENDMDL
MODEL 9
REMARK VINA RESULT:     -12.1      5.812     12.473
REMARK  Name = 24864821
REMARK  5 active torsions:
REMARK  status: ('A' for Active; 'I' for Inactive)
REMARK    1  A    between atoms: C_5  and  C_16
REMARK    2  A    between atoms: C_7  and  C_10
REMARK    3  A    between atoms: C_16  and  O_17
REMARK    4  A    between atoms: O_17  and  C_20
REMARK    5  A    between atoms: C_25  and  O_28
REMARK                            x       y       z     vdW  Elec       q    Type
REMARK                         _______ _______ _______ _____ _____    ______ ____
ROOT
ATOM      1  N   UNL     1      34.367 -22.007 -18.698  0.00  0.00    -0.191 N 
ATOM      2  N   UNL     1      35.435 -22.417 -17.968  0.00  0.00    -0.163 NA
ATOM      3  N   UNL     1      33.164 -21.055 -20.263  0.00  0.00    -0.128 NA
ATOM      4  N   UNL     1      32.308 -21.702 -19.395  0.00  0.00    -0.127 NA
ATOM      5  C   UNL     1      34.390 -21.247 -19.831  0.00  0.00    +0.208 A 
ATOM      6  C   UNL     1      33.038 -22.271 -18.460  0.00  0.00    +0.186 A 
ATOM      7  C   UNL     1      35.117 -23.144 -16.934  0.00  0.00    +0.101 C 
ATOM      8  C   UNL     1      32.724 -23.044 -17.326  0.00  0.00    +0.042 C 
ATOM      9  C   UNL     1      33.713 -23.495 -16.543  0.00  0.00    +0.024 C 
ENDROOT
BRANCH   7  10
ATOM     10  C   UNL     1      36.200 -23.658 -16.056  0.00  0.00    +0.019 C 
ATOM     11  C   UNL     1      35.959 -24.741 -15.211  0.00  0.00    +0.002 C 
ATOM     12  C   UNL     1      37.459 -23.058 -16.079  0.00  0.00    +0.002 C 
ATOM     13  C   UNL     1      36.977 -25.223 -14.389  0.00  0.00    +0.000 C 
ATOM     14  C   UNL     1      38.477 -23.541 -15.257  0.00  0.00    +0.000 C 
ATOM     15  C   UNL     1      38.236 -24.624 -14.411  0.00  0.00    +0.000 C 
ENDBRANCH   7  10
BRANCH   5  16
ATOM     16  C   UNL     1      35.657 -20.735 -20.450  0.00  0.00    +0.272 C 
BRANCH  16  17
ATOM     17  O   UNL     1      35.560 -19.320 -20.604  0.00  0.00    -0.467 OA
BRANCH  17  20
ATOM     18  N   UNL     1      34.953 -17.957 -24.473  0.00  0.00    -0.248 NA
ATOM     19  C   UNL     1      35.087 -17.496 -22.112  0.00  0.00    +0.030 C 
ATOM     20  C   UNL     1      35.357 -18.850 -21.868  0.00  0.00    +0.138 C 
ATOM     21  C   UNL     1      34.889 -17.088 -23.447  0.00  0.00    +0.066 C 
ATOM     22  C   UNL     1      35.013 -16.560 -21.066  0.00  0.00    +0.059 C 
ATOM     23  C   UNL     1      34.620 -15.743 -23.689  0.00  0.00    +0.109 C 
ATOM     24  C   UNL     1      35.424 -19.749 -22.923  0.00  0.00    +0.057 C 
ATOM     25  C   UNL     1      34.547 -14.813 -22.649  0.00  0.00    +0.118 C 
ATOM     26  C   UNL     1      34.743 -15.222 -21.336  0.00  0.00    +0.011 C 
ATOM     27  C   UNL     1      35.216 -19.255 -24.196  0.00  0.00    +0.102 C 
BRANCH  25  28
ATOM     28  O   UNL     1      34.284 -13.506 -22.924  0.00  0.00    -0.476 OA
ATOM     29  C   UNL     1      33.924 -13.185 -24.267  0.00  0.00    +0.252 C 
ENDBRANCH  25  28
ENDBRANCH  17  20
ENDBRANCH  16  17
ENDBRANCH   5  16
TORSDOF 5
ENDMDL
