MODEL 1
REMARK VINA RESULT:     -14.3      0.000      0.000
REMARK  Name = 10224181
REMARK  7 active torsions:
REMARK  status: ('A' for Active; 'I' for Inactive)
REMARK    1  A    between atoms: N_3  and  C_23
REMARK    2  A    between atoms: C_12  and  C_14
REMARK    3  A    between atoms: C_15  and  C_16
REMARK    4  A    between atoms: C_16  and  C_17
REMARK    5  A    between atoms: C_23  and  C_24
REMARK    6  A    between atoms: C_29  and  C_31
REMARK    7  A    between atoms: C_31  and  O_32
REMARK                            x       y       z     vdW  Elec       q    Type
REMARK                         _______ _______ _______ _____ _____    ______ ____
ROOT
ATOM      1  O   UNL     1      35.327 -16.331 -20.253  0.00  0.00    -0.267 OA
ATOM      2  O   UNL     1      35.724 -18.565 -24.309  0.00  0.00    -0.246 OA
ATOM      3  N   UNL     1      35.544 -17.473 -22.276  0.00  0.00    -0.244 N 
ATOM      4  N   UNL     1      34.443 -16.636 -24.222  0.00  0.00    -0.279 N 
ATOM      5  C   UNL     1      33.918 -15.550 -23.462  0.00  0.00    +0.069 A 
ATOM      6  C   UNL     1      34.217 -15.441 -22.103  0.00  0.00    +0.073 A 
ATOM      7  C   UNL     1      35.075 -16.444 -21.450  0.00  0.00    +0.266 A 
ATOM      8  C   UNL     1      35.267 -17.622 -23.654  0.00  0.00    +0.334 A 
ATOM      9  C   UNL     1      33.710 -14.378 -21.338  0.00  0.00    +0.014 C 
ATOM     10  C   UNL     1      33.094 -14.566 -24.040  0.00  0.00    +0.018 C 
ATOM     11  C   UNL     1      34.113 -16.727 -25.644  0.00  0.00    +0.135 C 
ATOM     12  C   UNL     1      32.897 -13.415 -21.928  0.00  0.00    +0.042 C 
ATOM     13  C   UNL     1      32.590 -13.509 -23.279  0.00  0.00    +0.010 C 
ENDROOT
BRANCH  12  14
ATOM     14  C   UNL     1      32.382 -12.335 -21.148  0.00  0.00    -0.064 C 
ATOM     15  C   UNL     1      31.951 -11.422 -20.490  0.00  0.00    -0.082 C 
BRANCH  15  16
ATOM     16  C   UNL     1      31.430 -10.309 -19.689  0.00  0.00    +0.103 C 
BRANCH  16  17
ATOM     17  C   UNL     1      31.766  -8.971 -20.296  0.00  0.00    -0.009 C 
ATOM     18  C   UNL     1      31.926  -7.867 -19.471  0.00  0.00    -0.003 C 
ATOM     19  C   UNL     1      31.912  -8.864 -21.672  0.00  0.00    -0.003 C 
ATOM     20  C   UNL     1      32.239  -6.630 -20.034  0.00  0.00    -0.000 C 
ATOM     21  C   UNL     1      32.224  -7.627 -22.234  0.00  0.00    -0.000 C 
ATOM     22  C   UNL     1      32.387  -6.510 -21.416  0.00  0.00    -0.000 C 
ENDBRANCH  16  17
ENDBRANCH  15  16
ENDBRANCH  12  14
BRANCH   3  23
ATOM     23  C   UNL     1      36.398 -18.484 -21.658  0.00  0.00    +0.140 C 
BRANCH  23  24
ATOM     24  C   UNL     1      35.594 -19.555 -20.971  0.00  0.00    +0.001 C 
ATOM     25  C   UNL     1      36.244 -20.513 -20.205  0.00  0.00    -0.002 C 
ATOM     26  C   UNL     1      34.213 -19.569 -21.112  0.00  0.00    -0.002 C 
ATOM     27  C   UNL     1      35.499 -21.505 -19.569  0.00  0.00    +0.006 C 
ATOM     28  C   UNL     1      33.468 -20.561 -20.475  0.00  0.00    +0.006 C 
ATOM     29  C   UNL     1      34.111 -21.530 -19.704  0.00  0.00    +0.075 C 
BRANCH  29  31
ATOM     30  O   UNL     1      32.313 -22.373 -18.369  0.00  0.00    -0.245 OA
ATOM     31  C   UNL     1      33.333 -22.564 -19.039  0.00  0.00    +0.338 C 
BRANCH  31  32
ATOM     32  O   UNL     1      33.852 -23.808 -19.229  0.00  0.00    -0.477 OA
ATOM     33  H   UNL     1      34.579 -24.096 -18.713  0.00  0.00    +0.295 HD
ENDBRANCH  31  32
ENDBRANCH  29  31
ENDBRANCH  23  24
ENDBRANCH   3  23
TORSDOF 7
ENDMDL
MODEL 2
REMARK VINA RESULT:     -12.8      5.551      9.548
REMARK  Name = 10224181
REMARK  7 active torsions:
REMARK  status: ('A' for Active; 'I' for Inactive)
REMARK    1  A    between atoms: N_3  and  C_23
REMARK    2  A    between atoms: C_12  and  C_14
REMARK    3  A    between atoms: C_15  and  C_16
REMARK    4  A    between atoms: C_16  and  C_17
REMARK    5  A    between atoms: C_23  and  C_24
REMARK    6  A    between atoms: C_29  and  C_31
REMARK    7  A    between atoms: C_31  and  O_32
REMARK                            x       y       z     vdW  Elec       q    Type
REMARK                         _______ _______ _______ _____ _____    ______ ____
ROOT
ATOM      1  O   UNL     1      32.386 -23.689 -17.279  0.00  0.00    -0.267 OA
ATOM      2  O   UNL     1      34.718 -24.613 -13.366  0.00  0.00    -0.246 OA
ATOM      3  N   UNL     1      33.532 -24.168 -15.303  0.00  0.00    -0.244 N 
ATOM      4  N   UNL     1      35.773 -23.390 -15.026  0.00  0.00    -0.279 N 
ATOM      5  C   UNL     1      35.728 -22.789 -16.319  0.00  0.00    +0.069 A 
ATOM      6  C   UNL     1      34.571 -22.889 -17.094  0.00  0.00    +0.073 A 
ATOM      7  C   UNL     1      33.395 -23.612 -16.581  0.00  0.00    +0.266 A 
ATOM      8  C   UNL     1      34.683 -24.091 -14.486  0.00  0.00    +0.334 A 
ATOM      9  C   UNL     1      34.507 -22.303 -18.369  0.00  0.00    +0.014 C 
ATOM     10  C   UNL     1      36.824 -22.087 -16.853  0.00  0.00    +0.018 C 
ATOM     11  C   UNL     1      36.997 -23.271 -14.236  0.00  0.00    +0.135 C 
ATOM     12  C   UNL     1      35.602 -21.613 -18.880  0.00  0.00    +0.042 C 
ATOM     13  C   UNL     1      36.761 -21.505 -18.121  0.00  0.00    +0.010 C 
ENDROOT
BRANCH  12  14
ATOM     14  C   UNL     1      35.535 -21.019 -20.177  0.00  0.00    -0.064 C 
ATOM     15  C   UNL     1      35.474 -20.518 -21.271  0.00  0.00    -0.082 C 
BRANCH  15  16
ATOM     16  C   UNL     1      35.398 -19.911 -22.605  0.00  0.00    +0.103 C 
BRANCH  16  17
ATOM     17  C   UNL     1      35.202 -18.418 -22.533  0.00  0.00    -0.009 C 
ATOM     18  C   UNL     1      35.072 -17.805 -21.296  0.00  0.00    -0.003 C 
ATOM     19  C   UNL     1      35.156 -17.680 -23.707  0.00  0.00    -0.003 C 
ATOM     20  C   UNL     1      34.892 -16.424 -21.230  0.00  0.00    -0.000 C 
ATOM     21  C   UNL     1      34.975 -16.298 -23.641  0.00  0.00    -0.000 C 
ATOM     22  C   UNL     1      34.843 -15.670 -22.403  0.00  0.00    -0.000 C 
ENDBRANCH  16  17
ENDBRANCH  15  16
ENDBRANCH  12  14
BRANCH   3  23
ATOM     23  C   UNL     1      32.383 -24.891 -14.767  0.00  0.00    +0.140 C 
BRANCH  23  24
ATOM     24  C   UNL     1      31.082 -24.232 -15.137  0.00  0.00    +0.001 C 
ATOM     25  C   UNL     1      30.121 -24.956 -15.830  0.00  0.00    -0.002 C 
ATOM     26  C   UNL     1      30.860 -22.909 -14.780  0.00  0.00    -0.002 C 
ATOM     27  C   UNL     1      28.915 -24.345 -16.173  0.00  0.00    +0.006 C 
ATOM     28  C   UNL     1      29.654 -22.298 -15.123  0.00  0.00    +0.006 C 
ATOM     29  C   UNL     1      28.681 -23.016 -15.820  0.00  0.00    +0.075 C 
BRANCH  29  31
ATOM     30  O   UNL     1      26.378 -22.442 -15.522  0.00  0.00    -0.245 OA
ATOM     31  C   UNL     1      27.423 -22.379 -16.177  0.00  0.00    +0.338 C 
BRANCH  31  32
ATOM     32  O   UNL     1      27.506 -21.681 -17.343  0.00  0.00    -0.477 OA
ATOM     33  H   UNL     1      28.234 -21.113 -17.498  0.00  0.00    +0.295 HD
ENDBRANCH  31  32
ENDBRANCH  29  31
ENDBRANCH  23  24
ENDBRANCH   3  23
TORSDOF 7
ENDMDL
MODEL 3
REMARK VINA RESULT:     -11.9      5.544     12.089
REMARK  Name = 10224181
REMARK  7 active torsions:
REMARK  status: ('A' for Active; 'I' for Inactive)
REMARK    1  A    between atoms: N_3  and  C_23
REMARK    2  A    between atoms: C_12  and  C_14
REMARK    3  A    between atoms: C_15  and  C_16
REMARK    4  A    between atoms: C_16  and  C_17
REMARK    5  A    between atoms: C_23  and  C_24
REMARK    6  A    between atoms: C_29  and  C_31
REMARK    7  A    between atoms: C_31  and  O_32
REMARK                            x       y       z     vdW  Elec       q    Type
REMARK                         _______ _______ _______ _____ _____    ______ ____
ROOT
ATOM      1  O   UNL     1      35.367  -9.468 -24.569  0.00  0.00    -0.267 OA
ATOM      2  O   UNL     1      33.029  -6.953 -21.437  0.00  0.00    -0.246 OA
ATOM      3  N   UNL     1      34.210  -8.181 -23.004  0.00  0.00    -0.244 N 
ATOM      4  N   UNL     1      32.478  -9.187 -21.705  0.00  0.00    -0.279 N 
ATOM      5  C   UNL     1      32.704 -10.433 -22.362  0.00  0.00    +0.069 A 
ATOM      6  C   UNL     1      33.691 -10.534 -23.343  0.00  0.00    +0.073 A 
ATOM      7  C   UNL     1      34.503  -9.359 -23.702  0.00  0.00    +0.266 A 
ATOM      8  C   UNL     1      33.221  -8.034 -22.005  0.00  0.00    +0.334 A 
ATOM      9  C   UNL     1      33.929 -11.752 -24.002  0.00  0.00    +0.014 C 
ATOM     10  C   UNL     1      31.956 -11.584 -22.055  0.00  0.00    +0.018 C 
ATOM     11  C   UNL     1      31.437  -9.109 -20.681  0.00  0.00    +0.135 C 
ATOM     12  C   UNL     1      33.177 -12.879 -23.684  0.00  0.00    +0.042 C 
ATOM     13  C   UNL     1      32.191 -12.795 -22.709  0.00  0.00    +0.010 C 
ENDROOT
BRANCH  12  14
ATOM     14  C   UNL     1      33.421 -14.117 -24.355  0.00  0.00    -0.064 C 
ATOM     15  C   UNL     1      33.627 -15.162 -24.917  0.00  0.00    -0.082 C 
BRANCH  15  16
ATOM     16  C   UNL     1      33.878 -16.437 -25.599  0.00  0.00    +0.103 C 
BRANCH  16  17
ATOM     17  C   UNL     1      34.524 -17.447 -24.685  0.00  0.00    -0.009 C 
ATOM     18  C   UNL     1      35.261 -17.008 -23.595  0.00  0.00    -0.003 C 
ATOM     19  C   UNL     1      34.370 -18.800 -24.947  0.00  0.00    -0.003 C 
ATOM     20  C   UNL     1      35.857 -17.943 -22.749  0.00  0.00    -0.000 C 
ATOM     21  C   UNL     1      34.966 -19.735 -24.102  0.00  0.00    -0.000 C 
ATOM     22  C   UNL     1      35.710 -19.306 -23.003  0.00  0.00    -0.000 C 
ENDBRANCH  16  17
ENDBRANCH  15  16
ENDBRANCH  12  14
BRANCH   3  23
ATOM     23  C   UNL     1      34.999  -6.998 -23.337  0.00  0.00    +0.140 C 
BRANCH  23  24
ATOM     24  C   UNL     1      34.431  -6.259 -24.519  0.00  0.00    +0.001 C 
ATOM     25  C   UNL     1      33.107  -5.840 -24.491  0.00  0.00    -0.002 C 
ATOM     26  C   UNL     1      35.237  -6.006 -25.620  0.00  0.00    -0.002 C 
ATOM     27  C   UNL     1      32.581  -5.155 -25.586  0.00  0.00    +0.006 C 
ATOM     28  C   UNL     1      34.711  -5.321 -26.714  0.00  0.00    +0.006 C 
ATOM     29  C   UNL     1      33.382  -4.896 -26.698  0.00  0.00    +0.075 C 
BRANCH  29  31
ATOM     30  O   UNL     1      33.147  -4.369 -29.020  0.00  0.00    -0.245 OA
ATOM     31  C   UNL     1      32.833  -4.181 -27.840  0.00  0.00    +0.338 C 
BRANCH  31  32
ATOM     32  O   UNL     1      31.908  -3.251 -27.476  0.00  0.00    -0.477 OA
ATOM     33  H   UNL     1      31.856  -2.967 -26.585  0.00  0.00    +0.295 HD
ENDBRANCH  31  32
ENDBRANCH  29  31
ENDBRANCH  23  24
ENDBRANCH   3  23
TORSDOF 7
ENDMDL
MODEL 4
REMARK VINA RESULT:     -11.7      5.663      9.805
REMARK  Name = 10224181
REMARK  7 active torsions:
REMARK  status: ('A' for Active; 'I' for Inactive)
REMARK    1  A    between atoms: N_3  and  C_23
REMARK    2  A    between atoms: C_12  and  C_14
REMARK    3  A    between atoms: C_15  and  C_16
REMARK    4  A    between atoms: C_16  and  C_17
REMARK    5  A    between atoms: C_23  and  C_24
REMARK    6  A    between atoms: C_29  and  C_31
REMARK    7  A    between atoms: C_31  and  O_32
REMARK                            x       y       z     vdW  Elec       q    Type
REMARK                         _______ _______ _______ _____ _____    ______ ____
ROOT
ATOM      1  O   UNL     1      36.540 -22.837 -15.598  0.00  0.00    -0.267 OA
ATOM      2  O   UNL     1      32.796 -24.727 -13.594  0.00  0.00    -0.246 OA
ATOM      3  N   UNL     1      34.678 -23.793 -14.567  0.00  0.00    -0.244 N 
ATOM      4  N   UNL     1      32.569 -23.762 -15.688  0.00  0.00    -0.279 N 
ATOM      5  C   UNL     1      33.162 -23.081 -16.792  0.00  0.00    +0.069 A 
ATOM      6  C   UNL     1      34.521 -22.762 -16.766  0.00  0.00    +0.073 A 
ATOM      7  C   UNL     1      35.346 -23.127 -15.602  0.00  0.00    +0.266 A 
ATOM      8  C   UNL     1      33.306 -24.136 -14.553  0.00  0.00    +0.334 A 
ATOM      9  C   UNL     1      35.123 -22.092 -17.843  0.00  0.00    +0.014 C 
ATOM     10  C   UNL     1      32.417 -22.711 -17.926  0.00  0.00    +0.018 C 
ATOM     11  C   UNL     1      31.144 -24.083 -15.741  0.00  0.00    +0.135 C 
ATOM     12  C   UNL     1      34.368 -21.734 -18.956  0.00  0.00    +0.042 C 
ATOM     13  C   UNL     1      33.015 -22.044 -18.998  0.00  0.00    +0.010 C 
ENDROOT
BRANCH  12  14
ATOM     14  C   UNL     1      34.983 -21.052 -20.051  0.00  0.00    -0.064 C 
ATOM     15  C   UNL     1      35.498 -20.475 -20.975  0.00  0.00    -0.082 C 
BRANCH  15  16
ATOM     16  C   UNL     1      36.122 -19.771 -22.101  0.00  0.00    +0.103 C 
BRANCH  16  17
ATOM     17  C   UNL     1      35.574 -18.377 -22.267  0.00  0.00    -0.009 C 
ATOM     18  C   UNL     1      35.386 -17.579 -21.148  0.00  0.00    -0.003 C 
ATOM     19  C   UNL     1      35.266 -17.913 -23.538  0.00  0.00    -0.003 C 
ATOM     20  C   UNL     1      34.879 -16.289 -21.303  0.00  0.00    -0.000 C 
ATOM     21  C   UNL     1      34.758 -16.623 -23.693  0.00  0.00    -0.000 C 
ATOM     22  C   UNL     1      34.565 -15.811 -22.576  0.00  0.00    -0.000 C 
ENDBRANCH  16  17
ENDBRANCH  15  16
ENDBRANCH  12  14
BRANCH   3  23
ATOM     23  C   UNL     1      35.469 -24.170 -13.399  0.00  0.00    +0.140 C 
BRANCH  23  24
ATOM     24  C   UNL     1      36.798 -24.760 -13.788  0.00  0.00    +0.001 C 
ATOM     25  C   UNL     1      36.845 -25.768 -14.741  0.00  0.00    -0.002 C 
ATOM     26  C   UNL     1      37.958 -24.286 -13.190  0.00  0.00    -0.002 C 
ATOM     27  C   UNL     1      38.077 -26.314 -15.102  0.00  0.00    +0.006 C 
ATOM     28  C   UNL     1      39.189 -24.833 -13.551  0.00  0.00    +0.006 C 
ATOM     29  C   UNL     1      39.249 -25.847 -14.507  0.00  0.00    +0.075 C 
BRANCH  29  31
ATOM     30  O   UNL     1      41.296 -27.025 -14.126  0.00  0.00    -0.245 OA
ATOM     31  C   UNL     1      40.534 -26.416 -14.884  0.00  0.00    +0.338 C 
BRANCH  31  32
ATOM     32  O   UNL     1      40.831 -26.208 -16.196  0.00  0.00    -0.477 OA
ATOM     33  H   UNL     1      40.685 -25.367 -16.581  0.00  0.00    +0.295 HD
ENDBRANCH  31  32
ENDBRANCH  29  31
ENDBRANCH  23  24
ENDBRANCH   3  23
TORSDOF 7
ENDMDL
MODEL 5
REMARK VINA RESULT:     -11.7      1.053      2.016
REMARK  Name = 10224181
REMARK  7 active torsions:
REMARK  status: ('A' for Active; 'I' for Inactive)
REMARK    1  A    between atoms: N_3  and  C_23
REMARK    2  A    between atoms: C_12  and  C_14
REMARK    3  A    between atoms: C_15  and  C_16
REMARK    4  A    between atoms: C_16  and  C_17
REMARK    5  A    between atoms: C_23  and  C_24
REMARK    6  A    between atoms: C_29  and  C_31
REMARK    7  A    between atoms: C_31  and  O_32
REMARK                            x       y       z     vdW  Elec       q    Type
REMARK                         _______ _______ _______ _____ _____    ______ ____
ROOT
ATOM      1  O   UNL     1      35.697 -16.050 -21.008  0.00  0.00    -0.267 OA
ATOM      2  O   UNL     1      35.773 -19.891 -23.624  0.00  0.00    -0.246 OA
ATOM      3  N   UNL     1      35.751 -17.993 -22.299  0.00  0.00    -0.244 N 
ATOM      4  N   UNL     1      34.758 -17.988 -24.471  0.00  0.00    -0.279 N 
ATOM      5  C   UNL     1      34.385 -16.622 -24.301  0.00  0.00    +0.069 A 
ATOM      6  C   UNL     1      34.704 -15.954 -23.118  0.00  0.00    +0.073 A 
ATOM      7  C   UNL     1      35.426 -16.655 -22.043  0.00  0.00    +0.266 A 
ATOM      8  C   UNL     1      35.448 -18.707 -23.481  0.00  0.00    +0.334 A 
ATOM      9  C   UNL     1      34.345 -14.609 -22.932  0.00  0.00    +0.014 C 
ATOM     10  C   UNL     1      33.694 -15.909 -25.299  0.00  0.00    +0.018 C 
ATOM     11  C   UNL     1      34.410 -18.664 -25.720  0.00  0.00    +0.135 C 
ATOM     12  C   UNL     1      33.662 -13.921 -23.931  0.00  0.00    +0.042 C 
ATOM     13  C   UNL     1      33.337 -14.571 -25.114  0.00  0.00    +0.010 C 
ENDROOT
BRANCH  12  14
ATOM     14  C   UNL     1      33.298 -12.553 -23.740  0.00  0.00    -0.064 C 
ATOM     15  C   UNL     1      32.993 -11.399 -23.575  0.00  0.00    -0.082 C 
BRANCH  15  16
ATOM     16  C   UNL     1      32.622  -9.994 -23.371  0.00  0.00    +0.103 C 
BRANCH  16  17
ATOM     17  C   UNL     1      32.244  -9.714 -21.939  0.00  0.00    -0.009 C 
ATOM     18  C   UNL     1      32.515  -8.467 -21.393  0.00  0.00    -0.003 C 
ATOM     19  C   UNL     1      31.631 -10.706 -21.189  0.00  0.00    -0.003 C 
ATOM     20  C   UNL     1      32.164  -8.208 -20.069  0.00  0.00    -0.000 C 
ATOM     21  C   UNL     1      31.281 -10.447 -19.864  0.00  0.00    -0.000 C 
ATOM     22  C   UNL     1      31.547  -9.198 -19.304  0.00  0.00    -0.000 C 
ENDBRANCH  16  17
ENDBRANCH  15  16
ENDBRANCH  12  14
BRANCH   3  23
ATOM     23  C   UNL     1      36.468 -18.715 -21.252  0.00  0.00    +0.140 C 
BRANCH  23  24
ATOM     24  C   UNL     1      35.620 -19.792 -20.631  0.00  0.00    +0.001 C 
ATOM     25  C   UNL     1      34.237 -19.717 -20.734  0.00  0.00    -0.002 C 
ATOM     26  C   UNL     1      36.231 -20.845 -19.965  0.00  0.00    -0.002 C 
ATOM     27  C   UNL     1      33.451 -20.716 -20.159  0.00  0.00    +0.006 C 
ATOM     28  C   UNL     1      35.445 -21.844 -19.391  0.00  0.00    +0.006 C 
ATOM     29  C   UNL     1      34.055 -21.779 -19.487  0.00  0.00    +0.075 C 
BRANCH  29  31
ATOM     30  O   UNL     1      32.222 -22.630 -18.208  0.00  0.00    -0.245 OA
ATOM     31  C   UNL     1      33.235 -22.821 -18.888  0.00  0.00    +0.338 C 
BRANCH  31  32
ATOM     32  O   UNL     1      33.704 -24.070 -19.154  0.00  0.00    -0.477 OA
ATOM     33  H   UNL     1      33.342 -24.811 -18.709  0.00  0.00    +0.295 HD
ENDBRANCH  31  32
ENDBRANCH  29  31
ENDBRANCH  23  24
ENDBRANCH   3  23
TORSDOF 7
ENDMDL
MODEL 6
REMARK VINA RESULT:     -11.6      5.967     12.219
REMARK  Name = 10224181
REMARK  7 active torsions:
REMARK  status: ('A' for Active; 'I' for Inactive)
REMARK    1  A    between atoms: N_3  and  C_23
REMARK    2  A    between atoms: C_12  and  C_14
REMARK    3  A    between atoms: C_15  and  C_16
REMARK    4  A    between atoms: C_16  and  C_17
REMARK    5  A    between atoms: C_23  and  C_24
REMARK    6  A    between atoms: C_29  and  C_31
REMARK    7  A    between atoms: C_31  and  O_32
REMARK                            x       y       z     vdW  Elec       q    Type
REMARK                         _______ _______ _______ _____ _____    ______ ____
ROOT
ATOM      1  O   UNL     1      31.451  -8.534 -24.218  0.00  0.00    -0.267 OA
ATOM      2  O   UNL     1      31.745  -4.473 -21.976  0.00  0.00    -0.246 OA
ATOM      3  N   UNL     1      31.593  -6.480 -23.119  0.00  0.00    -0.244 N 
ATOM      4  N   UNL     1      32.060  -6.430 -20.778  0.00  0.00    -0.279 N 
ATOM      5  C   UNL     1      32.120  -7.855 -20.756  0.00  0.00    +0.069 A 
ATOM      6  C   UNL     1      31.912  -8.580 -21.930  0.00  0.00    +0.073 A 
ATOM      7  C   UNL     1      31.632  -7.878 -23.194  0.00  0.00    +0.266 A 
ATOM      8  C   UNL     1      31.797  -5.708 -21.953  0.00  0.00    +0.334 A 
ATOM      9  C   UNL     1      31.967  -9.983 -21.929  0.00  0.00    +0.014 C 
ATOM     10  C   UNL     1      32.385  -8.571 -19.574  0.00  0.00    +0.018 C 
ATOM     11  C   UNL     1      32.281  -5.696 -19.533  0.00  0.00    +0.135 C 
ATOM     12  C   UNL     1      32.230 -10.673 -20.750  0.00  0.00    +0.042 C 
ATOM     13  C   UNL     1      32.440  -9.967 -19.572  0.00  0.00    +0.010 C 
ENDROOT
BRANCH  12  14
ATOM     14  C   UNL     1      32.286 -12.101 -20.751  0.00  0.00    -0.064 C 
ATOM     15  C   UNL     1      32.338 -13.304 -20.751  0.00  0.00    -0.082 C 
BRANCH  15  16
ATOM     16  C   UNL     1      32.403 -14.770 -20.751  0.00  0.00    +0.103 C 
BRANCH  16  17
ATOM     17  C   UNL     1      33.486 -15.286 -21.664  0.00  0.00    -0.009 C 
ATOM     18  C   UNL     1      34.345 -16.277 -21.212  0.00  0.00    -0.003 C 
ATOM     19  C   UNL     1      33.607 -14.761 -22.943  0.00  0.00    -0.003 C 
ATOM     20  C   UNL     1      35.347 -16.754 -22.057  0.00  0.00    -0.000 C 
ATOM     21  C   UNL     1      34.609 -15.238 -23.788  0.00  0.00    -0.000 C 
ATOM     22  C   UNL     1      35.479 -16.234 -23.345  0.00  0.00    -0.000 C 
ENDBRANCH  16  17
ENDBRANCH  15  16
ENDBRANCH  12  14
BRANCH   3  23
ATOM     23  C   UNL     1      31.317  -5.755 -24.357  0.00  0.00    +0.140 C 
BRANCH  23  24
ATOM     24  C   UNL     1      32.574  -5.483 -25.139  0.00  0.00    +0.001 C 
ATOM     25  C   UNL     1      33.752  -6.126 -24.784  0.00  0.00    -0.002 C 
ATOM     26  C   UNL     1      32.537  -4.594 -26.204  0.00  0.00    -0.002 C 
ATOM     27  C   UNL     1      34.917  -5.874 -25.509  0.00  0.00    +0.006 C 
ATOM     28  C   UNL     1      33.702  -4.343 -26.929  0.00  0.00    +0.006 C 
ATOM     29  C   UNL     1      34.892  -4.982 -26.582  0.00  0.00    +0.075 C 
BRANCH  29  31
ATOM     30  O   UNL     1      37.250  -4.700 -26.872  0.00  0.00    -0.245 OA
ATOM     31  C   UNL     1      36.106  -4.720 -27.339  0.00  0.00    +0.338 C 
BRANCH  31  32
ATOM     32  O   UNL     1      35.859  -4.489 -28.657  0.00  0.00    -0.477 OA
ATOM     33  H   UNL     1      35.002  -4.639 -29.005  0.00  0.00    +0.295 HD
ENDBRANCH  31  32
ENDBRANCH  29  31
ENDBRANCH  23  24
ENDBRANCH   3  23
TORSDOF 7
ENDMDL
MODEL 7
REMARK VINA RESULT:     -11.3      3.314     10.445
REMARK  Name = 10224181
REMARK  7 active torsions:
REMARK  status: ('A' for Active; 'I' for Inactive)
REMARK    1  A    between atoms: N_3  and  C_23
REMARK    2  A    between atoms: C_12  and  C_14
REMARK    3  A    between atoms: C_15  and  C_16
REMARK    4  A    between atoms: C_16  and  C_17
REMARK    5  A    between atoms: C_23  and  C_24
REMARK    6  A    between atoms: C_29  and  C_31
REMARK    7  A    between atoms: C_31  and  O_32
REMARK                            x       y       z     vdW  Elec       q    Type
REMARK                         _______ _______ _______ _____ _____    ______ ____
ROOT
ATOM      1  O   UNL     1      32.268 -14.517 -20.143  0.00  0.00    -0.267 OA
ATOM      2  O   UNL     1      32.205 -11.311 -23.508  0.00  0.00    -0.246 OA
ATOM      3  N   UNL     1      32.215 -12.892 -21.817  0.00  0.00    -0.244 N 
ATOM      4  N   UNL     1      33.635 -13.121 -23.722  0.00  0.00    -0.279 N 
ATOM      5  C   UNL     1      34.153 -14.340 -23.194  0.00  0.00    +0.069 A 
ATOM      6  C   UNL     1      33.689 -14.822 -21.969  0.00  0.00    +0.073 A 
ATOM      7  C   UNL     1      32.664 -14.077 -21.220  0.00  0.00    +0.266 A 
ATOM      8  C   UNL     1      32.657 -12.368 -23.053  0.00  0.00    +0.334 A 
ATOM      9  C   UNL     1      34.186 -16.021 -21.433  0.00  0.00    +0.014 C 
ATOM     10  C   UNL     1      35.133 -15.089 -23.872  0.00  0.00    +0.018 C 
ATOM     11  C   UNL     1      34.140 -12.639 -25.007  0.00  0.00    +0.135 C 
ATOM     12  C   UNL     1      35.156 -16.747 -22.118  0.00  0.00    +0.042 C 
ATOM     13  C   UNL     1      35.628 -16.281 -23.339  0.00  0.00    +0.010 C 
ENDROOT
BRANCH  12  14
ATOM     14  C   UNL     1      35.660 -17.966 -21.571  0.00  0.00    -0.064 C 
ATOM     15  C   UNL     1      36.087 -18.995 -21.112  0.00  0.00    -0.082 C 
BRANCH  15  16
ATOM     16  C   UNL     1      36.608 -20.250 -20.557  0.00  0.00    +0.103 C 
BRANCH  16  17
ATOM     17  C   UNL     1      35.538 -21.040 -19.848  0.00  0.00    -0.009 C 
ATOM     18  C   UNL     1      34.217 -20.914 -20.252  0.00  0.00    -0.003 C 
ATOM     19  C   UNL     1      35.891 -21.881 -18.804  0.00  0.00    -0.003 C 
ATOM     20  C   UNL     1      33.227 -21.646 -19.597  0.00  0.00    -0.000 C 
ATOM     21  C   UNL     1      34.901 -22.612 -18.148  0.00  0.00    -0.000 C 
ATOM     22  C   UNL     1      33.569 -22.495 -18.544  0.00  0.00    -0.000 C 
ENDBRANCH  16  17
ENDBRANCH  15  16
ENDBRANCH  12  14
BRANCH   3  23
ATOM     23  C   UNL     1      31.197 -12.130 -21.098  0.00  0.00    +0.140 C 
BRANCH  23  24
ATOM     24  C   UNL     1      31.614 -10.699 -20.885  0.00  0.00    +0.001 C 
ATOM     25  C   UNL     1      31.340  -9.755 -21.864  0.00  0.00    -0.002 C 
ATOM     26  C   UNL     1      32.265 -10.344 -19.712  0.00  0.00    -0.002 C 
ATOM     27  C   UNL     1      31.726  -8.429 -21.667  0.00  0.00    +0.006 C 
ATOM     28  C   UNL     1      32.651  -9.018 -19.514  0.00  0.00    +0.006 C 
ATOM     29  C   UNL     1      32.381  -8.061 -20.492  0.00  0.00    +0.075 C 
BRANCH  29  31
ATOM     30  O   UNL     1      33.035  -6.162 -19.192  0.00  0.00    -0.245 OA
ATOM     31  C   UNL     1      32.783  -6.678 -20.286  0.00  0.00    +0.338 C 
BRANCH  31  32
ATOM     32  O   UNL     1      32.858  -5.978 -21.450  0.00  0.00    -0.477 OA
ATOM     33  H   UNL     1      32.304  -6.207 -22.170  0.00  0.00    +0.295 HD
ENDBRANCH  31  32
ENDBRANCH  29  31
ENDBRANCH  23  24
ENDBRANCH   3  23
TORSDOF 7
ENDMDL
