MODEL 1
REMARK VINA RESULT:     -13.3      0.000      0.000
REMARK  Name = 118161062
REMARK  4 active torsions:
REMARK  status: ('A' for Active; 'I' for Inactive)
REMARK    1  A    between atoms: N_1  and  C_26
REMARK    2  A    between atoms: C_7  and  C_15
REMARK    3  A    between atoms: C_21  and  N_28
REMARK    4  A    between atoms: N_27  and  C_35
REMARK                            x       y       z     vdW  Elec       q    Type
REMARK                         _______ _______ _______ _____ _____    ______ ____
ROOT
ATOM      1  N   UNL     1      36.579 -22.564 -17.730  0.00  0.00    -0.286 N 
ATOM      2  N   UNL     1      35.510 -23.736 -14.386  0.00  0.00    -0.260 N 
ATOM      3  N   UNL     1      34.466 -23.033 -16.851  0.00  0.00    -0.384 NA
ATOM      4  N   UNL     1      37.599 -23.341 -15.058  0.00  0.00    -0.224 NA
ATOM      5  C   UNL     1      35.773 -22.970 -16.692  0.00  0.00    +0.216 C 
ATOM      6  C   UNL     1      36.334 -23.338 -15.406  0.00  0.00    +0.180 C 
ATOM      7  C   UNL     1      33.659 -23.448 -15.793  0.00  0.00    +0.162 C 
ATOM      8  C   UNL     1      34.146 -23.790 -14.579  0.00  0.00    +0.159 C 
ATOM      9  C   UNL     1      36.305 -24.010 -13.309  0.00  0.00    +0.088 C 
ATOM     10  C   UNL     1      37.588 -23.760 -13.748  0.00  0.00    +0.117 C 
ATOM     11  H   UNL     1      37.487 -22.943 -17.749  0.00  0.00    +0.155 HD
ENDROOT
BRANCH   7  15
ATOM     12  N   UNL     1      31.480 -24.353 -15.294  0.00  0.00    -0.386 NA
ATOM     13  N   UNL     1      30.282 -22.682 -17.201  0.00  0.00    -0.257 NA
ATOM     14  N   UNL     1      29.326 -25.254 -14.795  0.00  0.00    -0.335 N 
ATOM     15  C   UNL     1      32.197 -23.483 -16.032  0.00  0.00    +0.178 C 
ATOM     16  C   UNL     1      31.610 -22.662 -16.969  0.00  0.00    +0.128 C 
ATOM     17  C   UNL     1      30.153 -24.372 -15.526  0.00  0.00    +0.179 C 
ATOM     18  C   UNL     1      29.564 -23.551 -16.463  0.00  0.00    +0.199 C 
ATOM     19  H   UNL     1      29.721 -25.852 -14.119  0.00  0.00    +0.144 HD
ATOM     20  H   UNL     1      28.356 -25.271 -14.962  0.00  0.00    +0.144 HD
ENDBRANCH   7  15
BRANCH   1  26
ATOM     21  C   UNL     1      35.624 -19.894 -20.829  0.00  0.00    +0.048 C 
ATOM     22  C   UNL     1      34.665 -20.794 -20.363  0.00  0.00    +0.016 C 
ATOM     23  C   UNL     1      36.900 -19.881 -20.265  0.00  0.00    +0.016 C 
ATOM     24  C   UNL     1      34.981 -21.680 -19.333  0.00  0.00    +0.016 C 
ATOM     25  C   UNL     1      37.216 -20.767 -19.235  0.00  0.00    +0.016 C 
ATOM     26  C   UNL     1      36.258 -21.666 -18.769  0.00  0.00    +0.050 C 
BRANCH  21  28
ATOM     27  N   UNL     1      34.417 -17.176 -23.862  0.00  0.00    +0.394 N 
ATOM     28  N   UNL     1      35.306 -19.006 -21.862  0.00  0.00    -0.312 N 
ATOM     29  C   UNL     1      35.218 -16.699 -22.728  0.00  0.00    -0.055 C 
ATOM     30  C   UNL     1      34.832 -18.533 -24.233  0.00  0.00    -0.055 C 
ATOM     31  C   UNL     1      35.031 -17.607 -21.510  0.00  0.00    +0.068 C 
ATOM     32  C   UNL     1      34.632 -19.502 -23.066  0.00  0.00    +0.068 C 
ATOM     33  H   UNL     1      33.432 -17.186 -23.596  0.00  0.00    -0.079 HD
BRANCH  27  35
ATOM     34  O   UNL     1      33.120 -14.903 -25.676  0.00  0.00    -0.358 OA
ATOM     35  C   UNL     1      34.614 -16.274 -25.011  0.00  0.00    +0.002 C 
ATOM     36  C   UNL     1      33.371 -16.314 -25.899  0.00  0.00    +0.124 C 
ATOM     37  C   UNL     1      34.128 -14.874 -24.633  0.00  0.00    +0.124 C 
ENDBRANCH  27  35
ENDBRANCH  21  28
ENDBRANCH   1  26
TORSDOF 4
ENDMDL
MODEL 2
REMARK VINA RESULT:     -13.1      1.272      1.452
REMARK  Name = 118161062
REMARK  4 active torsions:
REMARK  status: ('A' for Active; 'I' for Inactive)
REMARK    1  A    between atoms: N_1  and  C_26
REMARK    2  A    between atoms: C_7  and  C_15
REMARK    3  A    between atoms: C_21  and  N_28
REMARK    4  A    between atoms: N_27  and  C_35
REMARK                            x       y       z     vdW  Elec       q    Type
REMARK                         _______ _______ _______ _____ _____    ______ ____
ROOT
ATOM      1  N   UNL     1      36.266 -23.181 -16.433  0.00  0.00    -0.286 N 
ATOM      2  N   UNL     1      34.744 -24.044 -13.172  0.00  0.00    -0.260 N 
ATOM      3  N   UNL     1      34.049 -23.576 -15.810  0.00  0.00    -0.384 NA
ATOM      4  N   UNL     1      36.908 -23.704 -13.588  0.00  0.00    -0.224 NA
ATOM      5  C   UNL     1      35.323 -23.493 -15.482  0.00  0.00    +0.216 C 
ATOM      6  C   UNL     1      35.702 -23.739 -14.103  0.00  0.00    +0.180 C 
ATOM      7  C   UNL     1      33.102 -23.895 -14.837  0.00  0.00    +0.162 C 
ATOM      8  C   UNL     1      33.418 -24.121 -13.542  0.00  0.00    +0.159 C 
ATOM      9  C   UNL     1      35.383 -24.215 -11.976  0.00  0.00    +0.088 C 
ATOM     10  C   UNL     1      36.717 -24.001 -12.259  0.00  0.00    +0.117 C 
ATOM     11  H   UNL     1      37.164 -23.557 -16.294  0.00  0.00    +0.155 HD
ENDROOT
BRANCH   7  15
ATOM     12  N   UNL     1      30.915 -24.896 -14.686  0.00  0.00    -0.386 NA
ATOM     13  N   UNL     1      29.909 -23.138 -16.626  0.00  0.00    -0.257 NA
ATOM     14  N   UNL     1      28.750 -25.894 -14.531  0.00  0.00    -0.335 N 
ATOM     15  C   UNL     1      31.687 -23.958 -15.268  0.00  0.00    +0.178 C 
ATOM     16  C   UNL     1      31.194 -23.094 -16.220  0.00  0.00    +0.128 C 
ATOM     17  C   UNL     1      29.630 -24.940 -15.091  0.00  0.00    +0.179 C 
ATOM     18  C   UNL     1      29.136 -24.076 -16.044  0.00  0.00    +0.199 C 
ATOM     19  H   UNL     1      29.077 -26.523 -13.848  0.00  0.00    +0.144 HD
ATOM     20  H   UNL     1      27.811 -25.929 -14.824  0.00  0.00    +0.144 HD
ENDBRANCH   7  15
BRANCH   1  26
ATOM     21  C   UNL     1      35.761 -20.812 -19.865  0.00  0.00    +0.048 C 
ATOM     22  C   UNL     1      34.742 -21.672 -19.455  0.00  0.00    +0.016 C 
ATOM     23  C   UNL     1      36.947 -20.739 -19.135  0.00  0.00    +0.016 C 
ATOM     24  C   UNL     1      34.909 -22.458 -18.315  0.00  0.00    +0.016 C 
ATOM     25  C   UNL     1      37.114 -21.525 -17.995  0.00  0.00    +0.016 C 
ATOM     26  C   UNL     1      36.096 -22.385 -17.584  0.00  0.00    +0.050 C 
BRANCH  21  28
ATOM     27  N   UNL     1      35.189 -18.217 -23.180  0.00  0.00    +0.394 N 
ATOM     28  N   UNL     1      35.593 -20.024 -21.009  0.00  0.00    -0.312 N 
ATOM     29  C   UNL     1      36.546 -18.501 -22.697  0.00  0.00    -0.055 C 
ATOM     30  C   UNL     1      34.351 -19.414 -23.047  0.00  0.00    -0.055 C 
ATOM     31  C   UNL     1      36.524 -18.908 -21.222  0.00  0.00    +0.068 C 
ATOM     32  C   UNL     1      34.255 -19.854 -21.585  0.00  0.00    +0.068 C 
ATOM     33  H   UNL     1      34.787 -17.462 -22.625  0.00  0.00    -0.079 HD
BRANCH  27  35
ATOM     34  O   UNL     1      33.718 -16.675 -25.544  0.00  0.00    -0.358 OA
ATOM     35  C   UNL     1      35.250 -17.820 -24.597  0.00  0.00    +0.002 C 
ATOM     36  C   UNL     1      33.894 -18.084 -25.251  0.00  0.00    +0.124 C 
ATOM     37  C   UNL     1      34.863 -16.345 -24.716  0.00  0.00    +0.124 C 
ENDBRANCH  27  35
ENDBRANCH  21  28
ENDBRANCH   1  26
TORSDOF 4
ENDMDL
