MODEL 1
REMARK VINA RESULT:      -8.8      0.000      0.000
REMARK  Name = 42609673
REMARK  12 active torsions:
REMARK  status: ('A' for Active; 'I' for Inactive)
REMARK    1  A    between atoms: C_1  and  C_4
REMARK    2  A    between atoms: C_1  and  C_16
REMARK    3  A    between atoms: C_1  and  C_33
REMARK    4  A    between atoms: N_3  and  C_6
REMARK    5  A    between atoms: C_6  and  C_9
REMARK    6  A    between atoms: C_6  and  C_12
REMARK    7  A    between atoms: C_16  and  C_19
REMARK    8  A    between atoms: C_16  and  C_23
REMARK    9  A    between atoms: N_18  and  O_21
REMARK   10  A    between atoms: C_23  and  N_25
REMARK   11  A    between atoms: C_26  and  C_30
REMARK   12  A    between atoms: C_33  and  C_34
REMARK                            x       y       z     vdW  Elec       q    Type
REMARK                         _______ _______ _______ _____ _____    ______ ____
ROOT
ATOM      1  C   UNL     1      33.178 -11.750 -23.474  0.00  0.00    +0.087 C 
ENDROOT
BRANCH   1   4
ATOM      2  O   UNL     1      31.160 -11.215 -22.227  0.00  0.00    -0.275 OA
ATOM      3  N   UNL     1      32.471  -9.467 -22.997  0.00  0.00    -0.298 N 
ATOM      4  C   UNL     1      32.156 -10.805 -22.822  0.00  0.00    +0.223 C 
ATOM      5  H   UNL     1      33.292  -9.237 -23.490  0.00  0.00    +0.150 HD
BRANCH   3   6
ATOM      6  C   UNL     1      31.648  -8.394 -22.490  0.00  0.00    +0.148 C 
BRANCH   6   9
ATOM      7  O   UNL     1      30.366  -7.262 -24.212  0.00  0.00    -0.273 OA
ATOM      8  N   UNL     1      32.626  -6.784 -24.024  0.00  0.00    -0.301 N 
ATOM      9  C   UNL     1      31.455  -7.437 -23.667  0.00  0.00    +0.240 C 
ATOM     10  C   UNL     1      32.667  -5.817 -25.094  0.00  0.00    +0.111 C 
ATOM     11  H   UNL     1      33.454  -6.986 -23.532  0.00  0.00    +0.150 HD
ENDBRANCH   6   9
BRANCH   6  12
ATOM     12  C   UNL     1      32.241  -7.729 -21.214  0.00  0.00    +0.025 C 
ATOM     13  C   UNL     1      33.768  -7.570 -21.378  0.00  0.00    +0.002 C 
ATOM     14  C   UNL     1      31.645  -6.321 -21.010  0.00  0.00    +0.002 C 
ATOM     15  C   UNL     1      31.975  -8.560 -19.944  0.00  0.00    +0.002 C 
ENDBRANCH   6  12
ENDBRANCH   3   6
ENDBRANCH   1   4
BRANCH   1  16
ATOM     16  C   UNL     1      32.641 -13.211 -23.522  0.00  0.00    +0.107 C 
BRANCH  16  19
ATOM     17  O   UNL     1      34.579 -14.302 -24.506  0.00  0.00    -0.273 OA
ATOM     18  N   UNL     1      32.565 -14.416 -25.622  0.00  0.00    -0.197 N 
ATOM     19  C   UNL     1      33.383 -14.030 -24.588  0.00  0.00    +0.246 C 
ATOM     20  H   UNL     1      31.610 -14.177 -25.652  0.00  0.00    +0.182 HD
BRANCH  18  21
ATOM     21  O   UNL     1      33.173 -15.172 -26.632  0.00  0.00    -0.295 OA
ATOM     22  H   UNL     1      34.095 -14.890 -26.737  0.00  0.00    +0.241 HD
ENDBRANCH  18  21
ENDBRANCH  16  19
BRANCH  16  23
ATOM     23  C   UNL     1      32.672 -13.912 -22.155  0.00  0.00    +0.099 C 
BRANCH  23  25
ATOM     24  O   UNL     1      34.810 -14.892 -20.509  0.00  0.00    -0.268 OA
ATOM     25  N   UNL     1      33.288 -15.213 -22.228  0.00  0.00    -0.299 N 
ATOM     26  C   UNL     1      34.321 -15.599 -21.386  0.00  0.00    +0.270 C 
ATOM     27  H   UNL     1      32.964 -15.852 -22.903  0.00  0.00    +0.150 HD
BRANCH  26  30
ATOM     28  S   UNL     1      34.829 -17.674 -23.167  0.00  0.00    -0.061 S 
ATOM     29  N   UNL     1      35.396 -17.687 -20.646  0.00  0.00    -0.232 NA
ATOM     30  C   UNL     1      34.867 -16.963 -21.607  0.00  0.00    +0.164 C 
ATOM     31  C   UNL     1      35.583 -19.073 -22.522  0.00  0.00    +0.058 C 
ATOM     32  C   UNL     1      35.806 -18.896 -21.173  0.00  0.00    +0.107 C 
ENDBRANCH  26  30
ENDBRANCH  23  25
ENDBRANCH  16  23
ENDBRANCH   1  16
BRANCH   1  33
ATOM     33  C   UNL     1      33.569 -11.183 -24.860  0.00  0.00    +0.010 C 
BRANCH  33  34
ATOM     34  C   UNL     1      35.016 -10.669 -25.006  0.00  0.00    +0.000 C 
ATOM     35  C   UNL     1      35.496 -10.668 -26.457  0.00  0.00    +0.000 C 
ATOM     36  C   UNL     1      35.121  -9.255 -24.427  0.00  0.00    +0.000 C 
ENDBRANCH  33  34
ENDBRANCH   1  33
TORSDOF 12
ENDMDL
MODEL 2
REMARK VINA RESULT:      -8.6      9.736     13.353
REMARK  Name = 42609673
REMARK  12 active torsions:
REMARK  status: ('A' for Active; 'I' for Inactive)
REMARK    1  A    between atoms: C_1  and  C_4
REMARK    2  A    between atoms: C_1  and  C_16
REMARK    3  A    between atoms: C_1  and  C_33
REMARK    4  A    between atoms: N_3  and  C_6
REMARK    5  A    between atoms: C_6  and  C_9
REMARK    6  A    between atoms: C_6  and  C_12
REMARK    7  A    between atoms: C_16  and  C_19
REMARK    8  A    between atoms: C_16  and  C_23
REMARK    9  A    between atoms: N_18  and  O_21
REMARK   10  A    between atoms: C_23  and  N_25
REMARK   11  A    between atoms: C_26  and  C_30
REMARK   12  A    between atoms: C_33  and  C_34
REMARK                            x       y       z     vdW  Elec       q    Type
REMARK                         _______ _______ _______ _____ _____    ______ ____
ROOT
ATOM      1  C   UNL     1      34.341 -21.832 -18.583  0.00  0.00    +0.087 C 
ENDROOT
BRANCH   1   4
ATOM      2  O   UNL     1      33.583 -24.143 -18.567  0.00  0.00    -0.275 OA
ATOM      3  N   UNL     1      32.791 -22.716 -16.922  0.00  0.00    -0.298 N 
ATOM      4  C   UNL     1      33.548 -23.032 -18.039  0.00  0.00    +0.223 C 
ATOM      5  H   UNL     1      32.829 -21.796 -16.573  0.00  0.00    +0.150 HD
BRANCH   3   6
ATOM      6  C   UNL     1      31.949 -23.675 -16.248  0.00  0.00    +0.148 C 
BRANCH   6   9
ATOM      7  O   UNL     1      30.226 -22.196 -17.104  0.00  0.00    -0.273 OA
ATOM      8  N   UNL     1      29.602 -24.293 -16.342  0.00  0.00    -0.301 N 
ATOM      9  C   UNL     1      30.515 -23.284 -16.609  0.00  0.00    +0.240 C 
ATOM     10  C   UNL     1      28.195 -24.147 -16.628  0.00  0.00    +0.111 C 
ATOM     11  H   UNL     1      29.922 -25.135 -15.943  0.00  0.00    +0.150 HD
ENDBRANCH   6   9
BRANCH   6  12
ATOM     12  C   UNL     1      32.226 -23.754 -14.718  0.00  0.00    +0.025 C 
ATOM     13  C   UNL     1      33.748 -23.687 -14.467  0.00  0.00    +0.002 C 
ATOM     14  C   UNL     1      31.579 -22.560 -13.988  0.00  0.00    +0.002 C 
ATOM     15  C   UNL     1      31.690 -25.057 -14.093  0.00  0.00    +0.002 C 
ENDBRANCH   6  12
ENDBRANCH   3   6
ENDBRANCH   1   4
BRANCH   1  16
ATOM     16  C   UNL     1      35.874 -22.073 -18.466  0.00  0.00    +0.107 C 
BRANCH  16  19
ATOM     17  O   UNL     1      36.923 -21.985 -20.659  0.00  0.00    -0.273 OA
ATOM     18  N   UNL     1      36.906 -20.075 -19.367  0.00  0.00    -0.197 N 
ATOM     19  C   UNL     1      36.622 -21.395 -19.623  0.00  0.00    +0.246 C 
ATOM     20  H   UNL     1      36.649 -19.639 -18.522  0.00  0.00    +0.182 HD
BRANCH  18  21
ATOM     21  O   UNL     1      37.586 -19.389 -20.381  0.00  0.00    -0.295 OA
ATOM     22  H   UNL     1      37.455 -18.434 -20.271  0.00  0.00    +0.241 HD
ENDBRANCH  18  21
ENDBRANCH  16  19
BRANCH  16  23
ATOM     23  C   UNL     1      36.450 -21.652 -17.105  0.00  0.00    +0.099 C 
BRANCH  23  25
ATOM     24  O   UNL     1      38.723 -22.993 -15.974  0.00  0.00    -0.268 OA
ATOM     25  N   UNL     1      36.425 -22.733 -16.151  0.00  0.00    -0.299 N 
ATOM     26  C   UNL     1      37.582 -23.321 -15.659  0.00  0.00    +0.270 C 
ATOM     27  H   UNL     1      35.554 -23.067 -15.837  0.00  0.00    +0.150 HD
BRANCH  26  30
ATOM     28  S   UNL     1      37.313 -24.142 -13.015  0.00  0.00    -0.061 S 
ATOM     29  N   UNL     1      37.263 -25.693 -15.081  0.00  0.00    -0.232 NA
ATOM     30  C   UNL     1      37.387 -24.440 -14.702  0.00  0.00    +0.164 C 
ATOM     31  C   UNL     1      37.096 -25.822 -12.751  0.00  0.00    +0.058 C 
ATOM     32  C   UNL     1      37.097 -26.484 -13.961  0.00  0.00    +0.107 C 
ENDBRANCH  26  30
ENDBRANCH  23  25
ENDBRANCH  16  23
ENDBRANCH   1  16
BRANCH   1  33
ATOM     33  C   UNL     1      33.864 -21.532 -20.025  0.00  0.00    +0.010 C 
BRANCH  33  34
ATOM     34  C   UNL     1      33.715 -20.043 -20.401  0.00  0.00    +0.000 C 
ATOM     35  C   UNL     1      34.355 -19.710 -21.748  0.00  0.00    +0.000 C 
ATOM     36  C   UNL     1      32.231 -19.666 -20.428  0.00  0.00    +0.000 C 
ENDBRANCH  33  34
ENDBRANCH   1  33
TORSDOF 12
ENDMDL
MODEL 3
REMARK VINA RESULT:      -8.6      7.560     14.287
REMARK  Name = 42609673
REMARK  12 active torsions:
REMARK  status: ('A' for Active; 'I' for Inactive)
REMARK    1  A    between atoms: C_1  and  C_4
REMARK    2  A    between atoms: C_1  and  C_16
REMARK    3  A    between atoms: C_1  and  C_33
REMARK    4  A    between atoms: N_3  and  C_6
REMARK    5  A    between atoms: C_6  and  C_9
REMARK    6  A    between atoms: C_6  and  C_12
REMARK    7  A    between atoms: C_16  and  C_19
REMARK    8  A    between atoms: C_16  and  C_23
REMARK    9  A    between atoms: N_18  and  O_21
REMARK   10  A    between atoms: C_23  and  N_25
REMARK   11  A    between atoms: C_26  and  C_30
REMARK   12  A    between atoms: C_33  and  C_34
REMARK                            x       y       z     vdW  Elec       q    Type
REMARK                         _______ _______ _______ _____ _____    ______ ____
ROOT
ATOM      1  C   UNL     1      35.123 -22.439 -16.880  0.00  0.00    +0.087 C 
ENDROOT
BRANCH   1   4
ATOM      2  O   UNL     1      37.298 -21.755 -16.034  0.00  0.00    -0.275 OA
ATOM      3  N   UNL     1      36.250 -23.561 -15.032  0.00  0.00    -0.298 N 
ATOM      4  C   UNL     1      36.342 -22.525 -15.948  0.00  0.00    +0.223 C 
ATOM      5  H   UNL     1      35.443 -24.126 -15.040  0.00  0.00    +0.150 HD
BRANCH   3   6
ATOM      6  C   UNL     1      37.283 -23.850 -14.066  0.00  0.00    +0.148 C 
BRANCH   6   9
ATOM      7  O   UNL     1      37.501 -25.958 -15.249  0.00  0.00    -0.273 OA
ATOM      8  N   UNL     1      39.416 -24.963 -14.404  0.00  0.00    -0.301 N 
ATOM      9  C   UNL     1      38.050 -25.044 -14.635  0.00  0.00    +0.240 C 
ATOM     10  C   UNL     1      40.333 -25.972 -14.876  0.00  0.00    +0.111 C 
ATOM     11  H   UNL     1      39.770 -24.194 -13.902  0.00  0.00    +0.150 HD
ENDBRANCH   6   9
BRANCH   6  12
ATOM     12  C   UNL     1      36.725 -24.072 -12.630  0.00  0.00    +0.025 C 
ATOM     13  C   UNL     1      37.297 -22.993 -11.684  0.00  0.00    +0.002 C 
ATOM     14  C   UNL     1      35.190 -23.937 -12.618  0.00  0.00    +0.002 C 
ATOM     15  C   UNL     1      37.098 -25.456 -12.065  0.00  0.00    +0.002 C 
ENDBRANCH   6  12
ENDBRANCH   3   6
ENDBRANCH   1   4
BRANCH   1  16
ATOM     16  C   UNL     1      35.553 -22.518 -18.374  0.00  0.00    +0.107 C 
BRANCH  16  19
ATOM     17  O   UNL     1      33.974 -23.622 -19.859  0.00  0.00    -0.273 OA
ATOM     18  N   UNL     1      33.674 -21.383 -19.396  0.00  0.00    -0.197 N 
ATOM     19  C   UNL     1      34.324 -22.589 -19.292  0.00  0.00    +0.246 C 
ATOM     20  H   UNL     1      33.987 -20.576 -18.926  0.00  0.00    +0.182 HD
BRANCH  18  21
ATOM     21  O   UNL     1      32.537 -21.371 -20.216  0.00  0.00    -0.295 OA
ATOM     22  H   UNL     1      32.800 -21.527 -21.136  0.00  0.00    +0.241 HD
ENDBRANCH  18  21
ENDBRANCH  16  19
BRANCH  16  23
ATOM     23  C   UNL     1      36.499 -21.381 -18.792  0.00  0.00    +0.099 C 
BRANCH  23  25
ATOM     24  O   UNL     1      37.743 -19.585 -20.654  0.00  0.00    -0.268 OA
ATOM     25  N   UNL     1      35.837 -20.403 -19.618  0.00  0.00    -0.299 N 
ATOM     26  C   UNL     1      36.525 -19.575 -20.493  0.00  0.00    +0.270 C 
ATOM     27  H   UNL     1      34.858 -20.319 -19.559  0.00  0.00    +0.150 HD
BRANCH  26  30
ATOM     28  S   UNL     1      35.186 -18.957 -22.851  0.00  0.00    -0.061 S 
ATOM     29  N   UNL     1      35.326 -17.441 -20.763  0.00  0.00    -0.232 NA
ATOM     30  C   UNL     1      35.701 -18.602 -21.254  0.00  0.00    +0.164 C 
ATOM     31  C   UNL     1      34.391 -17.439 -22.908  0.00  0.00    +0.058 C 
ATOM     32  C   UNL     1      34.576 -16.776 -21.713  0.00  0.00    +0.107 C 
ENDBRANCH  26  30
ENDBRANCH  23  25
ENDBRANCH  16  23
ENDBRANCH   1  16
BRANCH   1  33
ATOM     33  C   UNL     1      34.102 -23.526 -16.466  0.00  0.00    +0.010 C 
BRANCH  33  34
ATOM     34  C   UNL     1      32.791 -23.025 -15.826  0.00  0.00    +0.000 C 
ATOM     35  C   UNL     1      31.648 -22.917 -16.834  0.00  0.00    +0.000 C 
ATOM     36  C   UNL     1      32.385 -23.961 -14.684  0.00  0.00    +0.000 C 
ENDBRANCH  33  34
ENDBRANCH   1  33
TORSDOF 12
ENDMDL
MODEL 4
REMARK VINA RESULT:      -8.3      9.414     15.142
REMARK  Name = 42609673
REMARK  12 active torsions:
REMARK  status: ('A' for Active; 'I' for Inactive)
REMARK    1  A    between atoms: C_1  and  C_4
REMARK    2  A    between atoms: C_1  and  C_16
REMARK    3  A    between atoms: C_1  and  C_33
REMARK    4  A    between atoms: N_3  and  C_6
REMARK    5  A    between atoms: C_6  and  C_9
REMARK    6  A    between atoms: C_6  and  C_12
REMARK    7  A    between atoms: C_16  and  C_19
REMARK    8  A    between atoms: C_16  and  C_23
REMARK    9  A    between atoms: N_18  and  O_21
REMARK   10  A    between atoms: C_23  and  N_25
REMARK   11  A    between atoms: C_26  and  C_30
REMARK   12  A    between atoms: C_33  and  C_34
REMARK                            x       y       z     vdW  Elec       q    Type
REMARK                         _______ _______ _______ _____ _____    ______ ____
ROOT
ATOM      1  C   UNL     1      32.911 -23.500 -15.136  0.00  0.00    +0.087 C 
ENDROOT
BRANCH   1   4
ATOM      2  O   UNL     1      34.953 -22.241 -15.531  0.00  0.00    -0.275 OA
ATOM      3  N   UNL     1      35.036 -24.036 -14.069  0.00  0.00    -0.298 N 
ATOM      4  C   UNL     1      34.400 -23.170 -14.945  0.00  0.00    +0.223 C 
ATOM      5  H   UNL     1      34.507 -24.752 -13.647  0.00  0.00    +0.150 HD
BRANCH   3   6
ATOM      6  C   UNL     1      36.440 -23.935 -13.748  0.00  0.00    +0.148 C 
BRANCH   6   9
ATOM      7  O   UNL     1      38.252 -24.737 -15.148  0.00  0.00    -0.273 OA
ATOM      8  N   UNL     1      36.398 -26.096 -14.857  0.00  0.00    -0.301 N 
ATOM      9  C   UNL     1      37.140 -24.940 -14.663  0.00  0.00    +0.240 C 
ATOM     10  C   UNL     1      36.880 -27.188 -15.668  0.00  0.00    +0.111 C 
ATOM     11  H   UNL     1      35.515 -26.174 -14.429  0.00  0.00    +0.150 HD
ENDBRANCH   6   9
BRANCH   6  12
ATOM     12  C   UNL     1      36.730 -24.139 -12.232  0.00  0.00    +0.025 C 
ATOM     13  C   UNL     1      37.198 -22.803 -11.613  0.00  0.00    +0.002 C 
ATOM     14  C   UNL     1      35.451 -24.575 -11.489  0.00  0.00    +0.002 C 
ATOM     15  C   UNL     1      37.823 -25.196 -11.982  0.00  0.00    +0.002 C 
ENDBRANCH   6  12
ENDBRANCH   3   6
ENDBRANCH   1   4
BRANCH   1  16
ATOM     16  C   UNL     1      32.572 -23.713 -16.641  0.00  0.00    +0.107 C 
BRANCH  16  19
ATOM     17  O   UNL     1      31.755 -21.717 -17.765  0.00  0.00    -0.273 OA
ATOM     18  N   UNL     1      30.234 -23.083 -16.698  0.00  0.00    -0.197 N 
ATOM     19  C   UNL     1      31.496 -22.720 -17.103  0.00  0.00    +0.246 C 
ATOM     20  H   UNL     1      30.068 -23.896 -16.167  0.00  0.00    +0.182 HD
BRANCH  18  21
ATOM     21  O   UNL     1      29.198 -22.225 -17.088  0.00  0.00    -0.295 OA
ATOM     22  H   UNL     1      29.573 -21.419 -17.476  0.00  0.00    +0.241 HD
ENDBRANCH  18  21
ENDBRANCH  16  19
BRANCH  16  23
ATOM     23  C   UNL     1      33.809 -23.662 -17.552  0.00  0.00    +0.099 C 
BRANCH  23  25
ATOM     24  O   UNL     1      36.055 -22.290 -18.699  0.00  0.00    -0.268 OA
ATOM     25  N   UNL     1      33.763 -22.548 -18.465  0.00  0.00    -0.299 N 
ATOM     26  C   UNL     1      34.907 -21.947 -18.969  0.00  0.00    +0.270 C 
ATOM     27  H   UNL     1      32.885 -22.199 -18.741  0.00  0.00    +0.150 HD
BRANCH  26  30
ATOM     28  S   UNL     1      33.115 -20.407 -20.437  0.00  0.00    -0.061 S 
ATOM     29  N   UNL     1      35.666 -20.017 -20.298  0.00  0.00    -0.232 NA
ATOM     30  C   UNL     1      34.690 -20.792 -19.878  0.00  0.00    +0.164 C 
ATOM     31  C   UNL     1      33.774 -19.092 -21.318  0.00  0.00    +0.058 C 
ATOM     32  C   UNL     1      35.139 -19.044 -21.123  0.00  0.00    +0.107 C 
ENDBRANCH  26  30
ENDBRANCH  23  25
ENDBRANCH  16  23
ENDBRANCH   1  16
BRANCH   1  33
ATOM     33  C   UNL     1      32.548 -24.707 -14.238  0.00  0.00    +0.010 C 
BRANCH  33  34
ATOM     34  C   UNL     1      31.157 -24.672 -13.573  0.00  0.00    +0.000 C 
ATOM     35  C   UNL     1      30.662 -23.248 -13.319  0.00  0.00    +0.000 C 
ATOM     36  C   UNL     1      30.148 -25.418 -14.451  0.00  0.00    +0.000 C 
ENDBRANCH  33  34
ENDBRANCH   1  33
TORSDOF 12
ENDMDL
MODEL 5
REMARK VINA RESULT:      -8.1     10.356     14.722
REMARK  Name = 42609673
REMARK  12 active torsions:
REMARK  status: ('A' for Active; 'I' for Inactive)
REMARK    1  A    between atoms: C_1  and  C_4
REMARK    2  A    between atoms: C_1  and  C_16
REMARK    3  A    between atoms: C_1  and  C_33
REMARK    4  A    between atoms: N_3  and  C_6
REMARK    5  A    between atoms: C_6  and  C_9
REMARK    6  A    between atoms: C_6  and  C_12
REMARK    7  A    between atoms: C_16  and  C_19
REMARK    8  A    between atoms: C_16  and  C_23
REMARK    9  A    between atoms: N_18  and  O_21
REMARK   10  A    between atoms: C_23  and  N_25
REMARK   11  A    between atoms: C_26  and  C_30
REMARK   12  A    between atoms: C_33  and  C_34
REMARK                            x       y       z     vdW  Elec       q    Type
REMARK                         _______ _______ _______ _____ _____    ______ ____
ROOT
ATOM      1  C   UNL     1      36.133 -22.434 -17.582  0.00  0.00    +0.087 C 
ENDROOT
BRANCH   1   4
ATOM      2  O   UNL     1      37.204 -21.609 -15.561  0.00  0.00    -0.275 OA
ATOM      3  N   UNL     1      36.856 -23.890 -15.765  0.00  0.00    -0.298 N 
ATOM      4  C   UNL     1      36.783 -22.574 -16.196  0.00  0.00    +0.223 C 
ATOM      5  H   UNL     1      36.491 -24.596 -16.347  0.00  0.00    +0.150 HD
BRANCH   3   6
ATOM      6  C   UNL     1      37.444 -24.271 -14.503  0.00  0.00    +0.148 C 
BRANCH   6   9
ATOM      7  O   UNL     1      37.938 -26.476 -15.389  0.00  0.00    -0.273 OA
ATOM      8  N   UNL     1      39.658 -25.268 -14.413  0.00  0.00    -0.301 N 
ATOM      9  C   UNL     1      38.345 -25.466 -14.817  0.00  0.00    +0.240 C 
ATOM     10  C   UNL     1      40.684 -26.258 -14.632  0.00  0.00    +0.111 C 
ATOM     11  H   UNL     1      39.896 -24.426 -13.961  0.00  0.00    +0.150 HD
ENDBRANCH   6   9
BRANCH   6  12
ATOM     12  C   UNL     1      36.382 -24.543 -13.398  0.00  0.00    +0.025 C 
ATOM     13  C   UNL     1      36.145 -23.251 -12.584  0.00  0.00    +0.002 C 
ATOM     14  C   UNL     1      35.036 -24.951 -14.028  0.00  0.00    +0.002 C 
ATOM     15  C   UNL     1      36.822 -25.653 -12.424  0.00  0.00    +0.002 C 
ENDBRANCH   6  12
ENDBRANCH   3   6
ENDBRANCH   1   4
BRANCH   1  16
ATOM     16  C   UNL     1      34.584 -22.320 -17.466  0.00  0.00    +0.107 C 
BRANCH  16  19
ATOM     17  O   UNL     1      34.010 -23.519 -19.503  0.00  0.00    -0.273 OA
ATOM     18  N   UNL     1      33.230 -21.367 -19.233  0.00  0.00    -0.197 N 
ATOM     19  C   UNL     1      33.922 -22.487 -18.841  0.00  0.00    +0.246 C 
ATOM     20  H   UNL     1      33.184 -20.557 -18.674  0.00  0.00    +0.182 HD
BRANCH  18  21
ATOM     21  O   UNL     1      32.594 -21.447 -20.479  0.00  0.00    -0.295 OA
ATOM     22  H   UNL     1      31.710 -21.830 -20.368  0.00  0.00    +0.241 HD
ENDBRANCH  18  21
ENDBRANCH  16  19
BRANCH  16  23
ATOM     23  C   UNL     1      33.983 -23.286 -16.434  0.00  0.00    +0.099 C 
BRANCH  23  25
ATOM     24  O   UNL     1      31.879 -22.472 -14.658  0.00  0.00    -0.268 OA
ATOM     25  N   UNL     1      32.568 -23.476 -16.632  0.00  0.00    -0.299 N 
ATOM     26  C   UNL     1      31.621 -23.047 -15.713  0.00  0.00    +0.270 C 
ATOM     27  H   UNL     1      32.261 -23.929 -17.450  0.00  0.00    +0.150 HD
BRANCH  26  30
ATOM     28  S   UNL     1      29.415 -24.709 -15.380  0.00  0.00    -0.061 S 
ATOM     29  N   UNL     1      29.491 -22.593 -16.861  0.00  0.00    -0.232 NA
ATOM     30  C   UNL     1      30.205 -23.341 -16.050  0.00  0.00    +0.164 C 
ATOM     31  C   UNL     1      27.994 -24.279 -16.237  0.00  0.00    +0.058 C 
ATOM     32  C   UNL     1      28.224 -23.132 -16.967  0.00  0.00    +0.107 C 
ENDBRANCH  26  30
ENDBRANCH  23  25
ENDBRANCH  16  23
ENDBRANCH   1  16
BRANCH   1  33
ATOM     33  C   UNL     1      36.793 -21.247 -18.324  0.00  0.00    +0.010 C 
BRANCH  33  34
ATOM     34  C   UNL     1      36.363 -21.032 -19.789  0.00  0.00    +0.000 C 
ATOM     35  C   UNL     1      36.705 -19.633 -20.303  0.00  0.00    +0.000 C 
ATOM     36  C   UNL     1      37.027 -22.085 -20.681  0.00  0.00    +0.000 C 
ENDBRANCH  33  34
ENDBRANCH   1  33
TORSDOF 12
ENDMDL
MODEL 6
REMARK VINA RESULT:      -7.8      1.694      3.316
REMARK  Name = 42609673
REMARK  12 active torsions:
REMARK  status: ('A' for Active; 'I' for Inactive)
REMARK    1  A    between atoms: C_1  and  C_4
REMARK    2  A    between atoms: C_1  and  C_16
REMARK    3  A    between atoms: C_1  and  C_33
REMARK    4  A    between atoms: N_3  and  C_6
REMARK    5  A    between atoms: C_6  and  C_9
REMARK    6  A    between atoms: C_6  and  C_12
REMARK    7  A    between atoms: C_16  and  C_19
REMARK    8  A    between atoms: C_16  and  C_23
REMARK    9  A    between atoms: N_18  and  O_21
REMARK   10  A    between atoms: C_23  and  N_25
REMARK   11  A    between atoms: C_26  and  C_30
REMARK   12  A    between atoms: C_33  and  C_34
REMARK                            x       y       z     vdW  Elec       q    Type
REMARK                         _______ _______ _______ _____ _____    ______ ____
ROOT
ATOM      1  C   UNL     1      31.535 -11.821 -21.262  0.00  0.00    +0.087 C 
ENDROOT
BRANCH   1   4
ATOM      2  O   UNL     1      30.459 -10.593 -23.063  0.00  0.00    -0.275 OA
ATOM      3  N   UNL     1      32.682 -10.134 -22.597  0.00  0.00    -0.298 N 
ATOM      4  C   UNL     1      31.476 -10.789 -22.399  0.00  0.00    +0.223 C 
ATOM      5  H   UNL     1      33.441 -10.361 -22.012  0.00  0.00    +0.150 HD
BRANCH   3   6
ATOM      6  C   UNL     1      32.874  -9.136 -23.622  0.00  0.00    +0.148 C 
BRANCH   6   9
ATOM      7  O   UNL     1      35.282  -8.954 -23.859  0.00  0.00    -0.273 OA
ATOM      8  N   UNL     1      34.137 -10.378 -25.284  0.00  0.00    -0.301 N 
ATOM      9  C   UNL     1      34.230  -9.455 -24.252  0.00  0.00    +0.240 C 
ATOM     10  C   UNL     1      35.298 -10.841 -26.004  0.00  0.00    +0.111 C 
ATOM     11  H   UNL     1      33.251 -10.728 -25.533  0.00  0.00    +0.150 HD
ENDBRANCH   6   9
BRANCH   6  12
ATOM     12  C   UNL     1      32.744  -7.681 -23.082  0.00  0.00    +0.025 C 
ATOM     13  C   UNL     1      33.251  -6.689 -24.151  0.00  0.00    +0.002 C 
ATOM     14  C   UNL     1      31.269  -7.341 -22.791  0.00  0.00    +0.002 C 
ATOM     15  C   UNL     1      33.559  -7.461 -21.793  0.00  0.00    +0.002 C 
ENDBRANCH   6  12
ENDBRANCH   3   6
ENDBRANCH   1   4
BRANCH   1  16
ATOM     16  C   UNL     1      31.932 -13.227 -21.800  0.00  0.00    +0.107 C 
BRANCH  16  19
ATOM     17  O   UNL     1      34.031 -12.661 -22.891  0.00  0.00    -0.273 OA
ATOM     18  N   UNL     1      32.325 -13.541 -24.169  0.00  0.00    -0.197 N 
ATOM     19  C   UNL     1      32.888 -13.103 -22.994  0.00  0.00    +0.246 C 
ATOM     20  H   UNL     1      31.404 -13.888 -24.211  0.00  0.00    +0.182 HD
BRANCH  18  21
ATOM     21  O   UNL     1      33.142 -13.462 -25.304  0.00  0.00    -0.295 OA
ATOM     22  H   UNL     1      32.589 -13.375 -26.096  0.00  0.00    +0.241 HD
ENDBRANCH  18  21
ENDBRANCH  16  19
BRANCH  16  23
ATOM     23  C   UNL     1      32.510 -14.148 -20.713  0.00  0.00    +0.099 C 
BRANCH  23  25
ATOM     24  O   UNL     1      35.025 -15.260 -19.889  0.00  0.00    -0.268 OA
ATOM     25  N   UNL     1      33.167 -15.301 -21.276  0.00  0.00    -0.299 N 
ATOM     26  C   UNL     1      34.388 -15.766 -20.809  0.00  0.00    +0.270 C 
ATOM     27  H   UNL     1      32.734 -15.776 -22.021  0.00  0.00    +0.150 HD
BRANCH  26  30
ATOM     28  S   UNL     1      34.934 -17.031 -23.225  0.00  0.00    -0.061 S 
ATOM     29  N   UNL     1      35.469 -17.978 -20.881  0.00  0.00    -0.232 NA
ATOM     30  C   UNL     1      34.947 -16.950 -21.512  0.00  0.00    +0.164 C 
ATOM     31  C   UNL     1      35.690 -18.567 -23.135  0.00  0.00    +0.058 C 
ATOM     32  C   UNL     1      35.895 -18.904 -21.813  0.00  0.00    +0.107 C 
ENDBRANCH  26  30
ENDBRANCH  23  25
ENDBRANCH  16  23
ENDBRANCH   1  16
BRANCH   1  33
ATOM     33  C   UNL     1      32.475 -11.288 -20.153  0.00  0.00    +0.010 C 
BRANCH  33  34
ATOM     34  C   UNL     1      31.829 -10.382 -19.085  0.00  0.00    +0.000 C 
ATOM     35  C   UNL     1      32.086  -8.897 -19.342  0.00  0.00    +0.000 C 
ATOM     36  C   UNL     1      30.321 -10.642 -19.033  0.00  0.00    +0.000 C 
ENDBRANCH  33  34
ENDBRANCH   1  33
TORSDOF 12
ENDMDL
MODEL 7
REMARK VINA RESULT:      -7.6      3.531      8.643
REMARK  Name = 42609673
REMARK  12 active torsions:
REMARK  status: ('A' for Active; 'I' for Inactive)
REMARK    1  A    between atoms: C_1  and  C_4
REMARK    2  A    between atoms: C_1  and  C_16
REMARK    3  A    between atoms: C_1  and  C_33
REMARK    4  A    between atoms: N_3  and  C_6
REMARK    5  A    between atoms: C_6  and  C_9
REMARK    6  A    between atoms: C_6  and  C_12
REMARK    7  A    between atoms: C_16  and  C_19
REMARK    8  A    between atoms: C_16  and  C_23
REMARK    9  A    between atoms: N_18  and  O_21
REMARK   10  A    between atoms: C_23  and  N_25
REMARK   11  A    between atoms: C_26  and  C_30
REMARK   12  A    between atoms: C_33  and  C_34
REMARK                            x       y       z     vdW  Elec       q    Type
REMARK                         _______ _______ _______ _____ _____    ______ ____
ROOT
ATOM      1  C   UNL     1      32.097  -9.032 -22.457  0.00  0.00    +0.087 C 
ENDROOT
BRANCH   1   4
ATOM      2  O   UNL     1      30.373 -10.741 -22.606  0.00  0.00    -0.275 OA
ATOM      3  N   UNL     1      32.585 -11.388 -22.849  0.00  0.00    -0.298 N 
ATOM      4  C   UNL     1      31.571 -10.464 -22.648  0.00  0.00    +0.223 C 
ATOM      5  H   UNL     1      33.516 -11.069 -22.866  0.00  0.00    +0.150 HD
BRANCH   3   6
ATOM      6  C   UNL     1      32.335 -12.798 -23.032  0.00  0.00    +0.148 C 
BRANCH   6   9
ATOM      7  O   UNL     1      32.447 -12.725 -20.609  0.00  0.00    -0.273 OA
ATOM      8  N   UNL     1      32.332 -14.794 -21.647  0.00  0.00    -0.301 N 
ATOM      9  C   UNL     1      32.387 -13.407 -21.631  0.00  0.00    +0.240 C 
ATOM     10  C   UNL     1      32.344 -15.574 -20.434  0.00  0.00    +0.111 C 
ATOM     11  H   UNL     1      32.286 -15.260 -22.513  0.00  0.00    +0.150 HD
ENDBRANCH   6   9
BRANCH   6  12
ATOM     12  C   UNL     1      33.309 -13.457 -24.054  0.00  0.00    +0.025 C 
ATOM     13  C   UNL     1      33.984 -12.358 -24.903  0.00  0.00    +0.002 C 
ATOM     14  C   UNL     1      34.422 -14.230 -23.320  0.00  0.00    +0.002 C 
ATOM     15  C   UNL     1      32.586 -14.429 -25.007  0.00  0.00    +0.002 C 
ENDBRANCH   6  12
ENDBRANCH   3   6
ENDBRANCH   1   4
BRANCH   1  16
ATOM     16  C   UNL     1      31.571  -8.414 -21.128  0.00  0.00    +0.107 C 
BRANCH  16  19
ATOM     17  O   UNL     1      32.917  -9.203 -19.262  0.00  0.00    -0.273 OA
ATOM     18  N   UNL     1      30.928 -10.275 -19.718  0.00  0.00    -0.197 N 
ATOM     19  C   UNL     1      31.897  -9.326 -19.937  0.00  0.00    +0.246 C 
ATOM     20  H   UNL     1      30.123 -10.342 -20.282  0.00  0.00    +0.182 HD
BRANCH  18  21
ATOM     21  O   UNL     1      31.155 -11.143 -18.642  0.00  0.00    -0.295 OA
ATOM     22  H   UNL     1      31.797 -10.744 -18.034  0.00  0.00    +0.241 HD
ENDBRANCH  18  21
ENDBRANCH  16  19
BRANCH  16  23
ATOM     23  C   UNL     1      32.072  -6.981 -20.890  0.00  0.00    +0.099 C 
BRANCH  23  25
ATOM     24  O   UNL     1      30.040  -5.152 -21.767  0.00  0.00    -0.268 OA
ATOM     25  N   UNL     1      32.080  -6.202 -22.103  0.00  0.00    -0.299 N 
ATOM     26  C   UNL     1      31.047  -5.341 -22.444  0.00  0.00    +0.270 C 
ATOM     27  H   UNL     1      32.848  -6.286 -22.713  0.00  0.00    +0.150 HD
BRANCH  26  30
ATOM     28  S   UNL     1      32.178  -5.282 -24.985  0.00  0.00    -0.061 S 
ATOM     29  N   UNL     1      30.593  -3.491 -24.006  0.00  0.00    -0.232 NA
ATOM     30  C   UNL     1      31.193  -4.630 -23.741  0.00  0.00    +0.164 C 
ATOM     31  C   UNL     1      31.780  -3.938 -25.972  0.00  0.00    +0.058 C 
ATOM     32  C   UNL     1      30.931  -3.096 -25.285  0.00  0.00    +0.107 C 
ENDBRANCH  26  30
ENDBRANCH  23  25
ENDBRANCH  16  23
ENDBRANCH   1  16
BRANCH   1  33
ATOM     33  C   UNL     1      33.640  -9.048 -22.571  0.00  0.00    +0.010 C 
BRANCH  33  34
ATOM     34  C   UNL     1      34.237  -8.468 -23.869  0.00  0.00    +0.000 C 
ATOM     35  C   UNL     1      35.041  -7.191 -23.628  0.00  0.00    +0.000 C 
ATOM     36  C   UNL     1      35.127  -9.518 -24.541  0.00  0.00    +0.000 C 
ENDBRANCH  33  34
ENDBRANCH   1  33
TORSDOF 12
ENDMDL
MODEL 8
REMARK VINA RESULT:      -7.6      7.738     13.474
REMARK  Name = 42609673
REMARK  12 active torsions:
REMARK  status: ('A' for Active; 'I' for Inactive)
REMARK    1  A    between atoms: C_1  and  C_4
REMARK    2  A    between atoms: C_1  and  C_16
REMARK    3  A    between atoms: C_1  and  C_33
REMARK    4  A    between atoms: N_3  and  C_6
REMARK    5  A    between atoms: C_6  and  C_9
REMARK    6  A    between atoms: C_6  and  C_12
REMARK    7  A    between atoms: C_16  and  C_19
REMARK    8  A    between atoms: C_16  and  C_23
REMARK    9  A    between atoms: N_18  and  O_21
REMARK   10  A    between atoms: C_23  and  N_25
REMARK   11  A    between atoms: C_26  and  C_30
REMARK   12  A    between atoms: C_33  and  C_34
REMARK                            x       y       z     vdW  Elec       q    Type
REMARK                         _______ _______ _______ _____ _____    ______ ____
ROOT
ATOM      1  C   UNL     1      34.947 -23.102 -17.047  0.00  0.00    +0.087 C 
ENDROOT
BRANCH   1   4
ATOM      2  O   UNL     1      33.281 -24.501 -18.136  0.00  0.00    -0.275 OA
ATOM      3  N   UNL     1      32.742 -23.534 -16.100  0.00  0.00    -0.298 N 
ATOM      4  C   UNL     1      33.582 -23.799 -17.171  0.00  0.00    +0.223 C 
ATOM      5  H   UNL     1      33.074 -22.959 -15.373  0.00  0.00    +0.150 HD
BRANCH   3   6
ATOM      6  C   UNL     1      31.403 -24.063 -16.005  0.00  0.00    +0.148 C 
BRANCH   6   9
ATOM      7  O   UNL     1      30.942 -22.047 -17.275  0.00  0.00    -0.273 OA
ATOM      8  N   UNL     1      29.152 -23.271 -16.460  0.00  0.00    -0.301 N 
ATOM      9  C   UNL     1      30.501 -23.007 -16.646  0.00  0.00    +0.240 C 
ATOM     10  C   UNL     1      28.123 -22.417 -17.002  0.00  0.00    +0.111 C 
ATOM     11  H   UNL     1      28.887 -24.065 -15.941  0.00  0.00    +0.150 HD
ENDBRANCH   6   9
BRANCH   6  12
ATOM     12  C   UNL     1      31.006 -24.446 -14.549  0.00  0.00    +0.025 C 
ATOM     13  C   UNL     1      32.217 -25.087 -13.837  0.00  0.00    +0.002 C 
ATOM     14  C   UNL     1      30.604 -23.191 -13.749  0.00  0.00    +0.002 C 
ATOM     15  C   UNL     1      29.835 -25.447 -14.506  0.00  0.00    +0.002 C 
ENDBRANCH   6  12
ENDBRANCH   3   6
ENDBRANCH   1   4
BRANCH   1  16
ATOM     16  C   UNL     1      35.014 -21.837 -17.952  0.00  0.00    +0.107 C 
BRANCH  16  19
ATOM     17  O   UNL     1      37.158 -21.671 -19.088  0.00  0.00    -0.273 OA
ATOM     18  N   UNL     1      36.885 -20.569 -17.081  0.00  0.00    -0.197 N 
ATOM     19  C   UNL     1      36.465 -21.364 -18.120  0.00  0.00    +0.246 C 
ATOM     20  H   UNL     1      36.299 -20.347 -16.321  0.00  0.00    +0.182 HD
BRANCH  18  21
ATOM     21  O   UNL     1      38.201 -20.096 -17.167  0.00  0.00    -0.295 OA
ATOM     22  H   UNL     1      38.623 -20.455 -17.963  0.00  0.00    +0.241 HD
ENDBRANCH  18  21
ENDBRANCH  16  19
BRANCH  16  23
ATOM     23  C   UNL     1      34.327 -22.030 -19.313  0.00  0.00    +0.099 C 
BRANCH  23  25
ATOM     24  O   UNL     1      32.596 -20.016 -20.404  0.00  0.00    -0.268 OA
ATOM     25  N   UNL     1      34.691 -21.000 -20.253  0.00  0.00    -0.299 N 
ATOM     26  C   UNL     1      33.780 -20.065 -20.726  0.00  0.00    +0.270 C 
ATOM     27  H   UNL     1      35.621 -20.958 -20.572  0.00  0.00    +0.150 HD
BRANCH  26  30
ATOM     28  S   UNL     1      34.574 -17.453 -21.258  0.00  0.00    -0.061 S 
ATOM     29  N   UNL     1      34.588 -19.401 -22.956  0.00  0.00    -0.232 NA
ATOM     30  C   UNL     1      34.306 -19.085 -21.711  0.00  0.00    +0.164 C 
ATOM     31  C   UNL     1      35.116 -17.124 -22.851  0.00  0.00    +0.058 C 
ATOM     32  C   UNL     1      35.053 -18.275 -23.607  0.00  0.00    +0.107 C 
ENDBRANCH  26  30
ENDBRANCH  23  25
ENDBRANCH  16  23
ENDBRANCH   1  16
BRANCH   1  33
ATOM     33  C   UNL     1      35.228 -22.817 -15.552  0.00  0.00    +0.010 C 
BRANCH  33  34
ATOM     34  C   UNL     1      36.194 -23.785 -14.840  0.00  0.00    +0.000 C 
ATOM     35  C   UNL     1      35.814 -25.252 -15.045  0.00  0.00    +0.000 C 
ATOM     36  C   UNL     1      37.622 -23.549 -15.341  0.00  0.00    +0.000 C 
ENDBRANCH  33  34
ENDBRANCH   1  33
TORSDOF 12
ENDMDL
MODEL 9
REMARK VINA RESULT:      -7.5      3.169      6.349
REMARK  Name = 42609673
REMARK  12 active torsions:
REMARK  status: ('A' for Active; 'I' for Inactive)
REMARK    1  A    between atoms: C_1  and  C_4
REMARK    2  A    between atoms: C_1  and  C_16
REMARK    3  A    between atoms: C_1  and  C_33
REMARK    4  A    between atoms: N_3  and  C_6
REMARK    5  A    between atoms: C_6  and  C_9
REMARK    6  A    between atoms: C_6  and  C_12
REMARK    7  A    between atoms: C_16  and  C_19
REMARK    8  A    between atoms: C_16  and  C_23
REMARK    9  A    between atoms: N_18  and  O_21
REMARK   10  A    between atoms: C_23  and  N_25
REMARK   11  A    between atoms: C_26  and  C_30
REMARK   12  A    between atoms: C_33  and  C_34
REMARK                            x       y       z     vdW  Elec       q    Type
REMARK                         _______ _______ _______ _____ _____    ______ ____
ROOT
ATOM      1  C   UNL     1      34.111 -16.542 -22.512  0.00  0.00    +0.087 C 
ENDROOT
BRANCH   1   4
ATOM      2  O   UNL     1      35.727 -15.769 -24.156  0.00  0.00    -0.275 OA
ATOM      3  N   UNL     1      33.734 -14.608 -23.947  0.00  0.00    -0.298 N 
ATOM      4  C   UNL     1      34.627 -15.619 -23.628  0.00  0.00    +0.223 C 
ATOM      5  H   UNL     1      32.875 -14.569 -23.467  0.00  0.00    +0.150 HD
BRANCH   3   6
ATOM      6  C   UNL     1      34.008 -13.607 -24.951  0.00  0.00    +0.148 C 
BRANCH   6   9
ATOM      7  O   UNL     1      32.847 -12.120 -23.424  0.00  0.00    -0.273 OA
ATOM      8  N   UNL     1      34.562 -11.254 -24.718  0.00  0.00    -0.301 N 
ATOM      9  C   UNL     1      33.720 -12.264 -24.278  0.00  0.00    +0.240 C 
ATOM     10  C   UNL     1      34.482  -9.910 -24.199  0.00  0.00    +0.111 C 
ATOM     11  H   UNL     1      35.235 -11.459 -25.408  0.00  0.00    +0.150 HD
ENDBRANCH   6   9
BRANCH   6  12
ATOM     12  C   UNL     1      33.219 -13.844 -26.272  0.00  0.00    +0.025 C 
ATOM     13  C   UNL     1      34.095 -13.430 -27.475  0.00  0.00    +0.002 C 
ATOM     14  C   UNL     1      32.875 -15.338 -26.438  0.00  0.00    +0.002 C 
ATOM     15  C   UNL     1      31.910 -13.033 -26.326  0.00  0.00    +0.002 C 
ENDBRANCH   6  12
ENDBRANCH   3   6
ENDBRANCH   1   4
BRANCH   1  16
ATOM     16  C   UNL     1      34.655 -17.990 -22.685  0.00  0.00    +0.107 C 
BRANCH  16  19
ATOM     17  O   UNL     1      35.789 -18.205 -20.544  0.00  0.00    -0.273 OA
ATOM     18  N   UNL     1      37.018 -18.479 -22.475  0.00  0.00    -0.197 N 
ATOM     19  C   UNL     1      35.865 -18.231 -21.771  0.00  0.00    +0.246 C 
ATOM     20  H   UNL     1      37.038 -18.490 -23.460  0.00  0.00    +0.182 HD
BRANCH  18  21
ATOM     21  O   UNL     1      38.165 -18.712 -21.705  0.00  0.00    -0.295 OA
ATOM     22  H   UNL     1      37.910 -19.095 -20.851  0.00  0.00    +0.241 HD
ENDBRANCH  18  21
ENDBRANCH  16  19
BRANCH  16  23
ATOM     23  C   UNL     1      33.578 -19.068 -22.485  0.00  0.00    +0.099 C 
BRANCH  23  25
ATOM     24  O   UNL     1      32.001 -19.867 -20.222  0.00  0.00    -0.268 OA
ATOM     25  N   UNL     1      33.950 -20.021 -21.470  0.00  0.00    -0.299 N 
ATOM     26  C   UNL     1      33.117 -20.345 -20.408  0.00  0.00    +0.270 C 
ATOM     27  H   UNL     1      34.829 -20.460 -21.532  0.00  0.00    +0.150 HD
BRANCH  26  30
ATOM     28  S   UNL     1      35.350 -21.495 -19.212  0.00  0.00    -0.061 S 
ATOM     29  N   UNL     1      32.892 -22.104 -18.699  0.00  0.00    -0.232 NA
ATOM     30  C   UNL     1      33.657 -21.326 -19.432  0.00  0.00    +0.164 C 
ATOM     31  C   UNL     1      35.054 -22.707 -18.037  0.00  0.00    +0.058 C 
ATOM     32  C   UNL     1      33.694 -22.895 -17.900  0.00  0.00    +0.107 C 
ENDBRANCH  26  30
ENDBRANCH  23  25
ENDBRANCH  16  23
ENDBRANCH   1  16
BRANCH   1  33
ATOM     33  C   UNL     1      34.452 -15.907 -21.142  0.00  0.00    +0.010 C 
BRANCH  33  34
ATOM     34  C   UNL     1      33.259 -15.398 -20.307  0.00  0.00    +0.000 C 
ATOM     35  C   UNL     1      32.910 -13.941 -20.607  0.00  0.00    +0.000 C 
ATOM     36  C   UNL     1      32.036 -16.284 -20.565  0.00  0.00    +0.000 C 
ENDBRANCH  33  34
ENDBRANCH   1  33
TORSDOF 12
ENDMDL
