MODEL 1
REMARK VINA RESULT:      -6.5      0.000      0.000
REMARK  Name = 54445
REMARK  4 active torsions:
REMARK  status: ('A' for Active; 'I' for Inactive)
REMARK    1  A    between atoms: C_3  and  O_11
REMARK    2  A    between atoms: C_4  and  O_13
REMARK    3  A    between atoms: C_7  and  O_15
REMARK    4  A    between atoms: C_9  and  O_17
REMARK                            x       y       z     vdW  Elec       q    Type
REMARK                         _______ _______ _______ _____ _____    ______ ____
ROOT
ATOM      1  N   UNL     1      37.781 -24.732 -12.690  0.00  0.00    +0.393 N 
ATOM      2  C   UNL     1      36.648 -24.316 -13.524  0.00  0.00    -0.001 C 
ATOM      3  C   UNL     1      36.246 -25.439 -14.478  0.00  0.00    +0.123 C 
ATOM      4  C   UNL     1      35.634 -23.886 -12.465  0.00  0.00    +0.092 C 
ATOM      5  C   UNL     1      37.940 -23.672 -11.700  0.00  0.00    -0.075 C 
ATOM      6  C   UNL     1      38.971 -24.991 -13.487  0.00  0.00    -0.045 C 
ATOM      7  C   UNL     1      37.451 -25.846 -15.340  0.00  0.00    +0.160 C 
ATOM      8  C   UNL     1      36.501 -23.280 -11.356  0.00  0.00    +0.004 C 
ATOM      9  C   UNL     1      38.691 -26.124 -14.480  0.00  0.00    +0.119 C 
ATOM     10  H   UNL     1      37.615 -25.622 -12.221  0.00  0.00    -0.079 HD
ENDROOT
BRANCH   3  11
ATOM     11  O   UNL     1      35.212 -24.983 -15.346  0.00  0.00    -0.384 OA
ATOM     12  H   UNL     1      34.481 -25.621 -15.341  0.00  0.00    +0.210 HD
ENDBRANCH   3  11
BRANCH   4  13
ATOM     13  O   UNL     1      34.913 -24.989 -11.931  0.00  0.00    -0.387 OA
ATOM     14  H   UNL     1      34.016 -24.704 -11.693  0.00  0.00    +0.210 HD
ENDBRANCH   4  13
BRANCH   7  15
ATOM     15  O   UNL     1      37.129 -27.040 -16.058  0.00  0.00    -0.380 OA
ATOM     16  H   UNL     1      37.824 -27.700 -15.916  0.00  0.00    +0.211 HD
ENDBRANCH   7  15
BRANCH   9  17
ATOM     17  O   UNL     1      39.831 -26.264 -15.328  0.00  0.00    -0.384 OA
ATOM     18  H   UNL     1      40.265 -25.403 -15.428  0.00  0.00    +0.210 HD
ENDBRANCH   9  17
TORSDOF 4
ENDMDL
MODEL 2
REMARK VINA RESULT:      -6.4      2.808      3.947
REMARK  Name = 54445
REMARK  4 active torsions:
REMARK  status: ('A' for Active; 'I' for Inactive)
REMARK    1  A    between atoms: C_3  and  O_11
REMARK    2  A    between atoms: C_4  and  O_13
REMARK    3  A    between atoms: C_7  and  O_15
REMARK    4  A    between atoms: C_9  and  O_17
REMARK                            x       y       z     vdW  Elec       q    Type
REMARK                         _______ _______ _______ _____ _____    ______ ____
ROOT
ATOM      1  N   UNL     1      36.180 -23.101 -14.130  0.00  0.00    +0.393 N 
ATOM      2  C   UNL     1      35.378 -24.212 -13.606  0.00  0.00    -0.001 C 
ATOM      3  C   UNL     1      35.252 -24.111 -12.087  0.00  0.00    +0.123 C 
ATOM      4  C   UNL     1      34.101 -24.081 -14.436  0.00  0.00    +0.092 C 
ATOM      5  C   UNL     1      36.062 -23.191 -15.582  0.00  0.00    -0.075 C 
ATOM      6  C   UNL     1      37.549 -23.145 -13.637  0.00  0.00    -0.045 C 
ATOM      7  C   UNL     1      36.649 -24.086 -11.449  0.00  0.00    +0.160 C 
ATOM      8  C   UNL     1      34.602 -23.596 -15.800  0.00  0.00    +0.004 C 
ATOM      9  C   UNL     1      37.550 -23.034 -12.108  0.00  0.00    +0.119 C 
ATOM     10  H   UNL     1      35.845 -22.193 -13.810  0.00  0.00    -0.079 HD
ENDROOT
BRANCH   3  11
ATOM     11  O   UNL     1      34.555 -25.250 -11.588  0.00  0.00    -0.384 OA
ATOM     12  H   UNL     1      33.611 -25.167 -11.796  0.00  0.00    +0.210 HD
ENDBRANCH   3  11
BRANCH   4  13
ATOM     13  O   UNL     1      33.211 -23.108 -13.903  0.00  0.00    -0.387 OA
ATOM     14  H   UNL     1      32.469 -22.980 -14.515  0.00  0.00    +0.210 HD
ENDBRANCH   4  13
BRANCH   7  15
ATOM     15  O   UNL     1      36.524 -23.762 -10.063  0.00  0.00    -0.380 OA
ATOM     16  H   UNL     1      36.515 -24.578  -9.540  0.00  0.00    +0.211 HD
ENDBRANCH   7  15
BRANCH   9  17
ATOM     17  O   UNL     1      38.891 -23.208 -11.651  0.00  0.00    -0.384 OA
ATOM     18  H   UNL     1      39.446 -22.491 -11.998  0.00  0.00    +0.210 HD
ENDBRANCH   9  17
TORSDOF 4
ENDMDL
MODEL 3
REMARK VINA RESULT:      -6.4     12.524     13.220
REMARK  Name = 54445
REMARK  4 active torsions:
REMARK  status: ('A' for Active; 'I' for Inactive)
REMARK    1  A    between atoms: C_3  and  O_11
REMARK    2  A    between atoms: C_4  and  O_13
REMARK    3  A    between atoms: C_7  and  O_15
REMARK    4  A    between atoms: C_9  and  O_17
REMARK                            x       y       z     vdW  Elec       q    Type
REMARK                         _______ _______ _______ _____ _____    ______ ____
ROOT
ATOM      1  N   UNL     1      33.816 -14.960 -22.959  0.00  0.00    +0.393 N 
ATOM      2  C   UNL     1      33.675 -16.019 -21.953  0.00  0.00    -0.001 C 
ATOM      3  C   UNL     1      34.819 -17.023 -22.070  0.00  0.00    +0.123 C 
ATOM      4  C   UNL     1      33.574 -15.201 -20.666  0.00  0.00    +0.092 C 
ATOM      5  C   UNL     1      32.798 -13.971 -22.624  0.00  0.00    -0.075 C 
ATOM      6  C   UNL     1      33.717 -15.486 -24.313  0.00  0.00    -0.045 C 
ATOM      7  C   UNL     1      34.856 -17.609 -23.489  0.00  0.00    +0.160 C 
ATOM      8  C   UNL     1      32.813 -13.942 -21.093  0.00  0.00    +0.004 C 
ATOM      9  C   UNL     1      34.837 -16.504 -24.554  0.00  0.00    +0.119 C 
ATOM     10  H   UNL     1      34.739 -14.527 -22.943  0.00  0.00    -0.079 HD
ENDROOT
BRANCH   3  11
ATOM     11  O   UNL     1      34.611 -18.094 -21.152  0.00  0.00    -0.384 OA
ATOM     12  H   UNL     1      33.756 -18.516 -21.337  0.00  0.00    +0.210 HD
ENDBRANCH   3  11
BRANCH   4  13
ATOM     13  O   UNL     1      34.850 -14.818 -20.171  0.00  0.00    -0.387 OA
ATOM     14  H   UNL     1      34.872 -13.856 -20.043  0.00  0.00    +0.210 HD
ENDBRANCH   4  13
BRANCH   7  15
ATOM     15  O   UNL     1      36.058 -18.364 -23.651  0.00  0.00    -0.380 OA
ATOM     16  H   UNL     1      36.111 -18.698 -24.560  0.00  0.00    +0.211 HD
ENDBRANCH   7  15
BRANCH   9  17
ATOM     17  O   UNL     1      34.635 -17.091 -25.839  0.00  0.00    -0.384 OA
ATOM     18  H   UNL     1      34.395 -18.025 -25.733  0.00  0.00    +0.210 HD
ENDBRANCH   9  17
TORSDOF 4
ENDMDL
MODEL 4
REMARK VINA RESULT:      -6.3      2.544      3.408
REMARK  Name = 54445
REMARK  4 active torsions:
REMARK  status: ('A' for Active; 'I' for Inactive)
REMARK    1  A    between atoms: C_3  and  O_11
REMARK    2  A    between atoms: C_4  and  O_13
REMARK    3  A    between atoms: C_7  and  O_15
REMARK    4  A    between atoms: C_9  and  O_17
REMARK                            x       y       z     vdW  Elec       q    Type
REMARK                         _______ _______ _______ _____ _____    ______ ____
ROOT
ATOM      1  N   UNL     1      35.190 -23.252 -15.008  0.00  0.00    +0.393 N 
ATOM      2  C   UNL     1      35.091 -24.448 -14.165  0.00  0.00    -0.001 C 
ATOM      3  C   UNL     1      36.277 -24.526 -13.206  0.00  0.00    +0.123 C 
ATOM      4  C   UNL     1      33.698 -24.278 -13.561  0.00  0.00    +0.092 C 
ATOM      5  C   UNL     1      33.923 -23.181 -15.727  0.00  0.00    -0.075 C 
ATOM      6  C   UNL     1      36.365 -23.293 -15.867  0.00  0.00    -0.045 C 
ATOM      7  C   UNL     1      37.592 -24.515 -14.001  0.00  0.00    +0.160 C 
ATOM      8  C   UNL     1      32.891 -23.620 -14.685  0.00  0.00    +0.004 C 
ATOM      9  C   UNL     1      37.631 -23.356 -15.006  0.00  0.00    +0.119 C 
ATOM     10  H   UNL     1      35.328 -22.401 -14.463  0.00  0.00    -0.079 HD
ENDROOT
BRANCH   3  11
ATOM     11  O   UNL     1      36.215 -25.743 -12.466  0.00  0.00    -0.384 OA
ATOM     12  H   UNL     1      36.024 -25.546 -11.535  0.00  0.00    +0.210 HD
ENDBRANCH   3  11
BRANCH   4  13
ATOM     13  O   UNL     1      33.702 -23.411 -12.434  0.00  0.00    -0.387 OA
ATOM     14  H   UNL     1      34.260 -23.791 -11.736  0.00  0.00    +0.210 HD
ENDBRANCH   4  13
BRANCH   7  15
ATOM     15  O   UNL     1      38.684 -24.356 -13.093  0.00  0.00    -0.380 OA
ATOM     16  H   UNL     1      38.343 -24.187 -12.202  0.00  0.00    +0.211 HD
ENDBRANCH   7  15
BRANCH   9  17
ATOM     17  O   UNL     1      38.751 -23.524 -15.875  0.00  0.00    -0.384 OA
ATOM     18  H   UNL     1      39.553 -23.652 -15.346  0.00  0.00    +0.210 HD
ENDBRANCH   9  17
TORSDOF 4
ENDMDL
MODEL 5
REMARK VINA RESULT:      -6.3     12.820     13.756
REMARK  Name = 54445
REMARK  4 active torsions:
REMARK  status: ('A' for Active; 'I' for Inactive)
REMARK    1  A    between atoms: C_3  and  O_11
REMARK    2  A    between atoms: C_4  and  O_13
REMARK    3  A    between atoms: C_7  and  O_15
REMARK    4  A    between atoms: C_9  and  O_17
REMARK                            x       y       z     vdW  Elec       q    Type
REMARK                         _______ _______ _______ _____ _____    ______ ____
ROOT
ATOM      1  N   UNL     1      34.745 -16.025 -22.418  0.00  0.00    +0.393 N 
ATOM      2  C   UNL     1      34.414 -17.226 -23.193  0.00  0.00    -0.001 C 
ATOM      3  C   UNL     1      34.551 -16.951 -24.689  0.00  0.00    +0.123 C 
ATOM      4  C   UNL     1      35.355 -18.257 -22.570  0.00  0.00    +0.092 C 
ATOM      5  C   UNL     1      34.773 -16.461 -21.025  0.00  0.00    -0.075 C 
ATOM      6  C   UNL     1      33.815 -14.938 -22.685  0.00  0.00    -0.045 C 
ATOM      7  C   UNL     1      33.653 -15.770 -25.086  0.00  0.00    +0.160 C 
ATOM      8  C   UNL     1      35.417 -17.848 -21.094  0.00  0.00    +0.004 C 
ATOM      9  C   UNL     1      33.877 -14.560 -24.170  0.00  0.00    +0.119 C 
ATOM     10  H   UNL     1      35.648 -15.630 -22.676  0.00  0.00    -0.079 HD
ENDROOT
BRANCH   3  11
ATOM     11  O   UNL     1      34.132 -18.096 -25.427  0.00  0.00    -0.384 OA
ATOM     12  H   UNL     1      34.744 -18.247 -26.165  0.00  0.00    +0.210 HD
ENDBRANCH   3  11
BRANCH   4  13
ATOM     13  O   UNL     1      36.665 -18.190 -23.119  0.00  0.00    -0.387 OA
ATOM     14  H   UNL     1      37.247 -18.805 -22.643  0.00  0.00    +0.210 HD
ENDBRANCH   4  13
BRANCH   7  15
ATOM     15  O   UNL     1      33.962 -15.378 -26.426  0.00  0.00    -0.380 OA
ATOM     16  H   UNL     1      33.191 -15.534 -26.993  0.00  0.00    +0.211 HD
ENDBRANCH   7  15
BRANCH   9  17
ATOM     17  O   UNL     1      32.867 -13.583 -24.422  0.00  0.00    -0.384 OA
ATOM     18  H   UNL     1      33.036 -12.797 -23.879  0.00  0.00    +0.210 HD
ENDBRANCH   9  17
TORSDOF 4
ENDMDL
MODEL 6
REMARK VINA RESULT:      -6.3      1.845      3.903
REMARK  Name = 54445
REMARK  4 active torsions:
REMARK  status: ('A' for Active; 'I' for Inactive)
REMARK    1  A    between atoms: C_3  and  O_11
REMARK    2  A    between atoms: C_4  and  O_13
REMARK    3  A    between atoms: C_7  and  O_15
REMARK    4  A    between atoms: C_9  and  O_17
REMARK                            x       y       z     vdW  Elec       q    Type
REMARK                         _______ _______ _______ _____ _____    ______ ____
ROOT
ATOM      1  N   UNL     1      37.803 -24.705 -12.986  0.00  0.00    +0.393 N 
ATOM      2  C   UNL     1      36.920 -24.794 -14.155  0.00  0.00    -0.001 C 
ATOM      3  C   UNL     1      35.670 -23.942 -13.947  0.00  0.00    +0.123 C 
ATOM      4  C   UNL     1      37.872 -24.397 -15.283  0.00  0.00    +0.092 C 
ATOM      5  C   UNL     1      39.033 -25.385 -13.378  0.00  0.00    -0.075 C 
ATOM      6  C   UNL     1      37.172 -25.249 -11.792  0.00  0.00    -0.045 C 
ATOM      7  C   UNL     1      34.943 -24.386 -12.669  0.00  0.00    +0.160 C 
ATOM      8  C   UNL     1      39.221 -24.974 -14.841  0.00  0.00    +0.004 C 
ATOM      9  C   UNL     1      35.901 -24.454 -11.472  0.00  0.00    +0.119 C 
ATOM     10  H   UNL     1      38.007 -23.741 -12.725  0.00  0.00    -0.079 HD
ENDROOT
BRANCH   3  11
ATOM     11  O   UNL     1      34.782 -24.119 -15.048  0.00  0.00    -0.384 OA
ATOM     12  H   UNL     1      33.918 -24.417 -14.721  0.00  0.00    +0.210 HD
ENDBRANCH   3  11
BRANCH   4  13
ATOM     13  O   UNL     1      37.997 -22.987 -15.410  0.00  0.00    -0.387 OA
ATOM     14  H   UNL     1      37.137 -22.569 -15.242  0.00  0.00    +0.210 HD
ENDBRANCH   4  13
BRANCH   7  15
ATOM     15  O   UNL     1      33.915 -23.441 -12.364  0.00  0.00    -0.380 OA
ATOM     16  H   UNL     1      33.917 -22.736 -13.029  0.00  0.00    +0.211 HD
ENDBRANCH   7  15
BRANCH   9  17
ATOM     17  O   UNL     1      35.243 -25.091 -10.377  0.00  0.00    -0.384 OA
ATOM     18  H   UNL     1      35.862 -25.175  -9.634  0.00  0.00    +0.210 HD
ENDBRANCH   9  17
TORSDOF 4
ENDMDL
MODEL 7
REMARK VINA RESULT:      -6.3     12.934     13.897
REMARK  Name = 54445
REMARK  4 active torsions:
REMARK  status: ('A' for Active; 'I' for Inactive)
REMARK    1  A    between atoms: C_3  and  O_11
REMARK    2  A    between atoms: C_4  and  O_13
REMARK    3  A    between atoms: C_7  and  O_15
REMARK    4  A    between atoms: C_9  and  O_17
REMARK                            x       y       z     vdW  Elec       q    Type
REMARK                         _______ _______ _______ _____ _____    ______ ____
ROOT
ATOM      1  N   UNL     1      34.590 -17.445 -23.887  0.00  0.00    +0.393 N 
ATOM      2  C   UNL     1      34.981 -16.412 -22.921  0.00  0.00    -0.001 C 
ATOM      3  C   UNL     1      33.964 -15.274 -22.914  0.00  0.00    +0.123 C 
ATOM      4  C   UNL     1      35.136 -17.236 -21.644  0.00  0.00    +0.092 C 
ATOM      5  C   UNL     1      35.512 -18.553 -23.662  0.00  0.00    -0.075 C 
ATOM      6  C   UNL     1      34.588 -16.935 -25.251  0.00  0.00    -0.045 C 
ATOM      7  C   UNL     1      33.826 -14.688 -24.328  0.00  0.00    +0.160 C 
ATOM      8  C   UNL     1      35.679 -18.580 -22.141  0.00  0.00    +0.004 C 
ATOM      9  C   UNL     1      33.580 -15.786 -25.371  0.00  0.00    +0.119 C 
ATOM     10  H   UNL     1      33.630 -17.760 -23.754  0.00  0.00    -0.079 HD
ENDROOT
BRANCH   3  11
ATOM     11  O   UNL     1      34.412 -14.237 -22.045  0.00  0.00    -0.384 OA
ATOM     12  H   UNL     1      34.723 -13.485 -22.573  0.00  0.00    +0.210 HD
ENDBRANCH   3  11
BRANCH   4  13
ATOM     13  O   UNL     1      33.892 -17.458 -20.993  0.00  0.00    -0.387 OA
ATOM     14  H   UNL     1      34.052 -17.796 -20.097  0.00  0.00    +0.210 HD
ENDBRANCH   4  13
BRANCH   7  15
ATOM     15  O   UNL     1      32.716 -13.789 -24.355  0.00  0.00    -0.380 OA
ATOM     16  H   UNL     1      32.013 -14.161 -24.909  0.00  0.00    +0.211 HD
ENDBRANCH   7  15
BRANCH   9  17
ATOM     17  O   UNL     1      33.696 -15.229 -26.679  0.00  0.00    -0.384 OA
ATOM     18  H   UNL     1      34.505 -14.697 -26.733  0.00  0.00    +0.210 HD
ENDBRANCH   9  17
TORSDOF 4
ENDMDL
MODEL 8
REMARK VINA RESULT:      -6.2     12.495     13.524
REMARK  Name = 54445
REMARK  4 active torsions:
REMARK  status: ('A' for Active; 'I' for Inactive)
REMARK    1  A    between atoms: C_3  and  O_11
REMARK    2  A    between atoms: C_4  and  O_13
REMARK    3  A    between atoms: C_7  and  O_15
REMARK    4  A    between atoms: C_9  and  O_17
REMARK                            x       y       z     vdW  Elec       q    Type
REMARK                         _______ _______ _______ _____ _____    ______ ____
ROOT
ATOM      1  N   UNL     1      33.772 -15.673 -23.489  0.00  0.00    +0.393 N 
ATOM      2  C   UNL     1      34.906 -16.471 -23.970  0.00  0.00    -0.001 C 
ATOM      3  C   UNL     1      35.176 -17.639 -23.024  0.00  0.00    +0.123 C 
ATOM      4  C   UNL     1      34.463 -16.797 -25.395  0.00  0.00    +0.092 C 
ATOM      5  C   UNL     1      33.486 -14.724 -24.560  0.00  0.00    -0.075 C 
ATOM      6  C   UNL     1      34.054 -15.055 -22.202  0.00  0.00    -0.045 C 
ATOM      7  C   UNL     1      35.431 -17.111 -21.604  0.00  0.00    +0.160 C 
ATOM      8  C   UNL     1      33.698 -15.545 -25.835  0.00  0.00    +0.004 C 
ATOM      9  C   UNL     1      34.328 -16.143 -21.157  0.00  0.00    +0.119 C 
ATOM     10  H   UNL     1      32.947 -16.241 -23.301  0.00  0.00    -0.079 HD
ENDROOT
BRANCH   3  11
ATOM     11  O   UNL     1      36.339 -18.342 -23.453  0.00  0.00    -0.384 OA
ATOM     12  H   UNL     1      36.097 -18.973 -24.149  0.00  0.00    +0.210 HD
ENDBRANCH   3  11
BRANCH   4  13
ATOM     13  O   UNL     1      33.581 -17.912 -25.443  0.00  0.00    -0.387 OA
ATOM     14  H   UNL     1      33.387 -18.131 -26.368  0.00  0.00    +0.210 HD
ENDBRANCH   4  13
BRANCH   7  15
ATOM     15  O   UNL     1      35.454 -18.213 -20.694  0.00  0.00    -0.380 OA
ATOM     16  H   UNL     1      35.226 -19.028 -21.167  0.00  0.00    +0.211 HD
ENDBRANCH   7  15
BRANCH   9  17
ATOM     17  O   UNL     1      34.725 -15.503 -19.944  0.00  0.00    -0.384 OA
ATOM     18  H   UNL     1      33.981 -14.992 -19.591  0.00  0.00    +0.210 HD
ENDBRANCH   9  17
TORSDOF 4
ENDMDL
MODEL 9
REMARK VINA RESULT:      -6.2     12.048     13.210
REMARK  Name = 54445
REMARK  4 active torsions:
REMARK  status: ('A' for Active; 'I' for Inactive)
REMARK    1  A    between atoms: C_3  and  O_11
REMARK    2  A    between atoms: C_4  and  O_13
REMARK    3  A    between atoms: C_7  and  O_15
REMARK    4  A    between atoms: C_9  and  O_17
REMARK                            x       y       z     vdW  Elec       q    Type
REMARK                         _______ _______ _______ _____ _____    ______ ____
ROOT
ATOM      1  N   UNL     1      34.278 -17.061 -23.839  0.00  0.00    +0.393 N 
ATOM      2  C   UNL     1      35.083 -17.416 -22.665  0.00  0.00    -0.001 C 
ATOM      3  C   UNL     1      34.593 -16.660 -21.432  0.00  0.00    +0.123 C 
ATOM      4  C   UNL     1      34.959 -18.939 -22.663  0.00  0.00    +0.092 C 
ATOM      5  C   UNL     1      34.703 -17.979 -24.891  0.00  0.00    -0.075 C 
ATOM      6  C   UNL     1      34.417 -15.653 -24.183  0.00  0.00    -0.045 C 
ATOM      7  C   UNL     1      34.634 -15.148 -21.697  0.00  0.00    +0.160 C 
ATOM      8  C   UNL     1      34.912 -19.303 -24.151  0.00  0.00    +0.004 C 
ATOM      9  C   UNL     1      33.933 -14.787 -23.013  0.00  0.00    +0.119 C 
ATOM     10  H   UNL     1      33.278 -17.164 -23.672  0.00  0.00    -0.079 HD
ENDROOT
BRANCH   3  11
ATOM     11  O   UNL     1      35.447 -16.942 -20.327  0.00  0.00    -0.384 OA
ATOM     12  H   UNL     1      35.474 -17.901 -20.175  0.00  0.00    +0.210 HD
ENDBRANCH   3  11
BRANCH   4  13
ATOM     13  O   UNL     1      33.757 -19.380 -22.046  0.00  0.00    -0.387 OA
ATOM     14  H   UNL     1      33.202 -18.612 -21.833  0.00  0.00    +0.210 HD
ENDBRANCH   4  13
BRANCH   7  15
ATOM     15  O   UNL     1      33.963 -14.469 -20.633  0.00  0.00    -0.380 OA
ATOM     16  H   UNL     1      33.547 -15.119 -20.046  0.00  0.00    +0.211 HD
ENDBRANCH   7  15
BRANCH   9  17
ATOM     17  O   UNL     1      34.201 -13.422 -23.331  0.00  0.00    -0.384 OA
ATOM     18  H   UNL     1      33.369 -12.972 -23.547  0.00  0.00    +0.210 HD
ENDBRANCH   9  17
TORSDOF 4
ENDMDL
