MODEL 1
REMARK VINA RESULT:      -4.8      0.000      0.000
REMARK  Name = 65036
REMARK  5 active torsions:
REMARK  status: ('A' for Active; 'I' for Inactive)
REMARK    1  A    between atoms: S_1  and  S_3
REMARK    2  A    between atoms: S_1  and  C_7
REMARK    3  A    between atoms: S_3  and  C_4
REMARK    4  A    between atoms: C_4  and  C_5
REMARK    5  A    between atoms: C_7  and  C_8
REMARK                            x       y       z     vdW  Elec       q    Type
REMARK                         _______ _______ _______ _____ _____    ______ ____
ROOT
ATOM      1  S   UNL     1      35.684 -18.540 -21.195  0.00  0.00    +0.097 S 
ATOM      2  O   UNL     1      35.291 -17.225 -20.589  0.00  0.00    -0.245 OA
ENDROOT
BRANCH   1   3
ATOM      3  S   UNL     1      33.876 -19.520 -21.100  0.00  0.00    -0.045 S 
BRANCH   3   4
ATOM      4  C   UNL     1      34.273 -20.910 -20.015  0.00  0.00    +0.097 C 
BRANCH   4   5
ATOM      5  C   UNL     1      35.753 -21.019 -19.838  0.00  0.00    -0.014 C 
ATOM      6  C   UNL     1      36.338 -21.556 -18.761  0.00  0.00    -0.004 C 
ENDBRANCH   4   5
ENDBRANCH   3   4
ENDBRANCH   1   3
BRANCH   1   7
ATOM      7  C   UNL     1      35.840 -18.287 -22.979  0.00  0.00    +0.129 C 
BRANCH   7   8
ATOM      8  C   UNL     1      34.862 -19.143 -23.713  0.00  0.00    -0.011 C 
ATOM      9  C   UNL     1      34.326 -18.818 -24.895  0.00  0.00    -0.004 C 
ENDBRANCH   7   8
ENDBRANCH   1   7
TORSDOF 5
ENDMDL
MODEL 2
REMARK VINA RESULT:      -4.7      3.199      3.779
REMARK  Name = 65036
REMARK  5 active torsions:
REMARK  status: ('A' for Active; 'I' for Inactive)
REMARK    1  A    between atoms: S_1  and  S_3
REMARK    2  A    between atoms: S_1  and  C_7
REMARK    3  A    between atoms: S_3  and  C_4
REMARK    4  A    between atoms: C_4  and  C_5
REMARK    5  A    between atoms: C_7  and  C_8
REMARK                            x       y       z     vdW  Elec       q    Type
REMARK                         _______ _______ _______ _____ _____    ______ ____
ROOT
ATOM      1  S   UNL     1      34.489 -16.552 -22.232  0.00  0.00    +0.097 S 
ATOM      2  O   UNL     1      35.407 -15.858 -23.194  0.00  0.00    -0.245 OA
ENDROOT
BRANCH   1   3
ATOM      3  S   UNL     1      35.693 -18.124 -21.673  0.00  0.00    -0.045 S 
BRANCH   3   4
ATOM      4  C   UNL     1      34.585 -19.532 -21.909  0.00  0.00    +0.097 C 
BRANCH   4   5
ATOM      5  C   UNL     1      33.490 -19.502 -20.892  0.00  0.00    -0.014 C 
ATOM      6  C   UNL     1      33.132 -20.556 -20.150  0.00  0.00    -0.004 C 
ENDBRANCH   4   5
ENDBRANCH   3   4
ENDBRANCH   1   3
BRANCH   1   7
ATOM      7  C   UNL     1      34.468 -15.580 -20.708  0.00  0.00    +0.129 C 
BRANCH   7   8
ATOM      8  C   UNL     1      33.139 -14.925 -20.527  0.00  0.00    -0.011 C 
ATOM      9  C   UNL     1      32.470 -14.310 -21.509  0.00  0.00    -0.004 C 
ENDBRANCH   7   8
ENDBRANCH   1   7
TORSDOF 5
ENDMDL
MODEL 3
REMARK VINA RESULT:      -4.7      1.730      4.693
REMARK  Name = 65036
REMARK  5 active torsions:
REMARK  status: ('A' for Active; 'I' for Inactive)
REMARK    1  A    between atoms: S_1  and  S_3
REMARK    2  A    between atoms: S_1  and  C_7
REMARK    3  A    between atoms: S_3  and  C_4
REMARK    4  A    between atoms: C_4  and  C_5
REMARK    5  A    between atoms: C_7  and  C_8
REMARK                            x       y       z     vdW  Elec       q    Type
REMARK                         _______ _______ _______ _____ _____    ______ ____
ROOT
ATOM      1  S   UNL     1      35.034 -18.460 -21.070  0.00  0.00    +0.097 S 
ATOM      2  O   UNL     1      36.158 -19.179 -20.384  0.00  0.00    -0.245 OA
ENDROOT
BRANCH   1   3
ATOM      3  S   UNL     1      35.915 -18.093 -22.893  0.00  0.00    -0.045 S 
BRANCH   3   4
ATOM      4  C   UNL     1      34.827 -19.003 -24.013  0.00  0.00    +0.097 C 
BRANCH   4   5
ATOM      5  C   UNL     1      34.382 -18.117 -25.131  0.00  0.00    -0.014 C 
ATOM      6  C   UNL     1      34.643 -16.806 -25.194  0.00  0.00    -0.004 C 
ENDBRANCH   4   5
ENDBRANCH   3   4
ENDBRANCH   1   3
BRANCH   1   7
ATOM      7  C   UNL     1      33.801 -19.700 -21.531  0.00  0.00    +0.129 C 
BRANCH   7   8
ATOM      8  C   UNL     1      33.065 -20.175 -20.322  0.00  0.00    -0.011 C 
ATOM      9  C   UNL     1      33.400 -21.267 -19.626  0.00  0.00    -0.004 C 
ENDBRANCH   7   8
ENDBRANCH   1   7
TORSDOF 5
ENDMDL
MODEL 4
REMARK VINA RESULT:      -4.7      3.202      4.673
REMARK  Name = 65036
REMARK  5 active torsions:
REMARK  status: ('A' for Active; 'I' for Inactive)
REMARK    1  A    between atoms: S_1  and  S_3
REMARK    2  A    between atoms: S_1  and  C_7
REMARK    3  A    between atoms: S_3  and  C_4
REMARK    4  A    between atoms: C_4  and  C_5
REMARK    5  A    between atoms: C_7  and  C_8
REMARK                            x       y       z     vdW  Elec       q    Type
REMARK                         _______ _______ _______ _____ _____    ______ ____
ROOT
ATOM      1  S   UNL     1      35.651 -18.326 -22.629  0.00  0.00    +0.097 S 
ATOM      2  O   UNL     1      34.833 -18.961 -23.714  0.00  0.00    -0.245 OA
ENDROOT
BRANCH   1   3
ATOM      3  S   UNL     1      34.940 -16.397 -22.742  0.00  0.00    -0.045 S 
BRANCH   3   4
ATOM      4  C   UNL     1      34.608 -16.030 -21.004  0.00  0.00    +0.097 C 
BRANCH   4   5
ATOM      5  C   UNL     1      33.187 -15.600 -20.830  0.00  0.00    -0.014 C 
ATOM      6  C   UNL     1      32.802 -14.323 -20.728  0.00  0.00    -0.004 C 
ENDBRANCH   4   5
ENDBRANCH   3   4
ENDBRANCH   1   3
BRANCH   1   7
ATOM      7  C   UNL     1      34.953 -18.854 -21.047  0.00  0.00    +0.129 C 
BRANCH   7   8
ATOM      8  C   UNL     1      33.706 -19.645 -21.267  0.00  0.00    -0.011 C 
ATOM      9  C   UNL     1      33.060 -20.305 -20.299  0.00  0.00    -0.004 C 
ENDBRANCH   7   8
ENDBRANCH   1   7
TORSDOF 5
ENDMDL
MODEL 5
REMARK VINA RESULT:      -4.6      2.240      4.426
REMARK  Name = 65036
REMARK  5 active torsions:
REMARK  status: ('A' for Active; 'I' for Inactive)
REMARK    1  A    between atoms: S_1  and  S_3
REMARK    2  A    between atoms: S_1  and  C_7
REMARK    3  A    between atoms: S_3  and  C_4
REMARK    4  A    between atoms: C_4  and  C_5
REMARK    5  A    between atoms: C_7  and  C_8
REMARK                            x       y       z     vdW  Elec       q    Type
REMARK                         _______ _______ _______ _____ _____    ______ ____
ROOT
ATOM      1  S   UNL     1      34.219 -16.574 -21.035  0.00  0.00    +0.097 S 
ATOM      2  O   UNL     1      34.907 -15.451 -20.317  0.00  0.00    -0.245 OA
ENDROOT
BRANCH   1   3
ATOM      3  S   UNL     1      34.019 -15.725 -22.899  0.00  0.00    -0.045 S 
BRANCH   3   4
ATOM      4  C   UNL     1      35.284 -16.609 -23.839  0.00  0.00    +0.097 C 
BRANCH   4   5
ATOM      5  C   UNL     1      34.651 -17.397 -24.940  0.00  0.00    -0.014 C 
ATOM      6  C   UNL     1      34.324 -18.691 -24.838  0.00  0.00    -0.004 C 
ENDBRANCH   4   5
ENDBRANCH   3   4
ENDBRANCH   1   3
BRANCH   1   7
ATOM      7  C   UNL     1      35.462 -17.843 -21.370  0.00  0.00    +0.129 C 
BRANCH   7   8
ATOM      8  C   UNL     1      34.906 -19.201 -21.096  0.00  0.00    -0.011 C 
ATOM      9  C   UNL     1      33.597 -19.476 -21.048  0.00  0.00    -0.004 C 
ENDBRANCH   7   8
ENDBRANCH   1   7
TORSDOF 5
ENDMDL
MODEL 6
REMARK VINA RESULT:      -4.6      3.290      5.227
REMARK  Name = 65036
REMARK  5 active torsions:
REMARK  status: ('A' for Active; 'I' for Inactive)
REMARK    1  A    between atoms: S_1  and  S_3
REMARK    2  A    between atoms: S_1  and  C_7
REMARK    3  A    between atoms: S_3  and  C_4
REMARK    4  A    between atoms: C_4  and  C_5
REMARK    5  A    between atoms: C_7  and  C_8
REMARK                            x       y       z     vdW  Elec       q    Type
REMARK                         _______ _______ _______ _____ _____    ______ ____
ROOT
ATOM      1  S   UNL     1      34.220 -17.179 -21.432  0.00  0.00    +0.097 S 
ATOM      2  O   UNL     1      35.272 -16.778 -20.441  0.00  0.00    -0.245 OA
ENDROOT
BRANCH   1   3
ATOM      3  S   UNL     1      34.917 -16.192 -23.098  0.00  0.00    -0.045 S 
BRANCH   3   4
ATOM      4  C   UNL     1      34.258 -14.529 -22.838  0.00  0.00    +0.097 C 
BRANCH   4   5
ATOM      5  C   UNL     1      32.943 -14.601 -22.132  0.00  0.00    -0.014 C 
ATOM      6  C   UNL     1      32.401 -13.579 -21.459  0.00  0.00    -0.004 C 
ENDBRANCH   4   5
ENDBRANCH   3   4
ENDBRANCH   1   3
BRANCH   1   7
ATOM      7  C   UNL     1      34.540 -18.897 -21.896  0.00  0.00    +0.129 C 
BRANCH   7   8
ATOM      8  C   UNL     1      34.157 -19.815 -20.783  0.00  0.00    -0.011 C 
ATOM      9  C   UNL     1      32.894 -20.142 -20.486  0.00  0.00    -0.004 C 
ENDBRANCH   7   8
ENDBRANCH   1   7
TORSDOF 5
ENDMDL
MODEL 7
REMARK VINA RESULT:      -4.5      3.030      4.357
REMARK  Name = 65036
REMARK  5 active torsions:
REMARK  status: ('A' for Active; 'I' for Inactive)
REMARK    1  A    between atoms: S_1  and  S_3
REMARK    2  A    between atoms: S_1  and  C_7
REMARK    3  A    between atoms: S_3  and  C_4
REMARK    4  A    between atoms: C_4  and  C_5
REMARK    5  A    between atoms: C_7  and  C_8
REMARK                            x       y       z     vdW  Elec       q    Type
REMARK                         _______ _______ _______ _____ _____    ______ ____
ROOT
ATOM      1  S   UNL     1      34.624 -18.272 -21.288  0.00  0.00    +0.097 S 
ATOM      2  O   UNL     1      35.934 -18.372 -20.564  0.00  0.00    -0.245 OA
ENDROOT
BRANCH   1   3
ATOM      3  S   UNL     1      34.779 -16.358 -22.026  0.00  0.00    -0.045 S 
BRANCH   3   4
ATOM      4  C   UNL     1      34.429 -15.370 -20.554  0.00  0.00    +0.097 C 
BRANCH   4   5
ATOM      5  C   UNL     1      33.006 -14.913 -20.567  0.00  0.00    -0.014 C 
ATOM      6  C   UNL     1      32.455 -14.218 -21.568  0.00  0.00    -0.004 C 
ENDBRANCH   4   5
ENDBRANCH   3   4
ENDBRANCH   1   3
BRANCH   1   7
ATOM      7  C   UNL     1      34.773 -19.237 -22.809  0.00  0.00    +0.129 C 
BRANCH   7   8
ATOM      8  C   UNL     1      35.030 -18.337 -23.972  0.00  0.00    -0.011 C 
ATOM      9  C   UNL     1      34.338 -18.381 -25.117  0.00  0.00    -0.004 C 
ENDBRANCH   7   8
ENDBRANCH   1   7
TORSDOF 5
ENDMDL
MODEL 8
REMARK VINA RESULT:      -4.5      3.261      3.983
REMARK  Name = 65036
REMARK  5 active torsions:
REMARK  status: ('A' for Active; 'I' for Inactive)
REMARK    1  A    between atoms: S_1  and  S_3
REMARK    2  A    between atoms: S_1  and  C_7
REMARK    3  A    between atoms: S_3  and  C_4
REMARK    4  A    between atoms: C_4  and  C_5
REMARK    5  A    between atoms: C_7  and  C_8
REMARK                            x       y       z     vdW  Elec       q    Type
REMARK                         _______ _______ _______ _____ _____    ______ ____
ROOT
ATOM      1  S   UNL     1      34.232 -16.903 -24.513  0.00  0.00    +0.097 S 
ATOM      2  O   UNL     1      34.941 -16.784 -25.829  0.00  0.00    -0.245 OA
ENDROOT
BRANCH   1   3
ATOM      3  S   UNL     1      34.955 -18.726 -23.890  0.00  0.00    -0.045 S 
BRANCH   3   4
ATOM      4  C   UNL     1      35.940 -18.254 -22.450  0.00  0.00    +0.097 C 
BRANCH   4   5
ATOM      5  C   UNL     1      35.347 -18.834 -21.207  0.00  0.00    -0.014 C 
ATOM      6  C   UNL     1      34.080 -19.255 -21.111  0.00  0.00    -0.004 C 
ENDBRANCH   4   5
ENDBRANCH   3   4
ENDBRANCH   1   3
BRANCH   1   7
ATOM      7  C   UNL     1      35.060 -15.793 -23.351  0.00  0.00    +0.129 C 
BRANCH   7   8
ATOM      8  C   UNL     1      34.056 -15.078 -22.509  0.00  0.00    -0.011 C 
ATOM      9  C   UNL     1      33.809 -15.376 -21.228  0.00  0.00    -0.004 C 
ENDBRANCH   7   8
ENDBRANCH   1   7
TORSDOF 5
ENDMDL
MODEL 9
REMARK VINA RESULT:      -4.4      1.479      4.753
REMARK  Name = 65036
REMARK  5 active torsions:
REMARK  status: ('A' for Active; 'I' for Inactive)
REMARK    1  A    between atoms: S_1  and  S_3
REMARK    2  A    between atoms: S_1  and  C_7
REMARK    3  A    between atoms: S_3  and  C_4
REMARK    4  A    between atoms: C_4  and  C_5
REMARK    5  A    between atoms: C_7  and  C_8
REMARK                            x       y       z     vdW  Elec       q    Type
REMARK                         _______ _______ _______ _____ _____    ______ ____
ROOT
ATOM      1  S   UNL     1      34.326 -19.414 -21.557  0.00  0.00    +0.097 S 
ATOM      2  O   UNL     1      33.127 -19.625 -20.681  0.00  0.00    -0.245 OA
ENDROOT
BRANCH   1   3
ATOM      3  S   UNL     1      34.539 -17.376 -21.370  0.00  0.00    -0.045 S 
BRANCH   3   4
ATOM      4  C   UNL     1      35.237 -16.934 -22.978  0.00  0.00    +0.097 C 
BRANCH   4   5
ATOM      5  C   UNL     1      35.072 -18.066 -23.940  0.00  0.00    -0.014 C 
ATOM      6  C   UNL     1      34.451 -17.957 -25.120  0.00  0.00    -0.004 C 
ENDBRANCH   4   5
ENDBRANCH   3   4
ENDBRANCH   1   3
BRANCH   1   7
ATOM      7  C   UNL     1      35.773 -19.993 -20.642  0.00  0.00    +0.129 C 
BRANCH   7   8
ATOM      8  C   UNL     1      35.420 -21.180 -19.808  0.00  0.00    -0.011 C 
ATOM      9  C   UNL     1      36.174 -21.636 -18.800  0.00  0.00    -0.004 C 
ENDBRANCH   7   8
ENDBRANCH   1   7
TORSDOF 5
ENDMDL
