MODEL 1
REMARK VINA RESULT:      -8.9      0.000      0.000
REMARK  Name = 4641
REMARK  6 active torsions:
REMARK  status: ('A' for Active; 'I' for Inactive)
REMARK    1  A    between atoms: N_3  and  C_8
REMARK    2  A    between atoms: N_4  and  C_16
REMARK    3  A    between atoms: C_5  and  C_22
REMARK    4  A    between atoms: C_13  and  O_14
REMARK    5  A    between atoms: C_22  and  C_23
REMARK    6  A    between atoms: C_23  and  C_24
REMARK                            x       y       z     vdW  Elec       q    Type
REMARK                         _______ _______ _______ _____ _____    ______ ____
ROOT
ATOM      1  O   UNL     1      34.407 -23.847 -12.016  0.00  0.00    -0.272 OA
ATOM      2  O   UNL     1      37.269 -24.547 -15.699  0.00  0.00    -0.272 OA
ATOM      3  N   UNL     1      34.131 -23.697 -14.375  0.00  0.00    -0.179 N 
ATOM      4  N   UNL     1      35.020 -23.800 -15.473  0.00  0.00    -0.179 N 
ATOM      5  C   UNL     1      36.222 -24.294 -13.541  0.00  0.00    +0.157 C 
ATOM      6  C   UNL     1      34.818 -23.886 -13.166  0.00  0.00    +0.254 C 
ATOM      7  C   UNL     1      36.269 -24.279 -15.050  0.00  0.00    +0.254 C 
ENDROOT
BRANCH   3   8
ATOM      8  C   UNL     1      32.712 -23.830 -14.476  0.00  0.00    +0.074 C 
ATOM      9  C   UNL     1      32.116 -25.086 -14.351  0.00  0.00    +0.020 C 
ATOM     10  C   UNL     1      31.917 -22.704 -14.698  0.00  0.00    +0.020 C 
ATOM     11  C   UNL     1      30.730 -25.217 -14.452  0.00  0.00    +0.038 C 
ATOM     12  C   UNL     1      30.532 -22.834 -14.798  0.00  0.00    +0.038 C 
ATOM     13  C   UNL     1      29.938 -24.090 -14.674  0.00  0.00    +0.134 C 
BRANCH  13  14
ATOM     14  O   UNL     1      28.587 -24.217 -14.769  0.00  0.00    -0.506 OA
ATOM     15  H   UNL     1      28.143 -24.880 -14.278  0.00  0.00    +0.292 HD
ENDBRANCH  13  14
ENDBRANCH   3   8
BRANCH   4  16
ATOM     16  C   UNL     1      34.836 -23.134 -16.722  0.00  0.00    +0.073 C 
ATOM     17  C   UNL     1      33.642 -23.287 -17.429  0.00  0.00    +0.017 C 
ATOM     18  C   UNL     1      35.850 -22.325 -17.242  0.00  0.00    +0.017 C 
ATOM     19  C   UNL     1      33.462 -22.635 -18.649  0.00  0.00    +0.001 C 
ATOM     20  C   UNL     1      35.670 -21.674 -18.461  0.00  0.00    +0.001 C 
ATOM     21  C   UNL     1      34.476 -21.829 -19.165  0.00  0.00    +0.000 C 
ENDBRANCH   4  16
BRANCH   5  22
ATOM     22  C   UNL     1      36.567 -25.668 -12.997  0.00  0.00    +0.018 C 
BRANCH  22  23
ATOM     23  C   UNL     1      37.890 -25.653 -12.231  0.00  0.00    +0.001 C 
BRANCH  23  24
ATOM     24  C   UNL     1      38.923 -24.764 -12.924  0.00  0.00    +0.000 C 
ATOM     25  C   UNL     1      39.872 -25.582 -13.785  0.00  0.00    +0.000 C 
ENDBRANCH  23  24
ENDBRANCH  22  23
ENDBRANCH   5  22
TORSDOF 6
ENDMDL
MODEL 2
REMARK VINA RESULT:      -8.6      1.861      5.405
REMARK  Name = 4641
REMARK  6 active torsions:
REMARK  status: ('A' for Active; 'I' for Inactive)
REMARK    1  A    between atoms: N_3  and  C_8
REMARK    2  A    between atoms: N_4  and  C_16
REMARK    3  A    between atoms: C_5  and  C_22
REMARK    4  A    between atoms: C_13  and  O_14
REMARK    5  A    between atoms: C_22  and  C_23
REMARK    6  A    between atoms: C_23  and  C_24
REMARK                            x       y       z     vdW  Elec       q    Type
REMARK                         _______ _______ _______ _____ _____    ______ ____
ROOT
ATOM      1  O   UNL     1      32.999 -23.620 -18.371  0.00  0.00    -0.272 OA
ATOM      2  O   UNL     1      37.128 -21.642 -17.234  0.00  0.00    -0.272 OA
ATOM      3  N   UNL     1      34.265 -23.477 -16.360  0.00  0.00    -0.179 N 
ATOM      4  N   UNL     1      35.553 -22.978 -16.049  0.00  0.00    -0.179 N 
ATOM      5  C   UNL     1      35.127 -22.486 -18.284  0.00  0.00    +0.157 C 
ATOM      6  C   UNL     1      33.985 -23.300 -17.724  0.00  0.00    +0.254 C 
ATOM      7  C   UNL     1      36.077 -22.259 -17.133  0.00  0.00    +0.254 C 
ENDROOT
BRANCH   3   8
ATOM      8  C   UNL     1      33.238 -23.707 -15.394  0.00  0.00    +0.074 C 
ATOM      9  C   UNL     1      33.308 -24.815 -14.548  0.00  0.00    +0.020 C 
ATOM     10  C   UNL     1      32.160 -22.824 -15.293  0.00  0.00    +0.020 C 
ATOM     11  C   UNL     1      32.304 -25.041 -13.606  0.00  0.00    +0.038 C 
ATOM     12  C   UNL     1      31.157 -23.050 -14.352  0.00  0.00    +0.038 C 
ATOM     13  C   UNL     1      31.228 -24.158 -13.507  0.00  0.00    +0.134 C 
BRANCH  13  14
ATOM     14  O   UNL     1      30.251 -24.377 -12.586  0.00  0.00    -0.506 OA
ATOM     15  H   UNL     1      29.981 -23.685 -12.017  0.00  0.00    +0.292 HD
ENDBRANCH  13  14
ENDBRANCH   3   8
BRANCH   4  16
ATOM     16  C   UNL     1      36.372 -23.472 -14.988  0.00  0.00    +0.073 C 
ATOM     17  C   UNL     1      36.365 -22.838 -13.744  0.00  0.00    +0.017 C 
ATOM     18  C   UNL     1      37.182 -24.592 -15.190  0.00  0.00    +0.017 C 
ATOM     19  C   UNL     1      37.164 -23.321 -12.708  0.00  0.00    +0.001 C 
ATOM     20  C   UNL     1      37.981 -25.075 -14.154  0.00  0.00    +0.001 C 
ATOM     21  C   UNL     1      37.972 -24.438 -12.912  0.00  0.00    +0.000 C 
ENDBRANCH   4  16
BRANCH   5  22
ATOM     22  C   UNL     1      34.641 -21.169 -18.860  0.00  0.00    +0.018 C 
BRANCH  22  23
ATOM     23  C   UNL     1      35.298 -20.870 -20.207  0.00  0.00    +0.001 C 
BRANCH  23  24
ATOM     24  C   UNL     1      34.454 -19.900 -21.034  0.00  0.00    +0.000 C 
ATOM     25  C   UNL     1      32.982 -19.990 -20.668  0.00  0.00    +0.000 C 
ENDBRANCH  23  24
ENDBRANCH  22  23
ENDBRANCH   5  22
TORSDOF 6
ENDMDL
MODEL 3
REMARK VINA RESULT:      -8.5     12.798     15.825
REMARK  Name = 4641
REMARK  6 active torsions:
REMARK  status: ('A' for Active; 'I' for Inactive)
REMARK    1  A    between atoms: N_3  and  C_8
REMARK    2  A    between atoms: N_4  and  C_16
REMARK    3  A    between atoms: C_5  and  C_22
REMARK    4  A    between atoms: C_13  and  O_14
REMARK    5  A    between atoms: C_22  and  C_23
REMARK    6  A    between atoms: C_23  and  C_24
REMARK                            x       y       z     vdW  Elec       q    Type
REMARK                         _______ _______ _______ _____ _____    ______ ____
ROOT
ATOM      1  O   UNL     1      32.354 -13.794 -23.347  0.00  0.00    -0.272 OA
ATOM      2  O   UNL     1      31.589 -10.955 -19.659  0.00  0.00    -0.272 OA
ATOM      3  N   UNL     1      32.587 -11.453 -22.988  0.00  0.00    -0.179 N 
ATOM      4  N   UNL     1      32.253 -10.590 -21.916  0.00  0.00    -0.179 N 
ATOM      5  C   UNL     1      31.803 -12.770 -21.233  0.00  0.00    +0.157 C 
ATOM      6  C   UNL     1      32.246 -12.778 -22.677  0.00  0.00    +0.254 C 
ATOM      7  C   UNL     1      31.891 -11.331 -20.782  0.00  0.00    +0.254 C 
ENDROOT
BRANCH   3   8
ATOM      8  C   UNL     1      33.518 -11.127 -24.021  0.00  0.00    +0.074 C 
ATOM      9  C   UNL     1      34.361 -10.023 -23.881  0.00  0.00    +0.020 C 
ATOM     10  C   UNL     1      33.589 -11.913 -25.173  0.00  0.00    +0.020 C 
ATOM     11  C   UNL     1      35.269  -9.703 -24.892  0.00  0.00    +0.038 C 
ATOM     12  C   UNL     1      34.497 -11.594 -26.183  0.00  0.00    +0.038 C 
ATOM     13  C   UNL     1      35.337 -10.489 -26.042  0.00  0.00    +0.134 C 
BRANCH  13  14
ATOM     14  O   UNL     1      36.226 -10.179 -27.026  0.00  0.00    -0.506 OA
ATOM     15  H   UNL     1      36.773  -9.425 -26.941  0.00  0.00    +0.292 HD
ENDBRANCH  13  14
ENDBRANCH   3   8
BRANCH   4  16
ATOM     16  C   UNL     1      31.919  -9.209 -22.069  0.00  0.00    +0.073 C 
ATOM     17  C   UNL     1      32.397  -8.268 -21.155  0.00  0.00    +0.017 C 
ATOM     18  C   UNL     1      31.115  -8.796 -23.134  0.00  0.00    +0.017 C 
ATOM     19  C   UNL     1      32.071  -6.920 -21.305  0.00  0.00    +0.001 C 
ATOM     20  C   UNL     1      30.791  -7.448 -23.284  0.00  0.00    +0.001 C 
ATOM     21  C   UNL     1      31.268  -6.510 -22.369  0.00  0.00    +0.000 C 
ENDBRANCH   4  16
BRANCH   5  22
ATOM     22  C   UNL     1      32.680 -13.665 -20.377  0.00  0.00    +0.018 C 
BRANCH  22  23
ATOM     23  C   UNL     1      32.177 -15.109 -20.379  0.00  0.00    +0.001 C 
BRANCH  23  24
ATOM     24  C   UNL     1      33.235 -16.066 -20.927  0.00  0.00    +0.000 C 
ATOM     25  C   UNL     1      34.637 -15.502 -20.759  0.00  0.00    +0.000 C 
ENDBRANCH  23  24
ENDBRANCH  22  23
ENDBRANCH   5  22
TORSDOF 6
ENDMDL
MODEL 4
REMARK VINA RESULT:      -8.2      9.617     12.368
REMARK  Name = 4641
REMARK  6 active torsions:
REMARK  status: ('A' for Active; 'I' for Inactive)
REMARK    1  A    between atoms: N_3  and  C_8
REMARK    2  A    between atoms: N_4  and  C_16
REMARK    3  A    between atoms: C_5  and  C_22
REMARK    4  A    between atoms: C_13  and  O_14
REMARK    5  A    between atoms: C_22  and  C_23
REMARK    6  A    between atoms: C_23  and  C_24
REMARK                            x       y       z     vdW  Elec       q    Type
REMARK                         _______ _______ _______ _____ _____    ______ ____
ROOT
ATOM      1  O   UNL     1      34.931 -15.353 -20.383  0.00  0.00    -0.272 OA
ATOM      2  O   UNL     1      34.242 -17.208 -24.665  0.00  0.00    -0.272 OA
ATOM      3  N   UNL     1      33.841 -14.593 -22.358  0.00  0.00    -0.179 N 
ATOM      4  N   UNL     1      33.731 -15.105 -23.674  0.00  0.00    -0.179 N 
ATOM      5  C   UNL     1      34.855 -16.689 -22.391  0.00  0.00    +0.157 C 
ATOM      6  C   UNL     1      34.598 -15.459 -21.554  0.00  0.00    +0.254 C 
ATOM      7  C   UNL     1      34.214 -16.420 -23.731  0.00  0.00    +0.254 C 
ENDROOT
BRANCH   3   8
ATOM      8  C   UNL     1      32.968 -13.607 -21.804  0.00  0.00    +0.074 C 
ATOM      9  C   UNL     1      32.349 -12.672 -22.637  0.00  0.00    +0.020 C 
ATOM     10  C   UNL     1      32.730 -13.574 -20.428  0.00  0.00    +0.020 C 
ATOM     11  C   UNL     1      31.498 -11.708 -22.096  0.00  0.00    +0.038 C 
ATOM     12  C   UNL     1      31.879 -12.611 -19.888  0.00  0.00    +0.038 C 
ATOM     13  C   UNL     1      31.263 -11.677 -20.722  0.00  0.00    +0.134 C 
BRANCH  13  14
ATOM     14  O   UNL     1      30.430 -10.739 -20.195  0.00  0.00    -0.506 OA
ATOM     15  H   UNL     1      30.783  -9.956 -19.821  0.00  0.00    +0.292 HD
ENDBRANCH  13  14
ENDBRANCH   3   8
BRANCH   4  16
ATOM     16  C   UNL     1      33.564 -14.297 -24.839  0.00  0.00    +0.073 C 
ATOM     17  C   UNL     1      34.066 -12.994 -24.867  0.00  0.00    +0.017 C 
ATOM     18  C   UNL     1      32.898 -14.807 -25.957  0.00  0.00    +0.017 C 
ATOM     19  C   UNL     1      33.904 -12.205 -26.006  0.00  0.00    +0.001 C 
ATOM     20  C   UNL     1      32.736 -14.018 -27.095  0.00  0.00    +0.001 C 
ATOM     21  C   UNL     1      33.238 -12.717 -27.119  0.00  0.00    +0.000 C 
ENDBRANCH   4  16
BRANCH   5  22
ATOM     22  C   UNL     1      34.272 -17.933 -21.745  0.00  0.00    +0.018 C 
BRANCH  22  23
ATOM     23  C   UNL     1      35.367 -18.922 -21.345  0.00  0.00    +0.001 C 
BRANCH  23  24
ATOM     24  C   UNL     1      34.788 -20.114 -20.582  0.00  0.00    +0.000 C 
ATOM     25  C   UNL     1      33.268 -20.084 -20.573  0.00  0.00    +0.000 C 
ENDBRANCH  23  24
ENDBRANCH  22  23
ENDBRANCH   5  22
TORSDOF 6
ENDMDL
MODEL 5
REMARK VINA RESULT:      -8.2      1.919      5.944
REMARK  Name = 4641
REMARK  6 active torsions:
REMARK  status: ('A' for Active; 'I' for Inactive)
REMARK    1  A    between atoms: N_3  and  C_8
REMARK    2  A    between atoms: N_4  and  C_16
REMARK    3  A    between atoms: C_5  and  C_22
REMARK    4  A    between atoms: C_13  and  O_14
REMARK    5  A    between atoms: C_22  and  C_23
REMARK    6  A    between atoms: C_23  and  C_24
REMARK                            x       y       z     vdW  Elec       q    Type
REMARK                         _______ _______ _______ _____ _____    ______ ____
ROOT
ATOM      1  O   UNL     1      31.853 -25.796 -14.232  0.00  0.00    -0.272 OA
ATOM      2  O   UNL     1      31.180 -22.191 -17.198  0.00  0.00    -0.272 OA
ATOM      3  N   UNL     1      33.302 -24.223 -15.277  0.00  0.00    -0.179 N 
ATOM      4  N   UNL     1      33.110 -23.213 -16.251  0.00  0.00    -0.179 N 
ATOM      5  C   UNL     1      31.020 -24.098 -15.730  0.00  0.00    +0.157 C 
ATOM      6  C   UNL     1      32.089 -24.867 -14.990  0.00  0.00    +0.254 C 
ATOM      7  C   UNL     1      31.742 -23.002 -16.477  0.00  0.00    +0.254 C 
ENDROOT
BRANCH   3   8
ATOM      8  C   UNL     1      34.426 -24.287 -14.398  0.00  0.00    +0.074 C 
ATOM      9  C   UNL     1      34.403 -23.605 -13.180  0.00  0.00    +0.020 C 
ATOM     10  C   UNL     1      35.552 -25.033 -14.754  0.00  0.00    +0.020 C 
ATOM     11  C   UNL     1      35.502 -23.666 -12.323  0.00  0.00    +0.038 C 
ATOM     12  C   UNL     1      36.650 -25.095 -13.897  0.00  0.00    +0.038 C 
ATOM     13  C   UNL     1      36.626 -24.411 -12.680  0.00  0.00    +0.134 C 
BRANCH  13  14
ATOM     14  O   UNL     1      37.696 -24.474 -11.843  0.00  0.00    -0.506 OA
ATOM     15  H   UNL     1      38.278 -25.206 -11.880  0.00  0.00    +0.292 HD
ENDBRANCH  13  14
ENDBRANCH   3   8
BRANCH   4  16
ATOM     16  C   UNL     1      34.115 -22.777 -17.167  0.00  0.00    +0.073 C 
ATOM     17  C   UNL     1      33.833 -22.701 -18.533  0.00  0.00    +0.017 C 
ATOM     18  C   UNL     1      35.384 -22.425 -16.701  0.00  0.00    +0.017 C 
ATOM     19  C   UNL     1      34.815 -22.275 -19.427  0.00  0.00    +0.001 C 
ATOM     20  C   UNL     1      36.365 -22.000 -17.595  0.00  0.00    +0.001 C 
ATOM     21  C   UNL     1      36.081 -21.925 -18.959  0.00  0.00    +0.000 C 
ENDBRANCH   4  16
BRANCH   5  22
ATOM     22  C   UNL     1      29.988 -23.522 -14.777  0.00  0.00    +0.018 C 
BRANCH  22  23
ATOM     23  C   UNL     1      28.568 -23.705 -15.313  0.00  0.00    +0.001 C 
BRANCH  23  24
ATOM     24  C   UNL     1      27.952 -22.367 -15.722  0.00  0.00    +0.000 C 
ATOM     25  C   UNL     1      27.492 -22.386 -17.171  0.00  0.00    +0.000 C 
ENDBRANCH  23  24
ENDBRANCH  22  23
ENDBRANCH   5  22
TORSDOF 6
ENDMDL
MODEL 6
REMARK VINA RESULT:      -8.0      2.005      6.587
REMARK  Name = 4641
REMARK  6 active torsions:
REMARK  status: ('A' for Active; 'I' for Inactive)
REMARK    1  A    between atoms: N_3  and  C_8
REMARK    2  A    between atoms: N_4  and  C_16
REMARK    3  A    between atoms: C_5  and  C_22
REMARK    4  A    between atoms: C_13  and  O_14
REMARK    5  A    between atoms: C_22  and  C_23
REMARK    6  A    between atoms: C_23  and  C_24
REMARK                            x       y       z     vdW  Elec       q    Type
REMARK                         _______ _______ _______ _____ _____    ______ ____
ROOT
ATOM      1  O   UNL     1      31.029 -22.201 -16.672  0.00  0.00    -0.272 OA
ATOM      2  O   UNL     1      32.157 -25.726 -13.748  0.00  0.00    -0.272 OA
ATOM      3  N   UNL     1      33.083 -23.202 -16.006  0.00  0.00    -0.179 N 
ATOM      4  N   UNL     1      33.425 -24.186 -15.046  0.00  0.00    -0.179 N 
ATOM      5  C   UNL     1      31.103 -24.020 -15.088  0.00  0.00    +0.157 C 
ATOM      6  C   UNL     1      31.697 -22.982 -16.010  0.00  0.00    +0.254 C 
ATOM      7  C   UNL     1      32.272 -24.807 -14.544  0.00  0.00    +0.254 C 
ENDROOT
BRANCH   3   8
ATOM      8  C   UNL     1      33.920 -22.821 -17.099  0.00  0.00    +0.074 C 
ATOM      9  C   UNL     1      35.224 -22.384 -16.862  0.00  0.00    +0.020 C 
ATOM     10  C   UNL     1      33.435 -22.883 -18.407  0.00  0.00    +0.020 C 
ATOM     11  C   UNL     1      36.041 -22.009 -17.929  0.00  0.00    +0.038 C 
ATOM     12  C   UNL     1      34.252 -22.509 -19.474  0.00  0.00    +0.038 C 
ATOM     13  C   UNL     1      35.555 -22.072 -19.235  0.00  0.00    +0.134 C 
BRANCH  13  14
ATOM     14  O   UNL     1      36.353 -21.709 -20.277  0.00  0.00    -0.506 OA
ATOM     15  H   UNL     1      37.283 -21.684 -20.167  0.00  0.00    +0.292 HD
ENDBRANCH  13  14
ENDBRANCH   3   8
BRANCH   4  16
ATOM     16  C   UNL     1      34.685 -24.251 -14.376  0.00  0.00    +0.073 C 
ATOM     17  C   UNL     1      34.924 -23.454 -13.254  0.00  0.00    +0.017 C 
ATOM     18  C   UNL     1      35.682 -25.112 -14.839  0.00  0.00    +0.017 C 
ATOM     19  C   UNL     1      36.154 -23.518 -12.600  0.00  0.00    +0.001 C 
ATOM     20  C   UNL     1      36.912 -25.176 -14.184  0.00  0.00    +0.001 C 
ATOM     21  C   UNL     1      37.148 -24.378 -13.064  0.00  0.00    +0.000 C 
ENDBRANCH   4  16
BRANCH   5  22
ATOM     22  C   UNL     1      30.129 -24.923 -15.820  0.00  0.00    +0.018 C 
BRANCH  22  23
ATOM     23  C   UNL     1      28.679 -24.560 -15.500  0.00  0.00    +0.001 C 
BRANCH  23  24
ATOM     24  C   UNL     1      28.075 -23.673 -16.588  0.00  0.00    +0.000 C 
ATOM     25  C   UNL     1      27.460 -22.413 -16.000  0.00  0.00    +0.000 C 
ENDBRANCH  23  24
ENDBRANCH  22  23
ENDBRANCH   5  22
TORSDOF 6
ENDMDL
MODEL 7
REMARK VINA RESULT:      -8.0     10.397     13.671
REMARK  Name = 4641
REMARK  6 active torsions:
REMARK  status: ('A' for Active; 'I' for Inactive)
REMARK    1  A    between atoms: N_3  and  C_8
REMARK    2  A    between atoms: N_4  and  C_16
REMARK    3  A    between atoms: C_5  and  C_22
REMARK    4  A    between atoms: C_13  and  O_14
REMARK    5  A    between atoms: C_22  and  C_23
REMARK    6  A    between atoms: C_23  and  C_24
REMARK                            x       y       z     vdW  Elec       q    Type
REMARK                         _______ _______ _______ _____ _____    ______ ____
ROOT
ATOM      1  O   UNL     1      31.855 -15.002 -20.328  0.00  0.00    -0.272 OA
ATOM      2  O   UNL     1      32.238 -11.014 -22.817  0.00  0.00    -0.272 OA
ATOM      3  N   UNL     1      32.942 -14.423 -22.365  0.00  0.00    -0.179 N 
ATOM      4  N   UNL     1      32.963 -13.254 -23.165  0.00  0.00    -0.179 N 
ATOM      5  C   UNL     1      31.747 -12.771 -21.239  0.00  0.00    +0.157 C 
ATOM      6  C   UNL     1      32.139 -14.229 -21.231  0.00  0.00    +0.254 C 
ATOM      7  C   UNL     1      32.366 -12.183 -22.485  0.00  0.00    +0.254 C 
ENDROOT
BRANCH   3   8
ATOM      8  C   UNL     1      33.915 -15.466 -22.441  0.00  0.00    +0.074 C 
ATOM      9  C   UNL     1      34.398 -15.885 -23.683  0.00  0.00    +0.020 C 
ATOM     10  C   UNL     1      34.388 -16.070 -21.273  0.00  0.00    +0.020 C 
ATOM     11  C   UNL     1      35.347 -16.905 -23.757  0.00  0.00    +0.038 C 
ATOM     12  C   UNL     1      35.337 -17.089 -21.348  0.00  0.00    +0.038 C 
ATOM     13  C   UNL     1      35.817 -17.507 -22.589  0.00  0.00    +0.134 C 
BRANCH  13  14
ATOM     14  O   UNL     1      36.746 -18.499 -22.661  0.00  0.00    -0.506 OA
ATOM     15  H   UNL     1      36.497 -19.352 -22.955  0.00  0.00    +0.292 HD
ENDBRANCH  13  14
ENDBRANCH   3   8
BRANCH   4  16
ATOM     16  C   UNL     1      33.162 -13.251 -24.579  0.00  0.00    +0.073 C 
ATOM     17  C   UNL     1      32.621 -14.271 -25.365  0.00  0.00    +0.017 C 
ATOM     18  C   UNL     1      33.898 -12.228 -25.181  0.00  0.00    +0.017 C 
ATOM     19  C   UNL     1      32.815 -14.267 -26.746  0.00  0.00    +0.001 C 
ATOM     20  C   UNL     1      34.092 -12.225 -26.562  0.00  0.00    +0.001 C 
ATOM     21  C   UNL     1      33.550 -13.245 -27.345  0.00  0.00    +0.000 C 
ENDBRANCH   4  16
BRANCH   5  22
ATOM     22  C   UNL     1      32.240 -12.056 -19.994  0.00  0.00    +0.018 C 
BRANCH  22  23
ATOM     23  C   UNL     1      31.218 -11.037 -19.492  0.00  0.00    +0.001 C 
BRANCH  23  24
ATOM     24  C   UNL     1      31.895  -9.738 -19.055  0.00  0.00    +0.000 C 
ATOM     25  C   UNL     1      32.187  -8.835 -20.243  0.00  0.00    +0.000 C 
ENDBRANCH  23  24
ENDBRANCH  22  23
ENDBRANCH   5  22
TORSDOF 6
ENDMDL
MODEL 8
REMARK VINA RESULT:      -7.8     14.317     17.615
REMARK  Name = 4641
REMARK  6 active torsions:
REMARK  status: ('A' for Active; 'I' for Inactive)
REMARK    1  A    between atoms: N_3  and  C_8
REMARK    2  A    between atoms: N_4  and  C_16
REMARK    3  A    between atoms: C_5  and  C_22
REMARK    4  A    between atoms: C_13  and  O_14
REMARK    5  A    between atoms: C_22  and  C_23
REMARK    6  A    between atoms: C_23  and  C_24
REMARK                            x       y       z     vdW  Elec       q    Type
REMARK                         _______ _______ _______ _____ _____    ______ ____
ROOT
ATOM      1  O   UNL     1      35.481  -8.970 -24.837  0.00  0.00    -0.272 OA
ATOM      2  O   UNL     1      31.925  -6.893 -22.536  0.00  0.00    -0.272 OA
ATOM      3  N   UNL     1      33.656  -9.778 -23.539  0.00  0.00    -0.179 N 
ATOM      4  N   UNL     1      32.656  -9.148 -22.760  0.00  0.00    -0.179 N 
ATOM      5  C   UNL     1      33.886  -7.476 -23.814  0.00  0.00    +0.157 C 
ATOM      6  C   UNL     1      34.499  -8.821 -24.125  0.00  0.00    +0.254 C 
ATOM      7  C   UNL     1      32.661  -7.763 -22.979  0.00  0.00    +0.254 C 
ENDROOT
BRANCH   3   8
ATOM      8  C   UNL     1      33.570 -11.119 -24.025  0.00  0.00    +0.074 C 
ATOM      9  C   UNL     1      33.532 -12.188 -23.128  0.00  0.00    +0.020 C 
ATOM     10  C   UNL     1      33.524 -11.364 -25.399  0.00  0.00    +0.020 C 
ATOM     11  C   UNL     1      33.451 -13.497 -23.603  0.00  0.00    +0.038 C 
ATOM     12  C   UNL     1      33.441 -12.672 -25.874  0.00  0.00    +0.038 C 
ATOM     13  C   UNL     1      33.405 -13.740 -24.976  0.00  0.00    +0.134 C 
BRANCH  13  14
ATOM     14  O   UNL     1      33.321 -15.017 -25.439  0.00  0.00    -0.506 OA
ATOM     15  H   UNL     1      32.557 -15.528 -25.266  0.00  0.00    +0.292 HD
ENDBRANCH  13  14
ENDBRANCH   3   8
BRANCH   4  16
ATOM     16  C   UNL     1      32.030  -9.742 -21.622  0.00  0.00    +0.073 C 
ATOM     17  C   UNL     1      32.388  -9.338 -20.334  0.00  0.00    +0.017 C 
ATOM     18  C   UNL     1      31.056 -10.730 -21.792  0.00  0.00    +0.017 C 
ATOM     19  C   UNL     1      31.775  -9.918 -19.223  0.00  0.00    +0.001 C 
ATOM     20  C   UNL     1      30.445 -11.309 -20.682  0.00  0.00    +0.001 C 
ATOM     21  C   UNL     1      30.805 -10.903 -19.396  0.00  0.00    +0.000 C 
ENDBRANCH   4  16
BRANCH   5  22
ATOM     22  C   UNL     1      33.521  -6.724 -25.081  0.00  0.00    +0.018 C 
BRANCH  22  23
ATOM     23  C   UNL     1      34.733  -6.009 -25.677  0.00  0.00    +0.001 C 
BRANCH  23  24
ATOM     24  C   UNL     1      34.321  -5.059 -26.801  0.00  0.00    +0.000 C 
ATOM     25  C   UNL     1      32.880  -4.599 -26.641  0.00  0.00    +0.000 C 
ENDBRANCH  23  24
ENDBRANCH  22  23
ENDBRANCH   5  22
TORSDOF 6
ENDMDL
MODEL 9
REMARK VINA RESULT:      -7.8     12.713     15.754
REMARK  Name = 4641
REMARK  6 active torsions:
REMARK  status: ('A' for Active; 'I' for Inactive)
REMARK    1  A    between atoms: N_3  and  C_8
REMARK    2  A    between atoms: N_4  and  C_16
REMARK    3  A    between atoms: C_5  and  C_22
REMARK    4  A    between atoms: C_13  and  O_14
REMARK    5  A    between atoms: C_22  and  C_23
REMARK    6  A    between atoms: C_23  and  C_24
REMARK                            x       y       z     vdW  Elec       q    Type
REMARK                         _______ _______ _______ _____ _____    ______ ____
ROOT
ATOM      1  O   UNL     1      30.703 -11.457 -21.297  0.00  0.00    -0.272 OA
ATOM      2  O   UNL     1      33.544  -8.309 -23.363  0.00  0.00    -0.272 OA
ATOM      3  N   UNL     1      32.545 -11.626 -22.796  0.00  0.00    -0.179 N 
ATOM      4  N   UNL     1      33.324 -10.675 -23.499  0.00  0.00    -0.179 N 
ATOM      5  C   UNL     1      31.861  -9.505 -22.117  0.00  0.00    +0.157 C 
ATOM      6  C   UNL     1      31.571 -10.984 -22.016  0.00  0.00    +0.254 C 
ATOM      7  C   UNL     1      33.047  -9.378 -23.043  0.00  0.00    +0.254 C 
ENDROOT
BRANCH   3   8
ATOM      8  C   UNL     1      32.949 -12.975 -22.554  0.00  0.00    +0.074 C 
ATOM      9  C   UNL     1      32.229 -13.772 -21.662  0.00  0.00    +0.020 C 
ATOM     10  C   UNL     1      34.066 -13.499 -23.207  0.00  0.00    +0.020 C 
ATOM     11  C   UNL     1      32.625 -15.089 -21.424  0.00  0.00    +0.038 C 
ATOM     12  C   UNL     1      34.462 -14.815 -22.969  0.00  0.00    +0.038 C 
ATOM     13  C   UNL     1      33.741 -15.610 -22.077  0.00  0.00    +0.134 C 
BRANCH  13  14
ATOM     14  O   UNL     1      34.126 -16.895 -21.847  0.00  0.00    -0.506 OA
ATOM     15  H   UNL     1      33.961 -17.556 -22.490  0.00  0.00    +0.292 HD
ENDBRANCH  13  14
ENDBRANCH   3   8
BRANCH   4  16
ATOM     16  C   UNL     1      33.966 -10.928 -24.750  0.00  0.00    +0.073 C 
ATOM     17  C   UNL     1      33.428 -11.864 -25.637  0.00  0.00    +0.017 C 
ATOM     18  C   UNL     1      35.133 -10.241 -25.091  0.00  0.00    +0.017 C 
ATOM     19  C   UNL     1      34.054 -12.110 -26.859  0.00  0.00    +0.001 C 
ATOM     20  C   UNL     1      35.759 -10.488 -26.312  0.00  0.00    +0.001 C 
ATOM     21  C   UNL     1      35.219 -11.423 -27.196  0.00  0.00    +0.000 C 
ENDBRANCH   4  16
BRANCH   5  22
ATOM     22  C   UNL     1      32.162  -8.903 -20.757  0.00  0.00    +0.018 C 
BRANCH  22  23
ATOM     23  C   UNL     1      32.712  -7.482 -20.883  0.00  0.00    +0.001 C 
BRANCH  23  24
ATOM     24  C   UNL     1      31.584  -6.456 -20.981  0.00  0.00    +0.000 C 
ATOM     25  C   UNL     1      31.711  -5.607 -22.236  0.00  0.00    +0.000 C 
ENDBRANCH  23  24
ENDBRANCH  22  23
ENDBRANCH   5  22
TORSDOF 6
ENDMDL
