MODEL 1
REMARK VINA RESULT:      -9.2      0.000      0.000
REMARK  Name = 10607
REMARK  5 active torsions:
REMARK  status: ('A' for Active; 'I' for Inactive)
REMARK    1  A    between atoms: C_7  and  C_18
REMARK    2  A    between atoms: C_8  and  O_30
REMARK    3  A    between atoms: C_21  and  O_24
REMARK    4  A    between atoms: C_22  and  O_26
REMARK    5  A    between atoms: C_23  and  O_28
REMARK                            x       y       z     vdW  Elec       q    Type
REMARK                         _______ _______ _______ _____ _____    ______ ____
ROOT
ATOM      1  O   UNL     1      35.660 -24.928 -13.681  0.00  0.00    -0.448 OA
ATOM      2  O   UNL     1      35.703 -25.830 -15.800  0.00  0.00    -0.250 OA
ATOM      3  O   UNL     1      28.464 -22.799 -17.506  0.00  0.00    -0.435 OA
ATOM      4  O   UNL     1      27.911 -22.043 -15.286  0.00  0.00    -0.435 OA
ATOM      5  C   UNL     1      33.700 -23.710 -13.872  0.00  0.00    +0.086 C 
ATOM      6  C   UNL     1      33.673 -24.809 -14.913  0.00  0.00    +0.113 C 
ATOM      7  C   UNL     1      33.004 -24.330 -16.206  0.00  0.00    +0.055 C 
ATOM      8  C   UNL     1      32.292 -23.392 -13.391  0.00  0.00    +0.137 C 
ATOM      9  C   UNL     1      31.646 -23.694 -15.875  0.00  0.00    -0.016 C 
ATOM     10  C   UNL     1      34.669 -24.279 -12.863  0.00  0.00    +0.212 C 
ATOM     11  C   UNL     1      31.325 -23.232 -14.558  0.00  0.00    +0.004 C 
ATOM     12  C   UNL     1      35.115 -25.248 -14.904  0.00  0.00    +0.317 C 
ATOM     13  C   UNL     1      30.703 -23.564 -16.913  0.00  0.00    +0.036 C 
ATOM     14  C   UNL     1      30.057 -22.674 -14.310  0.00  0.00    +0.038 C 
ATOM     15  C   UNL     1      29.481 -22.995 -16.624  0.00  0.00    +0.176 C 
ATOM     16  C   UNL     1      29.167 -22.564 -15.358  0.00  0.00    +0.176 C 
ATOM     17  C   UNL     1      27.472 -22.193 -16.652  0.00  0.00    +0.429 C 
ENDROOT
BRANCH   7  18
ATOM     18  C   UNL     1      33.867 -23.368 -16.966  0.00  0.00    -0.012 C 
ATOM     19  C   UNL     1      35.092 -22.975 -16.437  0.00  0.00    +0.036 C 
ATOM     20  C   UNL     1      33.437 -22.876 -18.194  0.00  0.00    +0.036 C 
ATOM     21  C   UNL     1      34.240 -21.980 -18.899  0.00  0.00    +0.175 C 
ATOM     22  C   UNL     1      35.895 -22.081 -17.143  0.00  0.00    +0.175 C 
ATOM     23  C   UNL     1      35.469 -21.583 -18.374  0.00  0.00    +0.206 C 
BRANCH  21  24
ATOM     24  O   UNL     1      33.812 -21.501 -20.101  0.00  0.00    -0.468 OA
ATOM     25  C   UNL     1      32.946 -20.368 -20.076  0.00  0.00    +0.253 C 
ENDBRANCH  21  24
BRANCH  22  26
ATOM     26  O   UNL     1      37.094 -21.700 -16.619  0.00  0.00    -0.468 OA
ATOM     27  C   UNL     1      37.797 -22.666 -15.840  0.00  0.00    +0.253 C 
ENDBRANCH  22  26
BRANCH  23  28
ATOM     28  O   UNL     1      36.256 -20.709 -19.065  0.00  0.00    -0.465 OA
ATOM     29  C   UNL     1      36.926 -21.214 -20.219  0.00  0.00    +0.253 C 
ENDBRANCH  23  28
ENDBRANCH   7  18
BRANCH   8  30
ATOM     30  O   UNL     1      32.334 -22.193 -12.622  0.00  0.00    -0.380 OA
ATOM     31  H   UNL     1      32.896 -21.542 -13.069  0.00  0.00    +0.211 HD
ENDBRANCH   8  30
TORSDOF 5
ENDMDL
MODEL 2
REMARK VINA RESULT:      -9.1      0.049      2.326
REMARK  Name = 10607
REMARK  5 active torsions:
REMARK  status: ('A' for Active; 'I' for Inactive)
REMARK    1  A    between atoms: C_7  and  C_18
REMARK    2  A    between atoms: C_8  and  O_30
REMARK    3  A    between atoms: C_21  and  O_24
REMARK    4  A    between atoms: C_22  and  O_26
REMARK    5  A    between atoms: C_23  and  O_28
REMARK                            x       y       z     vdW  Elec       q    Type
REMARK                         _______ _______ _______ _____ _____    ______ ____
ROOT
ATOM      1  O   UNL     1      35.674 -24.924 -13.655  0.00  0.00    -0.448 OA
ATOM      2  O   UNL     1      35.696 -25.846 -15.767  0.00  0.00    -0.250 OA
ATOM      3  O   UNL     1      28.454 -22.806 -17.442  0.00  0.00    -0.435 OA
ATOM      4  O   UNL     1      27.922 -22.027 -15.225  0.00  0.00    -0.435 OA
ATOM      5  C   UNL     1      33.716 -23.701 -13.842  0.00  0.00    +0.086 C 
ATOM      6  C   UNL     1      33.677 -24.810 -14.872  0.00  0.00    +0.113 C 
ATOM      7  C   UNL     1      32.999 -24.340 -16.164  0.00  0.00    +0.055 C 
ATOM      8  C   UNL     1      32.313 -23.374 -13.353  0.00  0.00    +0.137 C 
ATOM      9  C   UNL     1      31.646 -23.697 -15.828  0.00  0.00    -0.016 C 
ATOM     10  C   UNL     1      34.691 -24.264 -12.836  0.00  0.00    +0.212 C 
ATOM     11  C   UNL     1      31.338 -23.222 -14.514  0.00  0.00    +0.004 C 
ATOM     12  C   UNL     1      35.117 -25.253 -14.872  0.00  0.00    +0.317 C 
ATOM     13  C   UNL     1      30.695 -23.573 -16.860  0.00  0.00    +0.036 C 
ATOM     14  C   UNL     1      30.073 -22.656 -14.261  0.00  0.00    +0.038 C 
ATOM     15  C   UNL     1      29.477 -22.998 -16.566  0.00  0.00    +0.176 C 
ATOM     16  C   UNL     1      29.175 -22.553 -15.302  0.00  0.00    +0.176 C 
ATOM     17  C   UNL     1      27.471 -22.189 -16.585  0.00  0.00    +0.429 C 
ENDROOT
BRANCH   7  18
ATOM     18  C   UNL     1      33.859 -23.389 -16.940  0.00  0.00    -0.012 C 
ATOM     19  C   UNL     1      33.421 -22.911 -18.171  0.00  0.00    +0.036 C 
ATOM     20  C   UNL     1      35.089 -22.992 -16.425  0.00  0.00    +0.036 C 
ATOM     21  C   UNL     1      35.888 -22.107 -17.149  0.00  0.00    +0.175 C 
ATOM     22  C   UNL     1      34.220 -22.026 -18.893  0.00  0.00    +0.175 C 
ATOM     23  C   UNL     1      35.454 -21.624 -18.383  0.00  0.00    +0.206 C 
BRANCH  21  24
ATOM     24  O   UNL     1      37.092 -21.723 -16.638  0.00  0.00    -0.468 OA
ATOM     25  C   UNL     1      37.781 -22.669 -15.822  0.00  0.00    +0.253 C 
ENDBRANCH  21  24
BRANCH  22  26
ATOM     26  O   UNL     1      33.784 -21.561 -20.097  0.00  0.00    -0.468 OA
ATOM     27  C   UNL     1      33.010 -20.363 -20.088  0.00  0.00    +0.253 C 
ENDBRANCH  22  26
BRANCH  23  28
ATOM     28  O   UNL     1      36.234 -20.757 -19.089  0.00  0.00    -0.465 OA
ATOM     29  C   UNL     1      36.891 -21.272 -20.245  0.00  0.00    +0.253 C 
ENDBRANCH  23  28
ENDBRANCH   7  18
BRANCH   8  30
ATOM     30  O   UNL     1      32.365 -22.168 -12.595  0.00  0.00    -0.380 OA
ATOM     31  H   UNL     1      33.154 -21.662 -12.847  0.00  0.00    +0.211 HD
ENDBRANCH   8  30
TORSDOF 5
ENDMDL
MODEL 3
REMARK VINA RESULT:      -8.0      2.226      5.424
REMARK  Name = 10607
REMARK  5 active torsions:
REMARK  status: ('A' for Active; 'I' for Inactive)
REMARK    1  A    between atoms: C_7  and  C_18
REMARK    2  A    between atoms: C_8  and  O_30
REMARK    3  A    between atoms: C_21  and  O_24
REMARK    4  A    between atoms: C_22  and  O_26
REMARK    5  A    between atoms: C_23  and  O_28
REMARK                            x       y       z     vdW  Elec       q    Type
REMARK                         _______ _______ _______ _____ _____    ______ ____
ROOT
ATOM      1  O   UNL     1      37.047 -21.615 -18.226  0.00  0.00    -0.448 OA
ATOM      2  O   UNL     1      37.685 -21.127 -16.068  0.00  0.00    -0.250 OA
ATOM      3  O   UNL     1      30.880 -24.184 -13.096  0.00  0.00    -0.435 OA
ATOM      4  O   UNL     1      29.735 -24.495 -15.193  0.00  0.00    -0.435 OA
ATOM      5  C   UNL     1      35.105 -22.783 -17.747  0.00  0.00    +0.086 C 
ATOM      6  C   UNL     1      35.424 -21.897 -16.562  0.00  0.00    +0.113 C 
ATOM      7  C   UNL     1      35.062 -22.587 -15.242  0.00  0.00    +0.055 C 
ATOM      8  C   UNL     1      33.602 -22.960 -17.895  0.00  0.00    +0.137 C 
ATOM      9  C   UNL     1      33.618 -23.105 -15.315  0.00  0.00    -0.016 C 
ATOM     10  C   UNL     1      35.835 -22.068 -18.859  0.00  0.00    +0.212 C 
ATOM     11  C   UNL     1      32.945 -23.303 -16.563  0.00  0.00    +0.004 C 
ATOM     12  C   UNL     1      36.849 -21.512 -16.867  0.00  0.00    +0.317 C 
ATOM     13  C   UNL     1      32.955 -23.396 -14.107  0.00  0.00    +0.036 C 
ATOM     14  C   UNL     1      31.615 -23.764 -16.567  0.00  0.00    +0.038 C 
ATOM     15  C   UNL     1      31.658 -23.860 -14.164  0.00  0.00    +0.176 C 
ATOM     16  C   UNL     1      31.007 -24.038 -15.360  0.00  0.00    +0.176 C 
ATOM     17  C   UNL     1      29.662 -24.588 -13.756  0.00  0.00    +0.429 C 
ENDROOT
BRANCH   7  18
ATOM     18  C   UNL     1      36.008 -23.701 -14.908  0.00  0.00    -0.012 C 
ATOM     19  C   UNL     1      35.744 -24.988 -15.365  0.00  0.00    +0.036 C 
ATOM     20  C   UNL     1      37.140 -23.439 -14.144  0.00  0.00    +0.036 C 
ATOM     21  C   UNL     1      38.019 -24.477 -13.833  0.00  0.00    +0.175 C 
ATOM     22  C   UNL     1      36.623 -26.025 -15.054  0.00  0.00    +0.175 C 
ATOM     23  C   UNL     1      37.760 -25.770 -14.288  0.00  0.00    +0.206 C 
BRANCH  21  24
ATOM     24  O   UNL     1      39.126 -24.214 -13.083  0.00  0.00    -0.468 OA
ATOM     25  C   UNL     1      38.928 -23.506 -11.861  0.00  0.00    +0.253 C 
ENDBRANCH  21  24
BRANCH  22  26
ATOM     26  O   UNL     1      36.359 -27.284 -15.505  0.00  0.00    -0.468 OA
ATOM     27  C   UNL     1      36.803 -27.607 -16.820  0.00  0.00    +0.253 C 
ENDBRANCH  22  26
BRANCH  23  28
ATOM     28  O   UNL     1      38.620 -26.784 -13.986  0.00  0.00    -0.465 OA
ATOM     29  C   UNL     1      39.974 -26.631 -14.405  0.00  0.00    +0.253 C 
ENDBRANCH  23  28
ENDBRANCH   7  18
BRANCH   8  30
ATOM     30  O   UNL     1      33.356 -23.995 -18.843  0.00  0.00    -0.380 OA
ATOM     31  H   UNL     1      33.561 -24.855 -18.443  0.00  0.00    +0.211 HD
ENDBRANCH   8  30
TORSDOF 5
ENDMDL
MODEL 4
REMARK VINA RESULT:      -8.0      2.225      5.123
REMARK  Name = 10607
REMARK  5 active torsions:
REMARK  status: ('A' for Active; 'I' for Inactive)
REMARK    1  A    between atoms: C_7  and  C_18
REMARK    2  A    between atoms: C_8  and  O_30
REMARK    3  A    between atoms: C_21  and  O_24
REMARK    4  A    between atoms: C_22  and  O_26
REMARK    5  A    between atoms: C_23  and  O_28
REMARK                            x       y       z     vdW  Elec       q    Type
REMARK                         _______ _______ _______ _____ _____    ______ ____
ROOT
ATOM      1  O   UNL     1      37.049 -21.612 -18.225  0.00  0.00    -0.448 OA
ATOM      2  O   UNL     1      37.687 -21.127 -16.065  0.00  0.00    -0.250 OA
ATOM      3  O   UNL     1      30.876 -24.182 -13.103  0.00  0.00    -0.435 OA
ATOM      4  O   UNL     1      29.732 -24.488 -15.201  0.00  0.00    -0.435 OA
ATOM      5  C   UNL     1      35.106 -22.778 -17.749  0.00  0.00    +0.086 C 
ATOM      6  C   UNL     1      35.425 -21.894 -16.562  0.00  0.00    +0.113 C 
ATOM      7  C   UNL     1      35.061 -22.586 -15.244  0.00  0.00    +0.055 C 
ATOM      8  C   UNL     1      33.602 -22.953 -17.898  0.00  0.00    +0.137 C 
ATOM      9  C   UNL     1      33.617 -23.102 -15.318  0.00  0.00    -0.016 C 
ATOM     10  C   UNL     1      35.837 -22.063 -18.859  0.00  0.00    +0.212 C 
ATOM     11  C   UNL     1      32.944 -23.297 -16.567  0.00  0.00    +0.004 C 
ATOM     12  C   UNL     1      36.851 -21.510 -16.866  0.00  0.00    +0.317 C 
ATOM     13  C   UNL     1      32.952 -23.394 -14.111  0.00  0.00    +0.036 C 
ATOM     14  C   UNL     1      31.614 -23.757 -16.572  0.00  0.00    +0.038 C 
ATOM     15  C   UNL     1      31.655 -23.857 -14.169  0.00  0.00    +0.176 C 
ATOM     16  C   UNL     1      31.004 -24.032 -15.366  0.00  0.00    +0.176 C 
ATOM     17  C   UNL     1      29.659 -24.583 -13.764  0.00  0.00    +0.429 C 
ENDROOT
BRANCH   7  18
ATOM     18  C   UNL     1      36.005 -23.702 -14.911  0.00  0.00    -0.012 C 
ATOM     19  C   UNL     1      37.138 -23.441 -14.146  0.00  0.00    +0.036 C 
ATOM     20  C   UNL     1      35.742 -24.988 -15.369  0.00  0.00    +0.036 C 
ATOM     21  C   UNL     1      36.622 -26.025 -15.058  0.00  0.00    +0.175 C 
ATOM     22  C   UNL     1      38.016 -24.478 -13.836  0.00  0.00    +0.175 C 
ATOM     23  C   UNL     1      37.759 -25.770 -14.293  0.00  0.00    +0.206 C 
BRANCH  21  24
ATOM     24  O   UNL     1      36.358 -27.284 -15.511  0.00  0.00    -0.468 OA
ATOM     25  C   UNL     1      36.801 -27.605 -16.829  0.00  0.00    +0.253 C 
ENDBRANCH  21  24
BRANCH  22  26
ATOM     26  O   UNL     1      39.124 -24.216 -13.087  0.00  0.00    -0.468 OA
ATOM     27  C   UNL     1      38.927 -23.508 -11.865  0.00  0.00    +0.253 C 
ENDBRANCH  22  26
BRANCH  23  28
ATOM     28  O   UNL     1      38.618 -26.785 -13.988  0.00  0.00    -0.465 OA
ATOM     29  C   UNL     1      39.975 -26.628 -14.395  0.00  0.00    +0.253 C 
ENDBRANCH  23  28
ENDBRANCH   7  18
BRANCH   8  30
ATOM     30  O   UNL     1      33.356 -23.986 -18.848  0.00  0.00    -0.380 OA
ATOM     31  H   UNL     1      32.453 -24.323 -18.732  0.00  0.00    +0.211 HD
ENDBRANCH   8  30
TORSDOF 5
ENDMDL
MODEL 5
REMARK VINA RESULT:      -7.9     12.981     16.254
REMARK  Name = 10607
REMARK  5 active torsions:
REMARK  status: ('A' for Active; 'I' for Inactive)
REMARK    1  A    between atoms: C_7  and  C_18
REMARK    2  A    between atoms: C_8  and  O_30
REMARK    3  A    between atoms: C_21  and  O_24
REMARK    4  A    between atoms: C_22  and  O_26
REMARK    5  A    between atoms: C_23  and  O_28
REMARK                            x       y       z     vdW  Elec       q    Type
REMARK                         _______ _______ _______ _____ _____    ______ ____
ROOT
ATOM      1  O   UNL     1      32.111 -11.263 -19.798  0.00  0.00    -0.448 OA
ATOM      2  O   UNL     1      31.215 -12.012 -21.783  0.00  0.00    -0.250 OA
ATOM      3  O   UNL     1      30.513  -4.518 -24.585  0.00  0.00    -0.435 OA
ATOM      4  O   UNL     1      31.053  -3.368 -22.538  0.00  0.00    -0.435 OA
ATOM      5  C   UNL     1      32.289  -9.017 -20.335  0.00  0.00    +0.086 C 
ATOM      6  C   UNL     1      31.244  -9.634 -21.240  0.00  0.00    +0.113 C 
ATOM      7  C   UNL     1      31.294  -9.020 -22.643  0.00  0.00    +0.055 C 
ATOM      8  C   UNL     1      31.956  -7.561 -20.046  0.00  0.00    +0.137 C 
ATOM      9  C   UNL     1      31.257  -7.489 -22.533  0.00  0.00    -0.016 C 
ATOM     10  C   UNL     1      32.280  -9.978 -19.170  0.00  0.00    +0.212 C 
ATOM     11  C   UNL     1      31.593  -6.807 -21.320  0.00  0.00    +0.004 C 
ATOM     12  C   UNL     1      31.512 -11.102 -21.028  0.00  0.00    +0.317 C 
ATOM     13  C   UNL     1      30.887  -6.750 -23.674  0.00  0.00    +0.036 C 
ATOM     14  C   UNL     1      31.524  -5.402 -21.274  0.00  0.00    +0.038 C 
ATOM     15  C   UNL     1      30.850  -5.375 -23.583  0.00  0.00    +0.176 C 
ATOM     16  C   UNL     1      31.159  -4.720 -22.416  0.00  0.00    +0.176 C 
ATOM     17  C   UNL     1      30.646  -3.248 -23.917  0.00  0.00    +0.429 C 
ENDROOT
BRANCH   7  18
ATOM     18  C   UNL     1      32.501  -9.467 -23.412  0.00  0.00    -0.012 C 
ATOM     19  C   UNL     1      33.388  -8.519 -23.914  0.00  0.00    +0.036 C 
ATOM     20  C   UNL     1      32.725 -10.824 -23.619  0.00  0.00    +0.036 C 
ATOM     21  C   UNL     1      33.848 -11.238 -24.336  0.00  0.00    +0.175 C 
ATOM     22  C   UNL     1      34.510  -8.934 -24.630  0.00  0.00    +0.175 C 
ATOM     23  C   UNL     1      34.740 -10.293 -24.842  0.00  0.00    +0.206 C 
BRANCH  21  24
ATOM     24  O   UNL     1      34.060 -12.569 -24.536  0.00  0.00    -0.468 OA
ATOM     25  C   UNL     1      33.914 -13.426 -23.405  0.00  0.00    +0.253 C 
ENDBRANCH  21  24
BRANCH  22  26
ATOM     26  O   UNL     1      35.374  -8.001 -25.118  0.00  0.00    -0.468 OA
ATOM     27  C   UNL     1      34.923  -6.648 -25.143  0.00  0.00    +0.253 C 
ENDBRANCH  22  26
BRANCH  23  28
ATOM     28  O   UNL     1      35.839 -10.697 -25.540  0.00  0.00    -0.465 OA
ATOM     29  C   UNL     1      35.730 -10.722 -26.962  0.00  0.00    +0.253 C 
ENDBRANCH  23  28
ENDBRANCH   7  18
BRANCH   8  30
ATOM     30  O   UNL     1      33.081  -6.952 -19.420  0.00  0.00    -0.380 OA
ATOM     31  H   UNL     1      32.894  -6.013 -19.262  0.00  0.00    +0.211 HD
ENDBRANCH   8  30
TORSDOF 5
ENDMDL
MODEL 6
REMARK VINA RESULT:      -7.9     14.027     17.446
REMARK  Name = 10607
REMARK  5 active torsions:
REMARK  status: ('A' for Active; 'I' for Inactive)
REMARK    1  A    between atoms: C_7  and  C_18
REMARK    2  A    between atoms: C_8  and  O_30
REMARK    3  A    between atoms: C_21  and  O_24
REMARK    4  A    between atoms: C_22  and  O_26
REMARK    5  A    between atoms: C_23  and  O_28
REMARK                            x       y       z     vdW  Elec       q    Type
REMARK                         _______ _______ _______ _____ _____    ______ ____
ROOT
ATOM      1  O   UNL     1      31.657  -8.110 -19.418  0.00  0.00    -0.448 OA
ATOM      2  O   UNL     1      33.197  -6.451 -19.846  0.00  0.00    -0.250 OA
ATOM      3  O   UNL     1      35.650 -10.113 -26.560  0.00  0.00    -0.435 OA
ATOM      4  O   UNL     1      34.447 -12.177 -26.246  0.00  0.00    -0.435 OA
ATOM      5  C   UNL     1      31.917  -9.324 -21.373  0.00  0.00    +0.086 C 
ATOM      6  C   UNL     1      33.174  -8.509 -21.156  0.00  0.00    +0.113 C 
ATOM      7  C   UNL     1      33.745  -8.007 -22.487  0.00  0.00    +0.055 C 
ATOM      8  C   UNL     1      32.241 -10.631 -22.082  0.00  0.00    +0.137 C 
ATOM      9  C   UNL     1      33.877  -9.184 -23.464  0.00  0.00    -0.016 C 
ATOM     10  C   UNL     1      31.371  -9.410 -19.968  0.00  0.00    +0.212 C 
ATOM     11  C   UNL     1      33.150 -10.405 -23.284  0.00  0.00    +0.004 C 
ATOM     12  C   UNL     1      32.709  -7.540 -20.100  0.00  0.00    +0.317 C 
ATOM     13  C   UNL     1      34.738  -9.038 -24.569  0.00  0.00    +0.036 C 
ATOM     14  C   UNL     1      33.325 -11.457 -24.203  0.00  0.00    +0.038 C 
ATOM     15  C   UNL     1      34.863 -10.091 -25.450  0.00  0.00    +0.176 C 
ATOM     16  C   UNL     1      34.177 -11.267 -25.271  0.00  0.00    +0.176 C 
ATOM     17  C   UNL     1      35.380 -11.438 -27.061  0.00  0.00    +0.429 C 
ENDROOT
BRANCH   7  18
ATOM     18  C   UNL     1      32.909  -6.915 -23.085  0.00  0.00    -0.012 C 
ATOM     19  C   UNL     1      33.198  -6.447 -24.362  0.00  0.00    +0.036 C 
ATOM     20  C   UNL     1      31.852  -6.378 -22.357  0.00  0.00    +0.036 C 
ATOM     21  C   UNL     1      31.076  -5.361 -22.915  0.00  0.00    +0.175 C 
ATOM     22  C   UNL     1      32.422  -5.431 -24.919  0.00  0.00    +0.175 C 
ATOM     23  C   UNL     1      31.361  -4.888 -24.195  0.00  0.00    +0.206 C 
BRANCH  21  24
ATOM     24  O   UNL     1      30.043  -4.839 -22.196  0.00  0.00    -0.468 OA
ATOM     25  C   UNL     1      29.914  -5.266 -20.841  0.00  0.00    +0.253 C 
ENDBRANCH  21  24
BRANCH  22  26
ATOM     26  O   UNL     1      32.711  -4.978 -26.171  0.00  0.00    -0.468 OA
ATOM     27  C   UNL     1      34.065  -5.088 -26.605  0.00  0.00    +0.253 C 
ENDBRANCH  22  26
BRANCH  23  28
ATOM     28  O   UNL     1      30.601  -3.896 -24.741  0.00  0.00    -0.465 OA
ATOM     29  C   UNL     1      31.030  -2.555 -24.518  0.00  0.00    +0.253 C 
ENDBRANCH  23  28
ENDBRANCH   7  18
BRANCH   8  30
ATOM     30  O   UNL     1      31.021 -11.238 -22.497  0.00  0.00    -0.380 OA
ATOM     31  H   UNL     1      31.129 -11.602 -23.390  0.00  0.00    +0.211 HD
ENDBRANCH   8  30
TORSDOF 5
ENDMDL
MODEL 7
REMARK VINA RESULT:      -7.9     14.018     17.406
REMARK  Name = 10607
REMARK  5 active torsions:
REMARK  status: ('A' for Active; 'I' for Inactive)
REMARK    1  A    between atoms: C_7  and  C_18
REMARK    2  A    between atoms: C_8  and  O_30
REMARK    3  A    between atoms: C_21  and  O_24
REMARK    4  A    between atoms: C_22  and  O_26
REMARK    5  A    between atoms: C_23  and  O_28
REMARK                            x       y       z     vdW  Elec       q    Type
REMARK                         _______ _______ _______ _____ _____    ______ ____
ROOT
ATOM      1  O   UNL     1      31.646  -8.115 -19.417  0.00  0.00    -0.448 OA
ATOM      2  O   UNL     1      33.197  -6.466 -19.845  0.00  0.00    -0.250 OA
ATOM      3  O   UNL     1      35.632 -10.150 -26.553  0.00  0.00    -0.435 OA
ATOM      4  O   UNL     1      34.416 -12.206 -26.238  0.00  0.00    -0.435 OA
ATOM      5  C   UNL     1      31.900  -9.332 -21.370  0.00  0.00    +0.086 C 
ATOM      6  C   UNL     1      33.162  -8.525 -21.153  0.00  0.00    +0.113 C 
ATOM      7  C   UNL     1      33.737  -8.028 -22.484  0.00  0.00    +0.055 C 
ATOM      8  C   UNL     1      32.217 -10.642 -22.077  0.00  0.00    +0.137 C 
ATOM      9  C   UNL     1      33.863  -9.207 -23.459  0.00  0.00    -0.016 C 
ATOM     10  C   UNL     1      31.353  -9.414 -19.965  0.00  0.00    +0.212 C 
ATOM     11  C   UNL     1      33.128 -10.423 -23.279  0.00  0.00    +0.004 C 
ATOM     12  C   UNL     1      32.702  -7.552 -20.098  0.00  0.00    +0.317 C 
ATOM     13  C   UNL     1      34.726  -9.067 -24.564  0.00  0.00    +0.036 C 
ATOM     14  C   UNL     1      33.297 -11.477 -24.197  0.00  0.00    +0.038 C 
ATOM     15  C   UNL     1      34.845 -10.122 -25.443  0.00  0.00    +0.176 C 
ATOM     16  C   UNL     1      34.151 -11.293 -25.264  0.00  0.00    +0.176 C 
ATOM     17  C   UNL     1      35.355 -11.474 -27.053  0.00  0.00    +0.429 C 
ENDROOT
BRANCH   7  18
ATOM     18  C   UNL     1      32.909  -6.931 -23.083  0.00  0.00    -0.012 C 
ATOM     19  C   UNL     1      31.851  -6.392 -22.359  0.00  0.00    +0.036 C 
ATOM     20  C   UNL     1      33.205  -6.461 -24.359  0.00  0.00    +0.036 C 
ATOM     21  C   UNL     1      32.433  -5.441 -24.915  0.00  0.00    +0.175 C 
ATOM     22  C   UNL     1      31.080  -5.373 -22.915  0.00  0.00    +0.175 C 
ATOM     23  C   UNL     1      31.371  -4.897 -24.194  0.00  0.00    +0.206 C 
BRANCH  21  24
ATOM     24  O   UNL     1      32.728  -4.986 -26.166  0.00  0.00    -0.468 OA
ATOM     25  C   UNL     1      34.087  -5.087 -26.589  0.00  0.00    +0.253 C 
ENDBRANCH  21  24
BRANCH  22  26
ATOM     26  O   UNL     1      30.045  -4.849 -22.201  0.00  0.00    -0.468 OA
ATOM     27  C   UNL     1      29.919  -5.266 -20.843  0.00  0.00    +0.253 C 
ENDBRANCH  22  26
BRANCH  23  28
ATOM     28  O   UNL     1      30.618  -3.898 -24.737  0.00  0.00    -0.465 OA
ATOM     29  C   UNL     1      31.053  -2.560 -24.506  0.00  0.00    +0.253 C 
ENDBRANCH  23  28
ENDBRANCH   7  18
BRANCH   8  30
ATOM     30  O   UNL     1      30.993 -11.242 -22.492  0.00  0.00    -0.380 OA
ATOM     31  H   UNL     1      30.822 -12.032 -21.955  0.00  0.00    +0.211 HD
ENDBRANCH   8  30
TORSDOF 5
ENDMDL
MODEL 8
REMARK VINA RESULT:      -7.9     12.980     16.221
REMARK  Name = 10607
REMARK  5 active torsions:
REMARK  status: ('A' for Active; 'I' for Inactive)
REMARK    1  A    between atoms: C_7  and  C_18
REMARK    2  A    between atoms: C_8  and  O_30
REMARK    3  A    between atoms: C_21  and  O_24
REMARK    4  A    between atoms: C_22  and  O_26
REMARK    5  A    between atoms: C_23  and  O_28
REMARK                            x       y       z     vdW  Elec       q    Type
REMARK                         _______ _______ _______ _____ _____    ______ ____
ROOT
ATOM      1  O   UNL     1      32.118 -11.259 -19.797  0.00  0.00    -0.448 OA
ATOM      2  O   UNL     1      31.224 -12.012 -21.783  0.00  0.00    -0.250 OA
ATOM      3  O   UNL     1      30.517  -4.523 -24.595  0.00  0.00    -0.435 OA
ATOM      4  O   UNL     1      31.053  -3.370 -22.549  0.00  0.00    -0.435 OA
ATOM      5  C   UNL     1      32.293  -9.014 -20.337  0.00  0.00    +0.086 C 
ATOM      6  C   UNL     1      31.250  -9.634 -21.242  0.00  0.00    +0.113 C 
ATOM      7  C   UNL     1      31.301  -9.022 -22.646  0.00  0.00    +0.055 C 
ATOM      8  C   UNL     1      31.958  -7.558 -20.051  0.00  0.00    +0.137 C 
ATOM      9  C   UNL     1      31.262  -7.490 -22.538  0.00  0.00    -0.016 C 
ATOM     10  C   UNL     1      32.285  -9.973 -19.171  0.00  0.00    +0.212 C 
ATOM     11  C   UNL     1      31.596  -6.806 -21.326  0.00  0.00    +0.004 C 
ATOM     12  C   UNL     1      31.520 -11.101 -21.028  0.00  0.00    +0.317 C 
ATOM     13  C   UNL     1      30.892  -6.753 -23.680  0.00  0.00    +0.036 C 
ATOM     14  C   UNL     1      31.525  -5.401 -21.281  0.00  0.00    +0.038 C 
ATOM     15  C   UNL     1      30.854  -5.378 -23.591  0.00  0.00    +0.176 C 
ATOM     16  C   UNL     1      31.161  -4.721 -22.425  0.00  0.00    +0.176 C 
ATOM     17  C   UNL     1      30.647  -3.251 -23.927  0.00  0.00    +0.429 C 
ENDROOT
BRANCH   7  18
ATOM     18  C   UNL     1      32.509  -9.467 -23.414  0.00  0.00    -0.012 C 
ATOM     19  C   UNL     1      32.731 -10.825 -23.621  0.00  0.00    +0.036 C 
ATOM     20  C   UNL     1      33.398  -8.521 -23.913  0.00  0.00    +0.036 C 
ATOM     21  C   UNL     1      34.522  -8.938 -24.626  0.00  0.00    +0.175 C 
ATOM     22  C   UNL     1      33.854 -11.241 -24.334  0.00  0.00    +0.175 C 
ATOM     23  C   UNL     1      34.750 -10.297 -24.837  0.00  0.00    +0.206 C 
BRANCH  21  24
ATOM     24  O   UNL     1      35.389  -8.005 -25.112  0.00  0.00    -0.468 OA
ATOM     25  C   UNL     1      34.945  -6.650 -25.121  0.00  0.00    +0.253 C 
ENDBRANCH  21  24
BRANCH  22  26
ATOM     26  O   UNL     1      34.066 -12.572 -24.534  0.00  0.00    -0.468 OA
ATOM     27  C   UNL     1      33.901 -13.431 -23.408  0.00  0.00    +0.253 C 
ENDBRANCH  22  26
BRANCH  23  28
ATOM     28  O   UNL     1      35.848 -10.704 -25.536  0.00  0.00    -0.465 OA
ATOM     29  C   UNL     1      35.740 -10.720 -26.958  0.00  0.00    +0.253 C 
ENDBRANCH  23  28
ENDBRANCH   7  18
BRANCH   8  30
ATOM     30  O   UNL     1      33.082  -6.947 -19.423  0.00  0.00    -0.380 OA
ATOM     31  H   UNL     1      33.899  -7.326 -19.785  0.00  0.00    +0.211 HD
ENDBRANCH   8  30
TORSDOF 5
ENDMDL
