MODEL 1
REMARK VINA RESULT:      -4.1      0.000      0.000
REMARK  Name = 3035817
REMARK  3 active torsions:
REMARK  status: ('A' for Active; 'I' for Inactive)
REMARK    1  A    between atoms: C_7  and  O_32
REMARK    2  A    between atoms: C_7  and  C_35
REMARK    3  A    between atoms: C_35  and  O_36
REMARK                            x       y       z     vdW  Elec       q    Type
REMARK                         _______ _______ _______ _____ _____    ______ ____
ROOT
ATOM      1  O   UNL     1      34.008  -9.142 -23.674  0.00  0.00    -0.318 OA
ATOM      2  O   UNL     1      33.166 -16.353 -22.988  0.00  0.00    -0.270 OA
ATOM      3  N   UNL     1      32.625  -9.826 -21.907  0.00  0.00    -0.305 N 
ATOM      4  N   UNL     1      33.241 -11.101 -24.530  0.00  0.00    -0.304 N 
ATOM      5  N   UNL     1      32.529 -15.782 -20.808  0.00  0.00    -0.297 N 
ATOM      6  C   UNL     1      33.058  -8.669 -22.703  0.00  0.00    +0.198 C 
ATOM      7  C   UNL     1      31.933  -8.084 -23.577  0.00  0.00    +0.223 C 
ATOM      8  C   UNL     1      33.251  -9.684 -24.753  0.00  0.00    +0.209 C 
ATOM      9  C   UNL     1      31.855  -9.067 -24.730  0.00  0.00    +0.096 C 
ATOM     10  C   UNL     1      32.711 -11.186 -22.132  0.00  0.00    +0.077 A 
ATOM     11  C   UNL     1      33.032 -11.799 -23.378  0.00  0.00    +0.078 A 
ATOM     12  C   UNL     1      32.429 -12.125 -21.072  0.00  0.00    +0.016 A 
ATOM     13  C   UNL     1      33.092 -13.245 -23.379  0.00  0.00    +0.023 A 
ATOM     14  C   UNL     1      33.853  -7.641 -21.881  0.00  0.00    +0.057 C 
ATOM     15  C   UNL     1      32.092  -9.809 -20.605  0.00  0.00    +0.062 A 
ATOM     16  C   UNL     1      33.481 -12.110 -25.451  0.00  0.00    +0.062 A 
ATOM     17  C   UNL     1      32.028 -11.137 -20.078  0.00  0.00    +0.017 A 
ATOM     18  C   UNL     1      32.510 -13.515 -21.081  0.00  0.00    +0.003 A 
ATOM     19  C   UNL     1      32.872 -14.087 -22.294  0.00  0.00    +0.053 A 
ATOM     20  C   UNL     1      33.414 -13.386 -24.808  0.00  0.00    +0.017 A 
ATOM     21  C   UNL     1      32.262 -14.573 -20.057  0.00  0.00    +0.117 C 
ATOM     22  C   UNL     1      31.654  -8.727 -19.811  0.00  0.00    +0.017 C 
ATOM     23  C   UNL     1      32.889 -15.538 -22.130  0.00  0.00    +0.246 C 
ATOM     24  C   UNL     1      33.755 -12.003 -26.829  0.00  0.00    +0.017 C 
ATOM     25  C   UNL     1      31.568 -11.314 -18.748  0.00  0.00    +0.001 C 
ATOM     26  C   UNL     1      33.641 -14.530 -25.616  0.00  0.00    +0.001 C 
ATOM     27  C   UNL     1      31.202  -8.948 -18.508  0.00  0.00    +0.001 C 
ATOM     28  C   UNL     1      31.167 -10.224 -17.977  0.00  0.00    +0.000 C 
ATOM     29  C   UNL     1      33.973 -13.159 -27.578  0.00  0.00    +0.001 C 
ATOM     30  C   UNL     1      33.918 -14.408 -26.980  0.00  0.00    +0.000 C 
ATOM     31  H   UNL     1      32.462 -16.685 -20.423  0.00  0.00    +0.150 HD
ENDROOT
BRANCH   7  32
ATOM     32  O   UNL     1      30.706  -7.958 -22.890  0.00  0.00    -0.373 OA
ATOM     33  H   UNL     1      30.170  -7.268 -23.311  0.00  0.00    +0.211 HD
ENDBRANCH   7  32
BRANCH   7  35
ATOM     34  O   UNL     1      33.195  -6.457 -24.838  0.00  0.00    -0.247 OA
ATOM     35  C   UNL     1      32.257  -6.706 -24.093  0.00  0.00    +0.346 C 
BRANCH  35  36
ATOM     36  O   UNL     1      31.353  -5.811 -23.602  0.00  0.00    -0.443 OA
ATOM     37  C   UNL     1      31.251  -4.580 -24.325  0.00  0.00    +0.256 C 
ENDBRANCH  35  36
ENDBRANCH   7  35
TORSDOF 3
ENDMDL
