MODEL 1
REMARK VINA RESULT:     -10.2      0.000      0.000
REMARK  Name = 444732
REMARK  7 active torsions:
REMARK  status: ('A' for Active; 'I' for Inactive)
REMARK    1  A    between atoms: C_1  and  C_3
REMARK    2  A    between atoms: C_1  and  C_15
REMARK    3  A    between atoms: C_4  and  C_6
REMARK    4  A    between atoms: C_7  and  C_10
REMARK    5  A    between atoms: N_9  and  O_12
REMARK    6  A    between atoms: C_15  and  C_16
REMARK    7  A    between atoms: C_17  and  N_22
REMARK                            x       y       z     vdW  Elec       q    Type
REMARK                         _______ _______ _______ _____ _____    ______ ____
ROOT
ATOM      1  C   UNL     1      33.570 -22.802 -17.145  0.00  0.00    +0.084 C 
ATOM      2  C   UNL     1      34.260 -23.916 -16.356  0.00  0.00    +0.013 C 
ENDROOT
BRANCH   1   3
ATOM      3  C   UNL     1      32.073 -22.909 -16.991  0.00  0.00    -0.023 C 
ATOM      4  C   UNL     1      31.354 -22.963 -15.849  0.00  0.00    -0.026 C 
ATOM      5  C   UNL     1      31.963 -22.973 -14.472  0.00  0.00    +0.031 C 
BRANCH   4   6
ATOM      6  C   UNL     1      29.892 -23.032 -15.945  0.00  0.00    +0.000 C 
ATOM      7  C   UNL     1      29.124 -22.390 -16.839  0.00  0.00    +0.059 C 
BRANCH   7  10
ATOM      8  O   UNL     1      27.018 -23.059 -17.744  0.00  0.00    -0.268 OA
ATOM      9  N   UNL     1      27.099 -22.095 -15.645  0.00  0.00    -0.193 N 
ATOM     10  C   UNL     1      27.644 -22.562 -16.814  0.00  0.00    +0.268 C 
ATOM     11  H   UNL     1      27.652 -21.704 -14.930  0.00  0.00    +0.183 HD
BRANCH   9  12
ATOM     12  O   UNL     1      25.707 -22.209 -15.533  0.00  0.00    -0.295 OA
ATOM     13  H   UNL     1      25.487 -22.717 -14.736  0.00  0.00    +0.241 HD
ENDBRANCH   9  12
ENDBRANCH   7  10
ENDBRANCH   4   6
ENDBRANCH   1   3
BRANCH   1  15
ATOM     14  O   UNL     1      33.898 -24.035 -19.194  0.00  0.00    -0.291 OA
ATOM     15  C   UNL     1      33.890 -22.939 -18.635  0.00  0.00    +0.177 C 
BRANCH  15  16
ATOM     16  C   UNL     1      34.182 -21.722 -19.447  0.00  0.00    +0.035 C 
ATOM     17  C   UNL     1      34.719 -19.475 -20.944  0.00  0.00    +0.048 C 
ATOM     18  C   UNL     1      35.493 -21.410 -19.722  0.00  0.00    +0.004 C 
ATOM     19  C   UNL     1      33.127 -20.956 -19.889  0.00  0.00    +0.004 C 
ATOM     20  C   UNL     1      35.766 -20.271 -20.480  0.00  0.00    +0.015 C 
ATOM     21  C   UNL     1      33.399 -19.817 -20.648  0.00  0.00    +0.015 C 
BRANCH  17  22
ATOM     22  N   UNL     1      34.994 -18.324 -21.709  0.00  0.00    -0.304 N 
ATOM     23  C   UNL     1      35.020 -17.016 -21.086  0.00  0.00    +0.112 C 
ATOM     24  C   UNL     1      35.270 -18.435 -23.129  0.00  0.00    +0.112 C 
ENDBRANCH  17  22
ENDBRANCH  15  16
ENDBRANCH   1  15
TORSDOF 7
ENDMDL
MODEL 2
REMARK VINA RESULT:      -9.5      5.278      6.883
REMARK  Name = 444732
REMARK  7 active torsions:
REMARK  status: ('A' for Active; 'I' for Inactive)
REMARK    1  A    between atoms: C_1  and  C_3
REMARK    2  A    between atoms: C_1  and  C_15
REMARK    3  A    between atoms: C_4  and  C_6
REMARK    4  A    between atoms: C_7  and  C_10
REMARK    5  A    between atoms: N_9  and  O_12
REMARK    6  A    between atoms: C_15  and  C_16
REMARK    7  A    between atoms: C_17  and  N_22
REMARK                            x       y       z     vdW  Elec       q    Type
REMARK                         _______ _______ _______ _____ _____    ______ ____
ROOT
ATOM      1  C   UNL     1      35.190 -19.973 -21.203  0.00  0.00    +0.084 C 
ATOM      2  C   UNL     1      33.803 -19.473 -20.797  0.00  0.00    +0.013 C 
ENDROOT
BRANCH   1   3
ATOM      3  C   UNL     1      35.929 -20.491 -19.993  0.00  0.00    -0.023 C 
ATOM      4  C   UNL     1      35.604 -21.537 -19.203  0.00  0.00    -0.026 C 
ATOM      5  C   UNL     1      34.363 -22.372 -19.380  0.00  0.00    +0.031 C 
BRANCH   4   6
ATOM      6  C   UNL     1      36.498 -21.879 -18.092  0.00  0.00    +0.000 C 
ATOM      7  C   UNL     1      36.130 -22.365 -16.897  0.00  0.00    +0.059 C 
BRANCH   7  10
ATOM      8  O   UNL     1      38.356 -22.748 -16.122  0.00  0.00    -0.268 OA
ATOM      9  N   UNL     1      36.598 -22.852 -14.627  0.00  0.00    -0.193 N 
ATOM     10  C   UNL     1      37.160 -22.670 -15.864  0.00  0.00    +0.268 C 
ATOM     11  H   UNL     1      35.627 -22.778 -14.477  0.00  0.00    +0.183 HD
BRANCH   9  12
ATOM     12  O   UNL     1      37.491 -23.151 -13.588  0.00  0.00    -0.295 OA
ATOM     13  H   UNL     1      37.287 -22.600 -12.817  0.00  0.00    +0.241 HD
ENDBRANCH   9  12
ENDBRANCH   7  10
ENDBRANCH   4   6
ENDBRANCH   1   3
BRANCH   1  15
ATOM     14  O   UNL     1      37.225 -18.736 -21.595  0.00  0.00    -0.291 OA
ATOM     15  C   UNL     1      36.013 -18.822 -21.785  0.00  0.00    +0.177 C 
BRANCH  15  16
ATOM     16  C   UNL     1      35.347 -17.781 -22.620  0.00  0.00    +0.035 C 
ATOM     17  C   UNL     1      34.116 -15.862 -24.163  0.00  0.00    +0.048 C 
ATOM     18  C   UNL     1      35.033 -16.572 -22.044  0.00  0.00    +0.004 C 
ATOM     19  C   UNL     1      35.071 -18.070 -23.937  0.00  0.00    +0.004 C 
ATOM     20  C   UNL     1      34.408 -15.599 -22.825  0.00  0.00    +0.015 C 
ATOM     21  C   UNL     1      34.447 -17.098 -24.720  0.00  0.00    +0.015 C 
BRANCH  17  22
ATOM     22  N   UNL     1      33.485 -14.879 -24.953  0.00  0.00    -0.304 N 
ATOM     23  C   UNL     1      33.026 -15.196 -26.290  0.00  0.00    +0.112 C 
ATOM     24  C   UNL     1      33.275 -13.542 -24.432  0.00  0.00    +0.112 C 
ENDBRANCH  17  22
ENDBRANCH  15  16
ENDBRANCH   1  15
TORSDOF 7
ENDMDL
MODEL 3
REMARK VINA RESULT:      -9.4      5.016      6.849
REMARK  Name = 444732
REMARK  7 active torsions:
REMARK  status: ('A' for Active; 'I' for Inactive)
REMARK    1  A    between atoms: C_1  and  C_3
REMARK    2  A    between atoms: C_1  and  C_15
REMARK    3  A    between atoms: C_4  and  C_6
REMARK    4  A    between atoms: C_7  and  C_10
REMARK    5  A    between atoms: N_9  and  O_12
REMARK    6  A    between atoms: C_15  and  C_16
REMARK    7  A    between atoms: C_17  and  N_22
REMARK                            x       y       z     vdW  Elec       q    Type
REMARK                         _______ _______ _______ _____ _____    ______ ____
ROOT
ATOM      1  C   UNL     1      34.945 -19.948 -21.273  0.00  0.00    +0.084 C 
ATOM      2  C   UNL     1      33.556 -19.446 -20.878  0.00  0.00    +0.013 C 
ENDROOT
BRANCH   1   3
ATOM      3  C   UNL     1      35.638 -20.554 -20.077  0.00  0.00    -0.023 C 
ATOM      4  C   UNL     1      35.199 -21.547 -19.275  0.00  0.00    -0.026 C 
ATOM      5  C   UNL     1      33.859 -22.218 -19.422  0.00  0.00    +0.031 C 
BRANCH   4   6
ATOM      6  C   UNL     1      36.067 -21.999 -18.182  0.00  0.00    +0.000 C 
ATOM      7  C   UNL     1      35.672 -22.353 -16.950  0.00  0.00    +0.059 C 
BRANCH   7  10
ATOM      8  O   UNL     1      36.419 -22.884 -14.745  0.00  0.00    -0.268 OA
ATOM      9  N   UNL     1      37.887 -23.076 -16.520  0.00  0.00    -0.193 N 
ATOM     10  C   UNL     1      36.675 -22.796 -15.941  0.00  0.00    +0.268 C 
ATOM     11  H   UNL     1      38.037 -22.987 -17.489  0.00  0.00    +0.183 HD
BRANCH   9  12
ATOM     12  O   UNL     1      38.899 -23.496 -15.645  0.00  0.00    -0.295 OA
ATOM     13  H   UNL     1      39.121 -22.774 -15.037  0.00  0.00    +0.241 HD
ENDBRANCH   9  12
ENDBRANCH   7  10
ENDBRANCH   4   6
ENDBRANCH   1   3
BRANCH   1  15
ATOM     14  O   UNL     1      37.002 -18.701 -21.481  0.00  0.00    -0.291 OA
ATOM     15  C   UNL     1      35.806 -18.780 -21.759  0.00  0.00    +0.177 C 
BRANCH  15  16
ATOM     16  C   UNL     1      35.199 -17.712 -22.606  0.00  0.00    +0.035 C 
ATOM     17  C   UNL     1      34.078 -15.741 -24.167  0.00  0.00    +0.048 C 
ATOM     18  C   UNL     1      34.906 -17.997 -23.920  0.00  0.00    +0.004 C 
ATOM     19  C   UNL     1      34.954 -16.481 -22.040  0.00  0.00    +0.004 C 
ATOM     20  C   UNL     1      34.339 -16.999 -24.712  0.00  0.00    +0.015 C 
ATOM     21  C   UNL     1      34.386 -15.482 -22.831  0.00  0.00    +0.015 C 
BRANCH  17  22
ATOM     22  N   UNL     1      33.506 -14.731 -24.967  0.00  0.00    -0.304 N 
ATOM     23  C   UNL     1      33.432 -13.366 -24.486  0.00  0.00    +0.112 C 
ATOM     24  C   UNL     1      32.995 -15.042 -26.288  0.00  0.00    +0.112 C 
ENDBRANCH  17  22
ENDBRANCH  15  16
ENDBRANCH   1  15
TORSDOF 7
ENDMDL
MODEL 4
REMARK VINA RESULT:      -9.3      5.180      9.259
REMARK  Name = 444732
REMARK  7 active torsions:
REMARK  status: ('A' for Active; 'I' for Inactive)
REMARK    1  A    between atoms: C_1  and  C_3
REMARK    2  A    between atoms: C_1  and  C_15
REMARK    3  A    between atoms: C_4  and  C_6
REMARK    4  A    between atoms: C_7  and  C_10
REMARK    5  A    between atoms: N_9  and  O_12
REMARK    6  A    between atoms: C_15  and  C_16
REMARK    7  A    between atoms: C_17  and  N_22
REMARK                            x       y       z     vdW  Elec       q    Type
REMARK                         _______ _______ _______ _____ _____    ______ ____
ROOT
ATOM      1  C   UNL     1      34.548 -18.653 -23.195  0.00  0.00    +0.084 C 
ATOM      2  C   UNL     1      34.865 -19.494 -24.433  0.00  0.00    +0.013 C 
ENDROOT
BRANCH   1   3
ATOM      3  C   UNL     1      34.560 -17.186 -23.548  0.00  0.00    -0.023 C 
ATOM      4  C   UNL     1      34.198 -16.140 -22.775  0.00  0.00    -0.026 C 
ATOM      5  C   UNL     1      33.651 -16.275 -21.379  0.00  0.00    +0.031 C 
BRANCH   4   6
ATOM      6  C   UNL     1      34.326 -14.786 -23.324  0.00  0.00    +0.000 C 
ATOM      7  C   UNL     1      33.530 -14.224 -24.246  0.00  0.00    +0.059 C 
BRANCH   7  10
ATOM      8  O   UNL     1      33.585 -12.465 -25.861  0.00  0.00    -0.268 OA
ATOM      9  N   UNL     1      34.266 -12.042 -23.694  0.00  0.00    -0.193 N 
ATOM     10  C   UNL     1      33.785 -12.830 -24.707  0.00  0.00    +0.268 C 
ATOM     11  H   UNL     1      34.409 -12.389 -22.783  0.00  0.00    +0.183 HD
BRANCH   9  12
ATOM     12  O   UNL     1      34.543 -10.710 -24.035  0.00  0.00    -0.295 OA
ATOM     13  H   UNL     1      35.378 -10.669 -24.528  0.00  0.00    +0.241 HD
ENDBRANCH   9  12
ENDBRANCH   7  10
ENDBRANCH   4   6
ENDBRANCH   1   3
BRANCH   1  15
ATOM     14  O   UNL     1      36.684 -18.267 -22.141  0.00  0.00    -0.291 OA
ATOM     15  C   UNL     1      35.616 -18.875 -22.122  0.00  0.00    +0.177 C 
BRANCH  15  16
ATOM     16  C   UNL     1      35.361 -19.837 -21.010  0.00  0.00    +0.035 C 
ATOM     17  C   UNL     1      34.893 -21.610 -18.958  0.00  0.00    +0.048 C 
ATOM     18  C   UNL     1      34.061 -20.176 -20.714  0.00  0.00    +0.004 C 
ATOM     19  C   UNL     1      36.438 -20.348 -20.321  0.00  0.00    +0.004 C 
ATOM     20  C   UNL     1      33.823 -21.074 -19.674  0.00  0.00    +0.015 C 
ATOM     21  C   UNL     1      36.201 -21.247 -19.281  0.00  0.00    +0.015 C 
BRANCH  17  22
ATOM     22  N   UNL     1      34.653 -22.518 -17.906  0.00  0.00    -0.304 N 
ATOM     23  C   UNL     1      35.605 -22.654 -16.822  0.00  0.00    +0.112 C 
ATOM     24  C   UNL     1      33.444 -23.317 -17.887  0.00  0.00    +0.112 C 
ENDBRANCH  17  22
ENDBRANCH  15  16
ENDBRANCH   1  15
TORSDOF 7
ENDMDL
MODEL 5
REMARK VINA RESULT:      -9.1      4.592      5.908
REMARK  Name = 444732
REMARK  7 active torsions:
REMARK  status: ('A' for Active; 'I' for Inactive)
REMARK    1  A    between atoms: C_1  and  C_3
REMARK    2  A    between atoms: C_1  and  C_15
REMARK    3  A    between atoms: C_4  and  C_6
REMARK    4  A    between atoms: C_7  and  C_10
REMARK    5  A    between atoms: N_9  and  O_12
REMARK    6  A    between atoms: C_15  and  C_16
REMARK    7  A    between atoms: C_17  and  N_22
REMARK                            x       y       z     vdW  Elec       q    Type
REMARK                         _______ _______ _______ _____ _____    ______ ____
ROOT
ATOM      1  C   UNL     1      34.874 -20.892 -20.298  0.00  0.00    +0.084 C 
ATOM      2  C   UNL     1      33.428 -20.394 -20.336  0.00  0.00    +0.013 C 
ENDROOT
BRANCH   1   3
ATOM      3  C   UNL     1      35.213 -21.395 -18.916  0.00  0.00    -0.023 C 
ATOM      4  C   UNL     1      34.641 -22.411 -18.235  0.00  0.00    -0.026 C 
ATOM      5  C   UNL     1      33.482 -23.222 -18.751  0.00  0.00    +0.031 C 
BRANCH   4   6
ATOM      6  C   UNL     1      35.163 -22.745 -16.906  0.00  0.00    +0.000 C 
ATOM      7  C   UNL     1      36.387 -22.455 -16.438  0.00  0.00    +0.059 C 
BRANCH   7  10
ATOM      8  O   UNL     1      37.925 -23.154 -14.751  0.00  0.00    -0.268 OA
ATOM      9  N   UNL     1      35.698 -22.859 -14.208  0.00  0.00    -0.193 N 
ATOM     10  C   UNL     1      36.775 -22.858 -15.057  0.00  0.00    +0.268 C 
ATOM     11  H   UNL     1      34.794 -22.612 -14.510  0.00  0.00    +0.183 HD
BRANCH   9  12
ATOM     12  O   UNL     1      35.966 -23.232 -12.883  0.00  0.00    -0.295 OA
ATOM     13  H   UNL     1      35.822 -24.186 -12.781  0.00  0.00    +0.241 HD
ENDBRANCH   9  12
ENDBRANCH   7  10
ENDBRANCH   4   6
ENDBRANCH   1   3
BRANCH   1  15
ATOM     14  O   UNL     1      36.969 -19.704 -20.149  0.00  0.00    -0.291 OA
ATOM     15  C   UNL     1      35.832 -19.743 -20.616  0.00  0.00    +0.177 C 
BRANCH  15  16
ATOM     16  C   UNL     1      35.398 -18.645 -21.529  0.00  0.00    +0.035 C 
ATOM     17  C   UNL     1      34.598 -16.619 -23.211  0.00  0.00    +0.048 C 
ATOM     18  C   UNL     1      35.297 -18.906 -22.876  0.00  0.00    +0.004 C 
ATOM     19  C   UNL     1      35.115 -17.412 -20.988  0.00  0.00    +0.004 C 
ATOM     20  C   UNL     1      34.892 -17.880 -23.729  0.00  0.00    +0.015 C 
ATOM     21  C   UNL     1      34.709 -16.384 -21.840  0.00  0.00    +0.015 C 
BRANCH  17  22
ATOM     22  N   UNL     1      34.188 -15.581 -24.073  0.00  0.00    -0.304 N 
ATOM     23  C   UNL     1      34.142 -14.211 -23.602  0.00  0.00    +0.112 C 
ATOM     24  C   UNL     1      33.822 -15.868 -25.446  0.00  0.00    +0.112 C 
ENDBRANCH  17  22
ENDBRANCH  15  16
ENDBRANCH   1  15
TORSDOF 7
ENDMDL
MODEL 6
REMARK VINA RESULT:      -8.9      4.793      8.432
REMARK  Name = 444732
REMARK  7 active torsions:
REMARK  status: ('A' for Active; 'I' for Inactive)
REMARK    1  A    between atoms: C_1  and  C_3
REMARK    2  A    between atoms: C_1  and  C_15
REMARK    3  A    between atoms: C_4  and  C_6
REMARK    4  A    between atoms: C_7  and  C_10
REMARK    5  A    between atoms: N_9  and  O_12
REMARK    6  A    between atoms: C_15  and  C_16
REMARK    7  A    between atoms: C_17  and  N_22
REMARK                            x       y       z     vdW  Elec       q    Type
REMARK                         _______ _______ _______ _____ _____    ______ ____
ROOT
ATOM      1  C   UNL     1      34.710 -21.650 -19.144  0.00  0.00    +0.084 C 
ATOM      2  C   UNL     1      34.567 -22.993 -19.862  0.00  0.00    +0.013 C 
ENDROOT
BRANCH   1   3
ATOM      3  C   UNL     1      34.844 -20.535 -20.151  0.00  0.00    -0.023 C 
ATOM      4  C   UNL     1      33.863 -19.791 -20.707  0.00  0.00    -0.026 C 
ATOM      5  C   UNL     1      32.396 -19.994 -20.433  0.00  0.00    +0.031 C 
BRANCH   4   6
ATOM      6  C   UNL     1      34.237 -18.729 -21.646  0.00  0.00    +0.000 C 
ATOM      7  C   UNL     1      34.674 -18.899 -22.903  0.00  0.00    +0.059 C 
BRANCH   7  10
ATOM      8  O   UNL     1      35.588 -16.728 -23.297  0.00  0.00    -0.268 OA
ATOM      9  N   UNL     1      34.602 -17.880 -25.041  0.00  0.00    -0.193 N 
ATOM     10  C   UNL     1      35.014 -17.716 -23.743  0.00  0.00    +0.268 C 
ATOM     11  H   UNL     1      34.143 -18.697 -25.345  0.00  0.00    +0.183 HD
BRANCH   9  12
ATOM     12  O   UNL     1      34.874 -16.812 -25.908  0.00  0.00    -0.295 OA
ATOM     13  H   UNL     1      34.139 -16.707 -26.532  0.00  0.00    +0.241 HD
ENDBRANCH   9  12
ENDBRANCH   7  10
ENDBRANCH   4   6
ENDBRANCH   1   3
BRANCH   1  15
ATOM     14  O   UNL     1      36.978 -21.017 -18.616  0.00  0.00    -0.291 OA
ATOM     15  C   UNL     1      35.976 -21.647 -18.284  0.00  0.00    +0.177 C 
BRANCH  15  16
ATOM     16  C   UNL     1      36.004 -22.408 -17.001  0.00  0.00    +0.035 C 
ATOM     17  C   UNL     1      36.057 -23.811 -14.633  0.00  0.00    +0.048 C 
ATOM     18  C   UNL     1      34.829 -22.940 -16.522  0.00  0.00    +0.004 C 
ATOM     19  C   UNL     1      37.205 -22.548 -16.344  0.00  0.00    +0.004 C 
ATOM     20  C   UNL     1      34.855 -23.651 -15.322  0.00  0.00    +0.015 C 
ATOM     21  C   UNL     1      37.232 -23.260 -15.144  0.00  0.00    +0.015 C 
BRANCH  17  22
ATOM     22  N   UNL     1      36.084 -24.529 -13.420  0.00  0.00    -0.304 N 
ATOM     23  C   UNL     1      36.971 -25.663 -13.257  0.00  0.00    +0.112 C 
ATOM     24  C   UNL     1      35.234 -24.133 -12.314  0.00  0.00    +0.112 C 
ENDBRANCH  17  22
ENDBRANCH  15  16
ENDBRANCH   1  15
TORSDOF 7
ENDMDL
MODEL 7
REMARK VINA RESULT:      -8.8      9.834     13.401
REMARK  Name = 444732
REMARK  7 active torsions:
REMARK  status: ('A' for Active; 'I' for Inactive)
REMARK    1  A    between atoms: C_1  and  C_3
REMARK    2  A    between atoms: C_1  and  C_15
REMARK    3  A    between atoms: C_4  and  C_6
REMARK    4  A    between atoms: C_7  and  C_10
REMARK    5  A    between atoms: N_9  and  O_12
REMARK    6  A    between atoms: C_15  and  C_16
REMARK    7  A    between atoms: C_17  and  N_22
REMARK                            x       y       z     vdW  Elec       q    Type
REMARK                         _______ _______ _______ _____ _____    ______ ____
ROOT
ATOM      1  C   UNL     1      32.112 -10.436 -20.500  0.00  0.00    +0.084 C 
ATOM      2  C   UNL     1      31.485 -10.707 -19.132  0.00  0.00    +0.013 C 
ENDROOT
BRANCH   1   3
ATOM      3  C   UNL     1      31.828  -9.017 -20.929  0.00  0.00    -0.023 C 
ATOM      4  C   UNL     1      32.366  -8.336 -21.964  0.00  0.00    -0.026 C 
ATOM      5  C   UNL     1      33.425  -8.893 -22.878  0.00  0.00    +0.031 C 
BRANCH   4   6
ATOM      6  C   UNL     1      31.909  -6.965 -22.211  0.00  0.00    +0.000 C 
ATOM      7  C   UNL     1      31.162  -6.552 -23.246  0.00  0.00    +0.059 C 
BRANCH   7  10
ATOM      8  O   UNL     1      30.665  -4.544 -24.441  0.00  0.00    -0.268 OA
ATOM      9  N   UNL     1      30.561  -4.549 -22.133  0.00  0.00    -0.193 N 
ATOM     10  C   UNL     1      30.771  -5.118 -23.362  0.00  0.00    +0.268 C 
ATOM     11  H   UNL     1      30.661  -5.059 -21.296  0.00  0.00    +0.183 HD
BRANCH   9  12
ATOM     12  O   UNL     1      30.194  -3.196 -22.141  0.00  0.00    -0.295 OA
ATOM     13  H   UNL     1      30.927  -2.664 -22.489  0.00  0.00    +0.241 HD
ENDBRANCH   9  12
ENDBRANCH   7  10
ENDBRANCH   4   6
ENDBRANCH   1   3
BRANCH   1  15
ATOM     14  O   UNL     1      30.399 -11.135 -22.049  0.00  0.00    -0.291 OA
ATOM     15  C   UNL     1      31.500 -11.364 -21.551  0.00  0.00    +0.177 C 
BRANCH  15  16
ATOM     16  C   UNL     1      32.252 -12.570 -22.005  0.00  0.00    +0.035 C 
ATOM     17  C   UNL     1      33.639 -14.795 -22.841  0.00  0.00    +0.048 C 
ATOM     18  C   UNL     1      32.856 -12.545 -23.241  0.00  0.00    +0.004 C 
ATOM     19  C   UNL     1      32.312 -13.662 -21.170  0.00  0.00    +0.004 C 
ATOM     20  C   UNL     1      33.559 -13.673 -23.666  0.00  0.00    +0.015 C 
ATOM     21  C   UNL     1      33.016 -14.791 -21.593  0.00  0.00    +0.015 C 
BRANCH  17  22
ATOM     22  N   UNL     1      34.349 -15.936 -23.271  0.00  0.00    -0.304 N 
ATOM     23  C   UNL     1      34.402 -16.281 -24.677  0.00  0.00    +0.112 C 
ATOM     24  C   UNL     1      35.048 -16.770 -22.312  0.00  0.00    +0.112 C 
ENDBRANCH  17  22
ENDBRANCH  15  16
ENDBRANCH   1  15
TORSDOF 7
ENDMDL
MODEL 8
REMARK VINA RESULT:      -8.7      5.603      9.347
REMARK  Name = 444732
REMARK  7 active torsions:
REMARK  status: ('A' for Active; 'I' for Inactive)
REMARK    1  A    between atoms: C_1  and  C_3
REMARK    2  A    between atoms: C_1  and  C_15
REMARK    3  A    between atoms: C_4  and  C_6
REMARK    4  A    between atoms: C_7  and  C_10
REMARK    5  A    between atoms: N_9  and  O_12
REMARK    6  A    between atoms: C_15  and  C_16
REMARK    7  A    between atoms: C_17  and  N_22
REMARK                            x       y       z     vdW  Elec       q    Type
REMARK                         _______ _______ _______ _____ _____    ______ ____
ROOT
ATOM      1  C   UNL     1      34.069 -15.245 -23.081  0.00  0.00    +0.084 C 
ATOM      2  C   UNL     1      33.735 -15.635 -24.521  0.00  0.00    +0.013 C 
ENDROOT
BRANCH   1   3
ATOM      3  C   UNL     1      34.196 -16.481 -22.225  0.00  0.00    -0.023 C 
ATOM      4  C   UNL     1      34.742 -17.671 -22.556  0.00  0.00    -0.026 C 
ATOM      5  C   UNL     1      35.299 -17.991 -23.918  0.00  0.00    +0.031 C 
BRANCH   4   6
ATOM      6  C   UNL     1      34.785 -18.728 -21.541  0.00  0.00    +0.000 C 
ATOM      7  C   UNL     1      33.772 -19.533 -21.188  0.00  0.00    +0.059 C 
BRANCH   7  10
ATOM      8  O   UNL     1      35.055 -20.772 -19.600  0.00  0.00    -0.268 OA
ATOM      9  N   UNL     1      32.808 -21.244 -19.863  0.00  0.00    -0.193 N 
ATOM     10  C   UNL     1      33.970 -20.569 -20.135  0.00  0.00    +0.268 C 
ATOM     11  H   UNL     1      31.963 -21.039 -20.326  0.00  0.00    +0.183 HD
BRANCH   9  12
ATOM     12  O   UNL     1      32.898 -22.246 -18.887  0.00  0.00    -0.295 OA
ATOM     13  H   UNL     1      33.770 -22.207 -18.463  0.00  0.00    +0.241 HD
ENDBRANCH   9  12
ENDBRANCH   7  10
ENDBRANCH   4   6
ENDBRANCH   1   3
BRANCH   1  15
ATOM     14  O   UNL     1      32.077 -14.884 -21.767  0.00  0.00    -0.291 OA
ATOM     15  C   UNL     1      32.940 -14.395 -22.493  0.00  0.00    +0.177 C 
BRANCH  15  16
ATOM     16  C   UNL     1      32.884 -12.932 -22.784  0.00  0.00    +0.035 C 
ATOM     17  C   UNL     1      32.780 -10.234 -23.318  0.00  0.00    +0.048 C 
ATOM     18  C   UNL     1      33.722 -12.417 -23.747  0.00  0.00    +0.004 C 
ATOM     19  C   UNL     1      31.997 -12.153 -22.076  0.00  0.00    +0.004 C 
ATOM     20  C   UNL     1      33.670 -11.050 -24.017  0.00  0.00    +0.015 C 
ATOM     21  C   UNL     1      31.944 -10.785 -22.347  0.00  0.00    +0.015 C 
BRANCH  17  22
ATOM     22  N   UNL     1      32.728  -8.852 -23.592  0.00  0.00    -0.304 N 
ATOM     23  C   UNL     1      33.949  -8.088 -23.748  0.00  0.00    +0.112 C 
ATOM     24  C   UNL     1      31.451  -8.179 -23.734  0.00  0.00    +0.112 C 
ENDBRANCH  17  22
ENDBRANCH  15  16
ENDBRANCH   1  15
TORSDOF 7
ENDMDL
MODEL 9
REMARK VINA RESULT:      -8.7      2.539      3.273
REMARK  Name = 444732
REMARK  7 active torsions:
REMARK  status: ('A' for Active; 'I' for Inactive)
REMARK    1  A    between atoms: C_1  and  C_3
REMARK    2  A    between atoms: C_1  and  C_15
REMARK    3  A    between atoms: C_4  and  C_6
REMARK    4  A    between atoms: C_7  and  C_10
REMARK    5  A    between atoms: N_9  and  O_12
REMARK    6  A    between atoms: C_15  and  C_16
REMARK    7  A    between atoms: C_17  and  N_22
REMARK                            x       y       z     vdW  Elec       q    Type
REMARK                         _______ _______ _______ _____ _____    ______ ____
ROOT
ATOM      1  C   UNL     1      35.439 -21.958 -17.544  0.00  0.00    +0.084 C 
ATOM      2  C   UNL     1      36.891 -22.410 -17.377  0.00  0.00    +0.013 C 
ENDROOT
BRANCH   1   3
ATOM      3  C   UNL     1      34.525 -22.833 -16.722  0.00  0.00    -0.023 C 
ATOM      4  C   UNL     1      34.677 -23.222 -15.438  0.00  0.00    -0.026 C 
ATOM      5  C   UNL     1      35.866 -22.865 -14.586  0.00  0.00    +0.031 C 
BRANCH   4   6
ATOM      6  C   UNL     1      33.633 -24.054 -14.831  0.00  0.00    +0.000 C 
ATOM      7  C   UNL     1      32.318 -23.791 -14.812  0.00  0.00    +0.059 C 
BRANCH   7  10
ATOM      8  O   UNL     1      31.622 -25.292 -13.090  0.00  0.00    -0.268 OA
ATOM      9  N   UNL     1      30.229 -24.905 -14.892  0.00  0.00    -0.193 N 
ATOM     10  C   UNL     1      31.374 -24.739 -14.156  0.00  0.00    +0.268 C 
ATOM     11  H   UNL     1      30.082 -24.434 -15.745  0.00  0.00    +0.183 HD
BRANCH   9  12
ATOM     12  O   UNL     1      29.281 -25.787 -14.355  0.00  0.00    -0.295 OA
ATOM     13  H   UNL     1      28.400 -25.382 -14.399  0.00  0.00    +0.241 HD
ENDBRANCH   9  12
ENDBRANCH   7  10
ENDBRANCH   4   6
ENDBRANCH   1   3
BRANCH   1  15
ATOM     14  O   UNL     1      34.682 -23.181 -19.482  0.00  0.00    -0.291 OA
ATOM     15  C   UNL     1      35.013 -22.096 -19.007  0.00  0.00    +0.177 C 
BRANCH  15  16
ATOM     16  C   UNL     1      34.975 -20.891 -19.886  0.00  0.00    +0.035 C 
ATOM     17  C   UNL     1      34.907 -18.668 -21.508  0.00  0.00    +0.048 C 
ATOM     18  C   UNL     1      33.753 -20.414 -20.302  0.00  0.00    +0.004 C 
ATOM     19  C   UNL     1      36.165 -20.303 -20.249  0.00  0.00    +0.004 C 
ATOM     20  C   UNL     1      33.718 -19.288 -21.124  0.00  0.00    +0.015 C 
ATOM     21  C   UNL     1      36.131 -19.176 -21.071  0.00  0.00    +0.015 C 
BRANCH  17  22
ATOM     22  N   UNL     1      34.872 -17.531 -22.340  0.00  0.00    -0.304 N 
ATOM     23  C   UNL     1      34.766 -16.204 -21.766  0.00  0.00    +0.112 C 
ATOM     24  C   UNL     1      34.955 -17.671 -23.781  0.00  0.00    +0.112 C 
ENDBRANCH  17  22
ENDBRANCH  15  16
ENDBRANCH   1  15
TORSDOF 7
ENDMDL
