MODEL 1
REMARK VINA RESULT:      -8.7      0.000      0.000
REMARK  Name = 447998
REMARK  5 active torsions:
REMARK  status: ('A' for Active; 'I' for Inactive)
REMARK    1  A    between atoms: C_3  and  C_18
REMARK    2  A    between atoms: C_4  and  C_20
REMARK    3  A    between atoms: C_7  and  C_24
REMARK    4  A    between atoms: C_20  and  O_21
REMARK    5  A    between atoms: C_24  and  O_25
REMARK                            x       y       z     vdW  Elec       q    Type
REMARK                         _______ _______ _______ _____ _____    ______ ____
ROOT
ATOM      1  S   UNK     1      36.220 -25.632 -15.112  0.00  0.00    -0.123 S 
ATOM      2  N   UNK     1      37.370 -22.886 -13.609  0.00  0.00    -0.241 NA
ATOM      3  C   UNK     1      35.631 -24.131 -15.987  0.00  0.00    +0.128 C 
ATOM      4  C   UNK     1      36.459 -22.871 -15.881  0.00  0.00    +0.088 C 
ATOM      5  C   UNK     1      37.874 -25.136 -14.575  0.00  0.00    +0.111 C 
ATOM      6  C   UNK     1      37.199 -22.381 -14.870  0.00  0.00    +0.102 C 
ATOM      7  C   UNK     1      37.696 -24.130 -13.477  0.00  0.00    +0.145 C 
ENDROOT
BRANCH   3  18
ATOM      8  S   UNK     1      31.078 -23.644 -13.389  0.00  0.00    -0.043 S 
ATOM      9  N   UNK     1      32.060 -23.428 -15.777  0.00  0.00    -0.254 N 
ATOM     10  N   UNK     1      33.704 -24.013 -14.378  0.00  0.00    -0.386 NA
ATOM     11  C   UNK     1      30.735 -23.132 -15.905  0.00  0.00    +0.034 C 
ATOM     12  C   UNK     1      29.885 -22.762 -17.046  0.00  0.00    +0.042 C 
ATOM     13  C   UNK     1      28.585 -22.351 -16.314  0.00  0.00    +0.011 C 
ATOM     14  C   UNK     1      28.651 -22.893 -14.865  0.00  0.00    +0.034 C 
ATOM     15  C   UNK     1      30.087 -23.202 -14.741  0.00  0.00    +0.020 C 
ATOM     16  C   UNK     1      32.437 -23.730 -14.497  0.00  0.00    +0.217 C 
ATOM     17  C   UNK     1      33.166 -23.520 -16.560  0.00  0.00    +0.154 C 
ATOM     18  C   UNK     1      34.171 -23.884 -15.676  0.00  0.00    +0.123 C 
ENDBRANCH   3  18
BRANCH   4  20
ATOM     19  O   UNK     1      35.947 -22.318 -18.136  0.00  0.00    -0.245 OA
ATOM     20  C   UNK     1      36.480 -22.022 -17.090  0.00  0.00    +0.337 C 
BRANCH  20  21
ATOM     21  O   UNK     1      37.176 -20.901 -16.827  0.00  0.00    -0.477 OA
ATOM     22  H   UNK     1      36.831 -20.066 -17.075  0.00  0.00    +0.295 HD
ENDBRANCH  20  21
ENDBRANCH   4  20
BRANCH   7  24
ATOM     23  O   UNK     1      37.759 -25.768 -11.756  0.00  0.00    -0.244 OA
ATOM     24  C   UNK     1      37.871 -24.614 -12.078  0.00  0.00    +0.353 C 
BRANCH  24  25
ATOM     25  O   UNK     1      38.162 -23.564 -11.297  0.00  0.00    -0.476 OA
ATOM     26  H   UNK     1      37.477 -23.109 -10.849  0.00  0.00    +0.295 HD
ENDBRANCH  24  25
ENDBRANCH   7  24
TORSDOF 5
ENDMDL
MODEL 2
REMARK VINA RESULT:      -8.5      2.570      3.859
REMARK  Name = 447998
REMARK  5 active torsions:
REMARK  status: ('A' for Active; 'I' for Inactive)
REMARK    1  A    between atoms: C_3  and  C_18
REMARK    2  A    between atoms: C_4  and  C_20
REMARK    3  A    between atoms: C_7  and  C_24
REMARK    4  A    between atoms: C_20  and  O_21
REMARK    5  A    between atoms: C_24  and  O_25
REMARK                            x       y       z     vdW  Elec       q    Type
REMARK                         _______ _______ _______ _____ _____    ______ ____
ROOT
ATOM      1  S   UNK     1      37.261 -23.191 -14.216  0.00  0.00    -0.123 S 
ATOM      2  N   UNK     1      37.594 -26.345 -13.181  0.00  0.00    -0.241 NA
ATOM      3  C   UNK     1      36.066 -23.553 -12.872  0.00  0.00    +0.128 C 
ATOM      4  C   UNK     1      36.411 -24.641 -11.881  0.00  0.00    +0.088 C 
ATOM      5  C   UNK     1      38.700 -24.167 -13.718  0.00  0.00    +0.111 C 
ATOM      6  C   UNK     1      37.076 -25.801 -12.037  0.00  0.00    +0.102 C 
ATOM      7  C   UNK     1      38.348 -25.609 -13.932  0.00  0.00    +0.145 C 
ENDROOT
BRANCH   3  18
ATOM      8  S   UNK     1      31.067 -25.074 -13.513  0.00  0.00    -0.043 S 
ATOM      9  N   UNK     1      32.881 -23.611 -14.645  0.00  0.00    -0.254 N 
ATOM     10  N   UNK     1      33.745 -24.511 -12.789  0.00  0.00    -0.386 NA
ATOM     11  C   UNK     1      31.783 -23.506 -15.447  0.00  0.00    +0.034 C 
ATOM     12  C   UNK     1      31.507 -22.787 -16.698  0.00  0.00    +0.042 C 
ATOM     13  C   UNK     1      29.976 -22.980 -16.810  0.00  0.00    +0.011 C 
ATOM     14  C   UNK     1      29.559 -24.118 -15.846  0.00  0.00    +0.034 C 
ATOM     15  C   UNK     1      30.751 -24.215 -14.986  0.00  0.00    +0.020 C 
ATOM     16  C   UNK     1      32.692 -24.413 -13.552  0.00  0.00    +0.217 C 
ATOM     17  C   UNK     1      34.157 -23.148 -14.595  0.00  0.00    +0.154 C 
ATOM     18  C   UNK     1      34.673 -23.717 -13.441  0.00  0.00    +0.123 C 
ENDBRANCH   3  18
BRANCH   4  20
ATOM     19  O   UNK     1      36.400 -23.538  -9.776  0.00  0.00    -0.245 OA
ATOM     20  C   UNK     1      35.958 -24.405 -10.495  0.00  0.00    +0.337 C 
BRANCH  20  21
ATOM     21  O   UNK     1      35.001 -25.298 -10.188  0.00  0.00    -0.477 OA
ATOM     22  H   UNK     1      35.207 -26.045  -9.661  0.00  0.00    +0.295 HD
ENDBRANCH  20  21
ENDBRANCH   4  20
BRANCH   7  24
ATOM     23  O   UNK     1      40.043 -26.224 -15.481  0.00  0.00    -0.244 OA
ATOM     24  C   UNK     1      38.884 -26.264 -15.160  0.00  0.00    +0.353 C 
BRANCH  24  25
ATOM     25  O   UNK     1      37.872 -26.872 -15.795  0.00  0.00    -0.476 OA
ATOM     26  H   UNK     1      37.014 -26.494 -15.778  0.00  0.00    +0.295 HD
ENDBRANCH  24  25
ENDBRANCH   7  24
TORSDOF 5
ENDMDL
MODEL 3
REMARK VINA RESULT:      -8.3      3.787      7.590
REMARK  Name = 447998
REMARK  5 active torsions:
REMARK  status: ('A' for Active; 'I' for Inactive)
REMARK    1  A    between atoms: C_3  and  C_18
REMARK    2  A    between atoms: C_4  and  C_20
REMARK    3  A    between atoms: C_7  and  C_24
REMARK    4  A    between atoms: C_20  and  O_21
REMARK    5  A    between atoms: C_24  and  O_25
REMARK                            x       y       z     vdW  Elec       q    Type
REMARK                         _______ _______ _______ _____ _____    ______ ____
ROOT
ATOM      1  S   UNK     1      29.804 -24.830 -16.687  0.00  0.00    -0.123 S 
ATOM      2  N   UNK     1      28.760 -21.950 -15.367  0.00  0.00    -0.241 NA
ATOM      3  C   UNK     1      30.978 -24.253 -15.400  0.00  0.00    +0.128 C 
ATOM      4  C   UNK     1      30.451 -23.361 -14.299  0.00  0.00    +0.088 C 
ATOM      5  C   UNK     1      28.211 -24.303 -16.012  0.00  0.00    +0.111 C 
ATOM      6  C   UNK     1      29.499 -22.411 -14.311  0.00  0.00    +0.102 C 
ATOM      7  C   UNK     1      28.159 -22.808 -16.126  0.00  0.00    +0.145 C 
ENDROOT
BRANCH   3  18
ATOM      8  S   UNK     1      35.974 -22.811 -16.222  0.00  0.00    -0.043 S 
ATOM      9  N   UNK     1      33.657 -22.774 -17.381  0.00  0.00    -0.254 N 
ATOM     10  N   UNK     1      33.438 -23.741 -15.376  0.00  0.00    -0.386 NA
ATOM     11  C   UNK     1      34.511 -22.185 -18.266  0.00  0.00    +0.034 C 
ATOM     12  C   UNK     1      34.340 -21.602 -19.604  0.00  0.00    +0.042 C 
ATOM     13  C   UNK     1      35.816 -21.390 -20.017  0.00  0.00    +0.011 C 
ATOM     14  C   UNK     1      36.695 -21.490 -18.745  0.00  0.00    +0.034 C 
ATOM     15  C   UNK     1      35.761 -22.132 -17.803  0.00  0.00    +0.020 C 
ATOM     16  C   UNK     1      34.258 -23.179 -16.221  0.00  0.00    +0.217 C 
ATOM     17  C   UNK     1      32.340 -23.095 -17.292  0.00  0.00    +0.154 C 
ATOM     18  C   UNK     1      32.226 -23.691 -16.045  0.00  0.00    +0.123 C 
ENDBRANCH   3  18
BRANCH   4  20
ATOM     19  O   UNK     1      31.935 -22.847 -12.515  0.00  0.00    -0.245 OA
ATOM     20  C   UNK     1      31.069 -23.558 -12.972  0.00  0.00    +0.337 C 
BRANCH  20  21
ATOM     21  O   UNK     1      30.515 -24.635 -12.386  0.00  0.00    -0.477 OA
ATOM     22  H   UNK     1      30.838 -25.493 -12.580  0.00  0.00    +0.295 HD
ENDBRANCH  20  21
ENDBRANCH   4  20
BRANCH   7  24
ATOM     23  O   UNK     1      26.804 -21.178 -17.201  0.00  0.00    -0.244 OA
ATOM     24  C   UNK     1      27.368 -22.240 -17.254  0.00  0.00    +0.353 C 
BRANCH  24  25
ATOM     25  O   UNK     1      27.409 -23.102 -18.280  0.00  0.00    -0.476 OA
ATOM     26  H   UNK     1      26.876 -22.955 -19.036  0.00  0.00    +0.295 HD
ENDBRANCH  24  25
ENDBRANCH   7  24
TORSDOF 5
ENDMDL
MODEL 4
REMARK VINA RESULT:      -8.3      4.177      7.218
REMARK  Name = 447998
REMARK  5 active torsions:
REMARK  status: ('A' for Active; 'I' for Inactive)
REMARK    1  A    between atoms: C_3  and  C_18
REMARK    2  A    between atoms: C_4  and  C_20
REMARK    3  A    between atoms: C_7  and  C_24
REMARK    4  A    between atoms: C_20  and  O_21
REMARK    5  A    between atoms: C_24  and  O_25
REMARK                            x       y       z     vdW  Elec       q    Type
REMARK                         _______ _______ _______ _____ _____    ______ ____
ROOT
ATOM      1  S   UNK     1      30.051 -24.565 -16.847  0.00  0.00    -0.123 S 
ATOM      2  N   UNK     1      29.419 -22.013 -14.794  0.00  0.00    -0.241 NA
ATOM      3  C   UNK     1      31.600 -23.982 -16.055  0.00  0.00    +0.128 C 
ATOM      4  C   UNK     1      31.502 -23.295 -14.712  0.00  0.00    +0.088 C 
ATOM      5  C   UNK     1      28.838 -24.332 -15.527  0.00  0.00    +0.111 C 
ATOM      6  C   UNK     1      30.558 -22.485 -14.200  0.00  0.00    +0.102 C 
ATOM      7  C   UNK     1      28.628 -22.855 -15.377  0.00  0.00    +0.145 C 
ENDROOT
BRANCH   3  18
ATOM      8  S   UNK     1      35.685 -22.099 -18.789  0.00  0.00    -0.043 S 
ATOM      9  N   UNK     1      33.114 -21.849 -18.595  0.00  0.00    -0.254 N 
ATOM     10  N   UNK     1      33.799 -23.368 -17.103  0.00  0.00    -0.386 NA
ATOM     11  C   UNK     1      33.485 -20.984 -19.581  0.00  0.00    +0.034 C 
ATOM     12  C   UNK     1      32.745 -20.046 -20.437  0.00  0.00    +0.042 C 
ATOM     13  C   UNK     1      33.849 -19.644 -21.445  0.00  0.00    +0.011 C 
ATOM     14  C   UNK     1      35.219 -20.064 -20.856  0.00  0.00    +0.034 C 
ATOM     15  C   UNK     1      34.801 -21.001 -19.799  0.00  0.00    +0.020 C 
ATOM     16  C   UNK     1      34.159 -22.542 -18.046  0.00  0.00    +0.217 C 
ATOM     17  C   UNK     1      31.981 -22.252 -17.962  0.00  0.00    +0.154 C 
ATOM     18  C   UNK     1      32.427 -23.190 -17.044  0.00  0.00    +0.123 C 
ENDBRANCH   3  18
BRANCH   4  20
ATOM     19  O   UNK     1      33.553 -24.286 -14.032  0.00  0.00    -0.245 OA
ATOM     20  C   UNK     1      32.622 -23.554 -13.783  0.00  0.00    +0.337 C 
BRANCH  20  21
ATOM     21  O   UNK     1      32.424 -22.855 -12.652  0.00  0.00    -0.477 OA
ATOM     22  H   UNK     1      33.143 -22.681 -12.076  0.00  0.00    +0.295 HD
ENDBRANCH  20  21
ENDBRANCH   4  20
BRANCH   7  24
ATOM     23  O   UNK     1      26.310 -22.345 -15.501  0.00  0.00    -0.244 OA
ATOM     24  C   UNK     1      27.403 -22.276 -15.999  0.00  0.00    +0.353 C 
BRANCH  24  25
ATOM     25  O   UNK     1      27.747 -21.696 -17.158  0.00  0.00    -0.476 OA
ATOM     26  H   UNK     1      27.084 -21.438 -17.767  0.00  0.00    +0.295 HD
ENDBRANCH  24  25
ENDBRANCH   7  24
TORSDOF 5
ENDMDL
MODEL 5
REMARK VINA RESULT:      -8.2     12.512     14.325
REMARK  Name = 447998
REMARK  5 active torsions:
REMARK  status: ('A' for Active; 'I' for Inactive)
REMARK    1  A    between atoms: C_3  and  C_18
REMARK    2  A    between atoms: C_4  and  C_20
REMARK    3  A    between atoms: C_7  and  C_24
REMARK    4  A    between atoms: C_20  and  O_21
REMARK    5  A    between atoms: C_24  and  O_25
REMARK                            x       y       z     vdW  Elec       q    Type
REMARK                         _______ _______ _______ _____ _____    ______ ____
ROOT
ATOM      1  S   UNK     1      32.244 -14.503 -21.920  0.00  0.00    -0.123 S 
ATOM      2  N   UNK     1      35.051 -15.930 -23.018  0.00  0.00    -0.241 NA
ATOM      3  C   UNK     1      32.553 -14.043 -23.670  0.00  0.00    +0.128 C 
ATOM      4  C   UNK     1      33.367 -14.988 -24.523  0.00  0.00    +0.088 C 
ATOM      5  C   UNK     1      32.852 -16.205 -21.861  0.00  0.00    +0.111 C 
ATOM      6  C   UNK     1      34.405 -15.787 -24.216  0.00  0.00    +0.102 C 
ATOM      7  C   UNK     1      34.347 -16.141 -21.954  0.00  0.00    +0.145 C 
ENDROOT
BRANCH   3  18
ATOM      8  S   UNK     1      35.318  -9.783 -25.055  0.00  0.00    -0.043 S 
ATOM      9  N   UNK     1      33.371 -10.494 -23.501  0.00  0.00    -0.254 N 
ATOM     10  N   UNK     1      34.099 -12.298 -24.606  0.00  0.00    -0.386 NA
ATOM     11  C   UNK     1      33.522  -9.155 -23.297  0.00  0.00    +0.034 C 
ATOM     12  C   UNK     1      32.841  -8.178 -22.436  0.00  0.00    +0.042 C 
ATOM     13  C   UNK     1      33.430  -6.854 -22.981  0.00  0.00    +0.011 C 
ATOM     14  C   UNK     1      34.685  -7.192 -23.824  0.00  0.00    +0.034 C 
ATOM     15  C   UNK     1      34.503  -8.638 -24.040  0.00  0.00    +0.020 C 
ATOM     16  C   UNK     1      34.246 -11.016 -24.414  0.00  0.00    +0.217 C 
ATOM     17  C   UNK     1      32.587 -11.513 -23.060  0.00  0.00    +0.154 C 
ATOM     18  C   UNK     1      33.054 -12.618 -23.755  0.00  0.00    +0.123 C 
ENDBRANCH   3  18
BRANCH   4  20
ATOM     19  O   UNK     1      33.310 -15.950 -26.697  0.00  0.00    -0.245 OA
ATOM     20  C   UNK     1      32.963 -15.069 -25.943  0.00  0.00    +0.337 C 
BRANCH  20  21
ATOM     21  O   UNK     1      32.171 -14.022 -26.233  0.00  0.00    -0.477 OA
ATOM     22  H   UNK     1      32.422 -13.414 -26.902  0.00  0.00    +0.295 HD
ENDBRANCH  20  21
ENDBRANCH   4  20
BRANCH   7  24
ATOM     23  O   UNK     1      35.670 -17.310 -20.362  0.00  0.00    -0.244 OA
ATOM     24  C   UNK     1      35.114 -16.292 -20.684  0.00  0.00    +0.353 C 
BRANCH  24  25
ATOM     25  O   UNK     1      35.062 -15.132 -20.014  0.00  0.00    -0.476 OA
ATOM     26  H   UNK     1      34.603 -15.083 -19.198  0.00  0.00    +0.295 HD
ENDBRANCH  24  25
ENDBRANCH   7  24
TORSDOF 5
ENDMDL
MODEL 6
REMARK VINA RESULT:      -8.2      3.798      5.176
REMARK  Name = 447998
REMARK  5 active torsions:
REMARK  status: ('A' for Active; 'I' for Inactive)
REMARK    1  A    between atoms: C_3  and  C_18
REMARK    2  A    between atoms: C_4  and  C_20
REMARK    3  A    between atoms: C_7  and  C_24
REMARK    4  A    between atoms: C_20  and  O_21
REMARK    5  A    between atoms: C_24  and  O_25
REMARK                            x       y       z     vdW  Elec       q    Type
REMARK                         _______ _______ _______ _____ _____    ______ ____
ROOT
ATOM      1  S   UNK     1      38.304 -23.158 -14.037  0.00  0.00    -0.123 S 
ATOM      2  N   UNK     1      37.819 -26.379 -14.759  0.00  0.00    -0.241 NA
ATOM      3  C   UNK     1      36.526 -23.482 -14.352  0.00  0.00    +0.128 C 
ATOM      4  C   UNK     1      35.999 -24.878 -14.106  0.00  0.00    +0.088 C 
ATOM      5  C   UNK     1      38.831 -24.685 -13.222  0.00  0.00    +0.111 C 
ATOM      6  C   UNK     1      36.576 -26.082 -14.269  0.00  0.00    +0.102 C 
ATOM      7  C   UNK     1      38.843 -25.760 -14.268  0.00  0.00    +0.145 C 
ENDROOT
BRANCH   3  18
ATOM      8  S   UNK     1      33.783 -22.482 -18.732  0.00  0.00    -0.043 S 
ATOM      9  N   UNK     1      36.071 -21.961 -17.633  0.00  0.00    -0.254 N 
ATOM     10  N   UNK     1      34.893 -23.263 -16.248  0.00  0.00    -0.386 NA
ATOM     11  C   UNK     1      36.093 -21.315 -18.834  0.00  0.00    +0.034 C 
ATOM     12  C   UNK     1      37.091 -20.479 -19.516  0.00  0.00    +0.042 C 
ATOM     13  C   UNK     1      36.252 -19.936 -20.698  0.00  0.00    +0.011 C 
ATOM     14  C   UNK     1      34.977 -20.806 -20.828  0.00  0.00    +0.034 C 
ATOM     15  C   UNK     1      34.965 -21.492 -19.524  0.00  0.00    +0.020 C 
ATOM     16  C   UNK     1      34.910 -22.645 -17.397  0.00  0.00    +0.217 C 
ATOM     17  C   UNK     1      36.878 -22.144 -16.556  0.00  0.00    +0.154 C 
ATOM     18  C   UNK     1      36.131 -22.952 -15.713  0.00  0.00    +0.123 C 
ENDBRANCH   3  18
BRANCH   4  20
ATOM     19  O   UNK     1      34.296 -24.644 -12.464  0.00  0.00    -0.245 OA
ATOM     20  C   UNK     1      34.617 -24.952 -13.590  0.00  0.00    +0.337 C 
BRANCH  20  21
ATOM     21  O   UNK     1      33.809 -25.411 -14.563  0.00  0.00    -0.477 OA
ATOM     22  H   UNK     1      32.908 -25.154 -14.584  0.00  0.00    +0.295 HD
ENDBRANCH  20  21
ENDBRANCH   4  20
BRANCH   7  24
ATOM     23  O   UNK     1      41.049 -26.642 -14.201  0.00  0.00    -0.244 OA
ATOM     24  C   UNK     1      40.168 -26.133 -14.842  0.00  0.00    +0.353 C 
BRANCH  24  25
ATOM     25  O   UNK     1      40.176 -25.806 -16.142  0.00  0.00    -0.476 OA
ATOM     26  H   UNK     1      39.572 -26.214 -16.731  0.00  0.00    +0.295 HD
ENDBRANCH  24  25
ENDBRANCH   7  24
TORSDOF 5
ENDMDL
MODEL 7
REMARK VINA RESULT:      -7.8     14.802     16.962
REMARK  Name = 447998
REMARK  5 active torsions:
REMARK  status: ('A' for Active; 'I' for Inactive)
REMARK    1  A    between atoms: C_3  and  C_18
REMARK    2  A    between atoms: C_4  and  C_20
REMARK    3  A    between atoms: C_7  and  C_24
REMARK    4  A    between atoms: C_20  and  O_21
REMARK    5  A    between atoms: C_24  and  O_25
REMARK                            x       y       z     vdW  Elec       q    Type
REMARK                         _______ _______ _______ _____ _____    ______ ____
ROOT
ATOM      1  S   UNK     1      30.763  -8.060 -23.824  0.00  0.00    -0.123 S 
ATOM      2  N   UNK     1      33.724  -6.679 -23.153  0.00  0.00    -0.241 NA
ATOM      3  C   UNK     1      31.482  -8.796 -22.305  0.00  0.00    +0.128 C 
ATOM      4  C   UNK     1      32.457  -7.966 -21.501  0.00  0.00    +0.088 C 
ATOM      5  C   UNK     1      31.310  -6.340 -23.710  0.00  0.00    +0.111 C 
ATOM      6  C   UNK     1      33.379  -7.065 -21.886  0.00  0.00    +0.102 C 
ATOM      7  C   UNK     1      32.787  -6.330 -23.972  0.00  0.00    +0.145 C 
ENDROOT
BRANCH   3  18
ATOM      8  S   UNK     1      33.937 -12.827 -24.636  0.00  0.00    -0.043 S 
ATOM      9  N   UNK     1      32.519 -12.283 -22.537  0.00  0.00    -0.254 N 
ATOM     10  N   UNK     1      32.770 -10.411 -23.735  0.00  0.00    -0.386 NA
ATOM     11  C   UNK     1      32.802 -13.614 -22.444  0.00  0.00    +0.034 C 
ATOM     12  C   UNK     1      32.464 -14.655 -21.464  0.00  0.00    +0.042 C 
ATOM     13  C   UNK     1      33.370 -15.813 -21.950  0.00  0.00    +0.011 C 
ATOM     14  C   UNK     1      33.846 -15.485 -23.387  0.00  0.00    +0.034 C 
ATOM     15  C   UNK     1      33.539 -14.046 -23.469  0.00  0.00    +0.020 C 
ATOM     16  C   UNK     1      33.044 -11.683 -23.649  0.00  0.00    +0.217 C 
ATOM     17  C   UNK     1      31.848 -11.330 -21.838  0.00  0.00    +0.154 C 
ATOM     18  C   UNK     1      32.015 -10.182 -22.597  0.00  0.00    +0.123 C 
ENDBRANCH   3  18
BRANCH   4  20
ATOM     19  O   UNK     1      31.802  -9.062 -19.495  0.00  0.00    -0.245 OA
ATOM     20  C   UNK     1      32.396  -8.156 -20.037  0.00  0.00    +0.337 C 
BRANCH  20  21
ATOM     21  O   UNK     1      33.092  -7.174 -19.437  0.00  0.00    -0.477 OA
ATOM     22  H   UNK     1      33.208  -6.350 -19.868  0.00  0.00    +0.295 HD
ENDBRANCH  20  21
ENDBRANCH   4  20
BRANCH   7  24
ATOM     23  O   UNK     1      32.532  -5.313 -26.106  0.00  0.00    -0.244 OA
ATOM     24  C   UNK     1      33.231  -5.916 -25.334  0.00  0.00    +0.353 C 
BRANCH  24  25
ATOM     25  O   UNK     1      34.495  -6.326 -25.513  0.00  0.00    -0.476 OA
ATOM     26  H   UNK     1      35.131  -5.741 -25.874  0.00  0.00    +0.295 HD
ENDBRANCH  24  25
ENDBRANCH   7  24
TORSDOF 5
ENDMDL
MODEL 8
REMARK VINA RESULT:      -7.5     12.201     14.027
REMARK  Name = 447998
REMARK  5 active torsions:
REMARK  status: ('A' for Active; 'I' for Inactive)
REMARK    1  A    between atoms: C_3  and  C_18
REMARK    2  A    between atoms: C_4  and  C_20
REMARK    3  A    between atoms: C_7  and  C_24
REMARK    4  A    between atoms: C_20  and  O_21
REMARK    5  A    between atoms: C_24  and  O_25
REMARK                            x       y       z     vdW  Elec       q    Type
REMARK                         _______ _______ _______ _____ _____    ______ ____
ROOT
ATOM      1  S   UNK     1      32.085 -14.999 -21.821  0.00  0.00    -0.123 S 
ATOM      2  N   UNK     1      35.171 -15.695 -22.881  0.00  0.00    -0.241 NA
ATOM      3  C   UNK     1      32.394 -14.215 -23.451  0.00  0.00    +0.128 C 
ATOM      4  C   UNK     1      33.420 -14.846 -24.365  0.00  0.00    +0.088 C 
ATOM      5  C   UNK     1      33.007 -16.549 -21.964  0.00  0.00    +0.111 C 
ATOM      6  C   UNK     1      34.574 -15.482 -24.094  0.00  0.00    +0.102 C 
ATOM      7  C   UNK     1      34.465 -16.199 -21.922  0.00  0.00    +0.145 C 
ENDROOT
BRANCH   3  18
ATOM      8  S   UNK     1      31.912  -9.238 -21.807  0.00  0.00    -0.043 S 
ATOM      9  N   UNK     1      33.330 -10.693 -23.415  0.00  0.00    -0.254 N 
ATOM     10  N   UNK     1      31.825 -12.003 -22.406  0.00  0.00    -0.386 NA
ATOM     11  C   UNK     1      33.825  -9.428 -23.543  0.00  0.00    +0.034 C 
ATOM     12  C   UNK     1      34.898  -8.838 -24.355  0.00  0.00    +0.042 C 
ATOM     13  C   UNK     1      34.986  -7.424 -23.731  0.00  0.00    +0.011 C 
ATOM     14  C   UNK     1      33.704  -7.181 -22.897  0.00  0.00    +0.034 C 
ATOM     15  C   UNK     1      33.186  -8.554 -22.764  0.00  0.00    +0.020 C 
ATOM     16  C   UNK     1      32.296 -10.793 -22.525  0.00  0.00    +0.217 C 
ATOM     17  C   UNK     1      33.556 -11.934 -23.919  0.00  0.00    +0.154 C 
ATOM     18  C   UNK     1      32.614 -12.728 -23.283  0.00  0.00    +0.123 C 
ENDBRANCH   3  18
BRANCH   4  20
ATOM     19  O   UNK     1      32.347 -13.972 -26.298  0.00  0.00    -0.245 OA
ATOM     20  C   UNK     1      33.115 -14.769 -25.809  0.00  0.00    +0.337 C 
BRANCH  20  21
ATOM     21  O   UNK     1      33.820 -15.714 -26.457  0.00  0.00    -0.477 OA
ATOM     22  H   UNK     1      33.573 -16.616 -26.384  0.00  0.00    +0.295 HD
ENDBRANCH  20  21
ENDBRANCH   4  20
BRANCH   7  24
ATOM     23  O   UNK     1      35.762 -17.425 -20.352  0.00  0.00    -0.244 OA
ATOM     24  C   UNK     1      35.177 -16.411 -20.629  0.00  0.00    +0.353 C 
BRANCH  24  25
ATOM     25  O   UNK     1      35.041 -15.306 -19.882  0.00  0.00    -0.476 OA
ATOM     26  H   UNK     1      34.893 -14.477 -20.294  0.00  0.00    +0.295 HD
ENDBRANCH  24  25
ENDBRANCH   7  24
TORSDOF 5
ENDMDL
MODEL 9
REMARK VINA RESULT:      -7.1      4.072      6.736
REMARK  Name = 447998
REMARK  5 active torsions:
REMARK  status: ('A' for Active; 'I' for Inactive)
REMARK    1  A    between atoms: C_3  and  C_18
REMARK    2  A    between atoms: C_4  and  C_20
REMARK    3  A    between atoms: C_7  and  C_24
REMARK    4  A    between atoms: C_20  and  O_21
REMARK    5  A    between atoms: C_24  and  O_25
REMARK                            x       y       z     vdW  Elec       q    Type
REMARK                         _______ _______ _______ _____ _____    ______ ____
ROOT
ATOM      1  S   UNK     1      31.449 -24.497 -17.158  0.00  0.00    -0.123 S 
ATOM      2  N   UNK     1      31.411 -22.400 -14.564  0.00  0.00    -0.241 NA
ATOM      3  C   UNK     1      33.140 -23.870 -16.818  0.00  0.00    +0.128 C 
ATOM      4  C   UNK     1      33.467 -23.424 -15.411  0.00  0.00    +0.088 C 
ATOM      5  C   UNK     1      30.748 -24.624 -15.496  0.00  0.00    +0.111 C 
ATOM      6  C   UNK     1      32.710 -22.823 -14.475  0.00  0.00    +0.102 C 
ATOM      7  C   UNK     1      30.519 -23.224 -15.007  0.00  0.00    +0.145 C 
ENDROOT
BRANCH   3  18
ATOM      8  S   UNK     1      32.870 -20.206 -20.587  0.00  0.00    -0.043 S 
ATOM      9  N   UNK     1      34.607 -21.495 -19.161  0.00  0.00    -0.254 N 
ATOM     10  N   UNK     1      32.558 -22.180 -18.582  0.00  0.00    -0.386 NA
ATOM     11  C   UNK     1      35.340 -20.671 -19.963  0.00  0.00    +0.034 C 
ATOM     12  C   UNK     1      36.782 -20.436 -20.125  0.00  0.00    +0.042 C 
ATOM     13  C   UNK     1      36.768 -19.183 -21.035  0.00  0.00    +0.011 C 
ATOM     14  C   UNK     1      35.351 -19.041 -21.644  0.00  0.00    +0.034 C 
ATOM     15  C   UNK     1      34.572 -19.932 -20.765  0.00  0.00    +0.020 C 
ATOM     16  C   UNK     1      33.256 -21.389 -19.350  0.00  0.00    +0.217 C 
ATOM     17  C   UNK     1      34.812 -22.428 -18.195  0.00  0.00    +0.154 C 
ATOM     18  C   UNK     1      33.533 -22.839 -17.852  0.00  0.00    +0.123 C 
ENDBRANCH   3  18
BRANCH   4  20
ATOM     19  O   UNK     1      35.591 -24.488 -15.499  0.00  0.00    -0.245 OA
ATOM     20  C   UNK     1      34.849 -23.694 -14.965  0.00  0.00    +0.337 C 
BRANCH  20  21
ATOM     21  O   UNK     1      35.123 -22.926 -13.895  0.00  0.00    -0.477 OA
ATOM     22  H   UNK     1      35.708 -23.237 -13.232  0.00  0.00    +0.295 HD
ENDBRANCH  20  21
ENDBRANCH   4  20
BRANCH   7  24
ATOM     23  O   UNK     1      28.831 -21.558 -14.841  0.00  0.00    -0.244 OA
ATOM     24  C   UNK     1      29.124 -22.702 -15.074  0.00  0.00    +0.353 C 
BRANCH  24  25
ATOM     25  O   UNK     1      28.309 -23.707 -15.428  0.00  0.00    -0.476 OA
ATOM     26  H   UNK     1      28.270 -23.985 -16.321  0.00  0.00    +0.295 HD
ENDBRANCH  24  25
ENDBRANCH   7  24
TORSDOF 5
ENDMDL
