MODEL 1
REMARK VINA RESULT:      -9.0      0.000      0.000
REMARK  Name = 9835303
REMARK  2 active torsions:
REMARK  status: ('A' for Active; 'I' for Inactive)
REMARK    1  A    between atoms: C_6  and  O_19
REMARK    2  A    between atoms: C_18  and  O_21
REMARK                            x       y       z     vdW  Elec       q    Type
REMARK                         _______ _______ _______ _____ _____    ______ ____
ROOT
ATOM      1  C   UNL     1      35.955 -22.939 -14.974  0.00  0.00    +0.002 C 
ATOM      2  C   UNL     1      34.951 -24.007 -14.491  0.00  0.00    +0.025 C 
ATOM      3  C   UNL     1      35.982 -22.808 -16.497  0.00  0.00    +0.001 C 
ATOM      4  C   UNL     1      34.563 -22.395 -16.988  0.00  0.00    +0.004 C 
ATOM      5  C   UNL     1      33.545 -23.569 -14.922  0.00  0.00    +0.002 C 
ATOM      6  C   UNL     1      35.217 -23.925 -12.974  0.00  0.00    +0.110 C 
ATOM      7  C   UNL     1      33.462 -23.340 -16.441  0.00  0.00    +0.000 C 
ATOM      8  C   UNL     1      37.239 -23.293 -14.230  0.00  0.00    +0.003 C 
ATOM      9  C   UNL     1      34.525 -22.270 -18.541  0.00  0.00    +0.018 C 
ATOM     10  C   UNL     1      37.022 -21.783 -16.968  0.00  0.00    +0.004 C 
ATOM     11  C   UNL     1      36.751 -23.811 -12.865  0.00  0.00    +0.029 C 
ATOM     12  C   UNL     1      35.229 -25.436 -15.019  0.00  0.00    +0.002 C 
ATOM     13  C   UNL     1      35.657 -21.379 -19.038  0.00  0.00    -0.046 C 
ATOM     14  C   UNL     1      37.029 -21.675 -18.490  0.00  0.00    +0.022 C 
ATOM     15  C   UNL     1      33.138 -21.788 -19.022  0.00  0.00    +0.007 C 
ATOM     16  C   UNL     1      33.177 -21.281 -20.458  0.00  0.00    +0.034 C 
ATOM     17  C   UNL     1      35.469 -20.398 -19.937  0.00  0.00    -0.006 C 
ATOM     18  C   UNL     1      34.151 -20.113 -20.594  0.00  0.00    +0.132 C 
ENDROOT
BRANCH   6  19
ATOM     19  O   UNL     1      34.703 -25.018 -12.237  0.00  0.00    -0.384 OA
ATOM     20  H   UNL     1      33.737 -25.036 -12.314  0.00  0.00    +0.210 HD
ENDBRANCH   6  19
BRANCH  18  21
ATOM     21  O   UNL     1      34.346 -19.868 -21.983  0.00  0.00    -0.380 OA
ATOM     22  H   UNL     1      35.210 -19.450 -22.121  0.00  0.00    +0.211 HD
ENDBRANCH  18  21
TORSDOF 2
ENDMDL
MODEL 2
REMARK VINA RESULT:      -8.9      3.388      5.993
REMARK  Name = 9835303
REMARK  2 active torsions:
REMARK  status: ('A' for Active; 'I' for Inactive)
REMARK    1  A    between atoms: C_6  and  O_19
REMARK    2  A    between atoms: C_18  and  O_21
REMARK                            x       y       z     vdW  Elec       q    Type
REMARK                         _______ _______ _______ _____ _____    ______ ____
ROOT
ATOM      1  C   UNL     1      32.522 -23.624 -15.888  0.00  0.00    +0.002 C 
ATOM      2  C   UNL     1      31.504 -23.797 -14.742  0.00  0.00    +0.025 C 
ATOM      3  C   UNL     1      33.913 -23.239 -15.382  0.00  0.00    +0.001 C 
ATOM      4  C   UNL     1      34.432 -24.369 -14.443  0.00  0.00    +0.004 C 
ATOM      5  C   UNL     1      31.984 -24.950 -13.850  0.00  0.00    +0.002 C 
ATOM      6  C   UNL     1      30.245 -24.107 -15.577  0.00  0.00    +0.110 C 
ATOM      7  C   UNL     1      33.411 -24.709 -13.327  0.00  0.00    +0.000 C 
ATOM      8  C   UNL     1      31.802 -22.703 -16.869  0.00  0.00    +0.003 C 
ATOM      9  C   UNL     1      35.840 -24.019 -13.877  0.00  0.00    +0.018 C 
ATOM     10  C   UNL     1      34.903 -23.016 -16.534  0.00  0.00    +0.004 C 
ATOM     11  C   UNL     1      30.324 -23.121 -16.759  0.00  0.00    +0.029 C 
ATOM     12  C   UNL     1      31.289 -22.532 -13.875  0.00  0.00    +0.002 C 
ATOM     13  C   UNL     1      36.794 -23.636 -15.001  0.00  0.00    -0.046 C 
ATOM     14  C   UNL     1      36.280 -22.632 -16.000  0.00  0.00    +0.022 C 
ATOM     15  C   UNL     1      36.387 -25.171 -13.004  0.00  0.00    +0.007 C 
ATOM     16  C   UNL     1      37.885 -25.045 -12.765  0.00  0.00    +0.034 C 
ATOM     17  C   UNL     1      38.040 -24.132 -15.098  0.00  0.00    -0.006 C 
ATOM     18  C   UNL     1      38.648 -25.058 -14.088  0.00  0.00    +0.132 C 
ENDROOT
BRANCH   6  19
ATOM     19  O   UNL     1      29.032 -23.992 -14.858  0.00  0.00    -0.384 OA
ATOM     20  H   UNL     1      28.284 -24.040 -15.474  0.00  0.00    +0.210 HD
ENDBRANCH   6  19
BRANCH  18  21
ATOM     21  O   UNL     1      39.991 -24.667 -13.820  0.00  0.00    -0.380 OA
ATOM     22  H   UNL     1      40.495 -24.649 -14.649  0.00  0.00    +0.211 HD
ENDBRANCH  18  21
TORSDOF 2
ENDMDL
MODEL 3
REMARK VINA RESULT:      -8.9     10.725     14.983
REMARK  Name = 9835303
REMARK  2 active torsions:
REMARK  status: ('A' for Active; 'I' for Inactive)
REMARK    1  A    between atoms: C_6  and  O_19
REMARK    2  A    between atoms: C_18  and  O_21
REMARK                            x       y       z     vdW  Elec       q    Type
REMARK                         _______ _______ _______ _____ _____    ______ ____
ROOT
ATOM      1  C   UNL     1      32.291  -8.141 -21.739  0.00  0.00    +0.002 C 
ATOM      2  C   UNL     1      32.186  -7.681 -23.208  0.00  0.00    +0.025 C 
ATOM      3  C   UNL     1      31.743  -9.554 -21.529  0.00  0.00    +0.001 C 
ATOM      4  C   UNL     1      32.567 -10.544 -22.406  0.00  0.00    +0.004 C 
ATOM      5  C   UNL     1      33.046  -8.619 -24.064  0.00  0.00    +0.002 C 
ATOM      6  C   UNL     1      32.745  -6.250 -23.056  0.00  0.00    +0.110 C 
ATOM      7  C   UNL     1      32.632 -10.090 -23.887  0.00  0.00    +0.000 C 
ATOM      8  C   UNL     1      31.684  -6.980 -20.956  0.00  0.00    +0.003 C 
ATOM      9  C   UNL     1      32.036 -12.000 -22.249  0.00  0.00    +0.018 C 
ATOM     10  C   UNL     1      31.802  -9.981 -20.056  0.00  0.00    +0.004 C 
ATOM     11  C   UNL     1      32.104  -5.732 -21.753  0.00  0.00    +0.029 C 
ATOM     12  C   UNL     1      30.744  -7.648 -23.771  0.00  0.00    +0.002 C 
ATOM     13  C   UNL     1      31.935 -12.383 -20.778  0.00  0.00    -0.046 C 
ATOM     14  C   UNL     1      31.248 -11.391 -19.876  0.00  0.00    +0.022 C 
ATOM     15  C   UNL     1      32.900 -12.992 -23.061  0.00  0.00    +0.007 C 
ATOM     16  C   UNL     1      32.668 -14.434 -22.630  0.00  0.00    +0.034 C 
ATOM     17  C   UNL     1      32.401 -13.549 -20.297  0.00  0.00    -0.006 C 
ATOM     18  C   UNL     1      33.007 -14.620 -21.153  0.00  0.00    +0.132 C 
ENDROOT
BRANCH   6  19
ATOM     19  O   UNL     1      32.481  -5.407 -24.160  0.00  0.00    -0.384 OA
ATOM     20  H   UNL     1      32.030  -4.604 -23.855  0.00  0.00    +0.210 HD
ENDBRANCH   6  19
BRANCH  18  21
ATOM     21  O   UNL     1      32.518 -15.896 -20.750  0.00  0.00    -0.380 OA
ATOM     22  H   UNL     1      33.001 -16.592 -21.223  0.00  0.00    +0.211 HD
ENDBRANCH  18  21
TORSDOF 2
ENDMDL
MODEL 4
REMARK VINA RESULT:      -8.7      7.014     10.088
REMARK  Name = 9835303
REMARK  2 active torsions:
REMARK  status: ('A' for Active; 'I' for Inactive)
REMARK    1  A    between atoms: C_6  and  O_19
REMARK    2  A    between atoms: C_18  and  O_21
REMARK                            x       y       z     vdW  Elec       q    Type
REMARK                         _______ _______ _______ _____ _____    ______ ____
ROOT
ATOM      1  C   UNL     1      34.894 -16.389 -22.565  0.00  0.00    +0.002 C 
ATOM      2  C   UNL     1      34.642 -17.242 -21.303  0.00  0.00    +0.025 C 
ATOM      3  C   UNL     1      33.742 -15.428 -22.861  0.00  0.00    +0.001 C 
ATOM      4  C   UNL     1      33.575 -14.462 -21.650  0.00  0.00    +0.004 C 
ATOM      5  C   UNL     1      34.538 -16.294 -20.101  0.00  0.00    +0.002 C 
ATOM      6  C   UNL     1      35.918 -18.108 -21.335  0.00  0.00    +0.110 C 
ATOM      7  C   UNL     1      33.447 -15.229 -20.309  0.00  0.00    +0.000 C 
ATOM      8  C   UNL     1      35.298 -17.418 -23.616  0.00  0.00    +0.003 C 
ATOM      9  C   UNL     1      32.395 -13.472 -21.886  0.00  0.00    +0.018 C 
ATOM     10  C   UNL     1      33.978 -14.625 -24.147  0.00  0.00    +0.004 C 
ATOM     11  C   UNL     1      36.089 -18.474 -22.823  0.00  0.00    +0.029 C 
ATOM     12  C   UNL     1      33.375 -18.130 -21.368  0.00  0.00    +0.002 C 
ATOM     13  C   UNL     1      32.531 -12.783 -23.238  0.00  0.00    -0.046 C 
ATOM     14  C   UNL     1      32.813 -13.678 -24.418  0.00  0.00    +0.022 C 
ATOM     15  C   UNL     1      32.277 -12.466 -20.719  0.00  0.00    +0.007 C 
ATOM     16  C   UNL     1      31.418 -11.264 -21.087  0.00  0.00    +0.034 C 
ATOM     17  C   UNL     1      32.383 -11.456 -23.397  0.00  0.00    -0.006 C 
ATOM     18  C   UNL     1      32.007 -10.523 -22.285  0.00  0.00    +0.132 C 
ENDROOT
BRANCH   6  19
ATOM     19  O   UNL     1      35.862 -19.250 -20.501  0.00  0.00    -0.384 OA
ATOM     20  H   UNL     1      35.179 -19.856 -20.827  0.00  0.00    +0.210 HD
ENDBRANCH   6  19
BRANCH  18  21
ATOM     21  O   UNL     1      31.033  -9.591 -22.745  0.00  0.00    -0.380 OA
ATOM     22  H   UNL     1      30.505  -9.995 -23.451  0.00  0.00    +0.211 HD
ENDBRANCH  18  21
TORSDOF 2
ENDMDL
MODEL 5
REMARK VINA RESULT:      -8.6      8.361     11.993
REMARK  Name = 9835303
REMARK  2 active torsions:
REMARK  status: ('A' for Active; 'I' for Inactive)
REMARK    1  A    between atoms: C_6  and  O_19
REMARK    2  A    between atoms: C_18  and  O_21
REMARK                            x       y       z     vdW  Elec       q    Type
REMARK                         _______ _______ _______ _____ _____    ______ ____
ROOT
ATOM      1  C   UNL     1      32.397 -11.813 -20.802  0.00  0.00    +0.002 C 
ATOM      2  C   UNL     1      32.003 -10.809 -21.905  0.00  0.00    +0.025 C 
ATOM      3  C   UNL     1      32.320 -13.265 -21.278  0.00  0.00    +0.001 C 
ATOM      4  C   UNL     1      33.301 -13.451 -22.474  0.00  0.00    +0.004 C 
ATOM      5  C   UNL     1      33.006 -10.950 -23.058  0.00  0.00    +0.002 C 
ATOM      6  C   UNL     1      32.125  -9.500 -21.099  0.00  0.00    +0.110 C 
ATOM      7  C   UNL     1      33.068 -12.395 -23.584  0.00  0.00    +0.000 C 
ATOM      8  C   UNL     1      31.562 -11.374 -19.603  0.00  0.00    +0.003 C 
ATOM      9  C   UNL     1      33.246 -14.910 -23.017  0.00  0.00    +0.018 C 
ATOM     10  C   UNL     1      32.661 -14.257 -20.157  0.00  0.00    +0.004 C 
ATOM     11  C   UNL     1      31.504  -9.840 -19.730  0.00  0.00    +0.029 C 
ATOM     12  C   UNL     1      30.565 -10.984 -22.451  0.00  0.00    +0.002 C 
ATOM     13  C   UNL     1      33.422 -15.914 -21.885  0.00  0.00    -0.046 C 
ATOM     14  C   UNL     1      32.574 -15.695 -20.659  0.00  0.00    +0.022 C 
ATOM     15  C   UNL     1      34.272 -15.115 -24.154  0.00  0.00    +0.007 C 
ATOM     16  C   UNL     1      34.527 -16.590 -24.434  0.00  0.00    +0.034 C 
ATOM     17  C   UNL     1      34.262 -16.962 -21.965  0.00  0.00    -0.006 C 
ATOM     18  C   UNL     1      35.063 -17.293 -23.189  0.00  0.00    +0.132 C 
ENDROOT
BRANCH   6  19
ATOM     19  O   UNL     1      31.505  -8.385 -21.710  0.00  0.00    -0.384 OA
ATOM     20  H   UNL     1      31.993  -8.142 -22.513  0.00  0.00    +0.210 HD
ENDBRANCH   6  19
BRANCH  18  21
ATOM     21  O   UNL     1      35.021 -18.697 -23.429  0.00  0.00    -0.380 OA
ATOM     22  H   UNL     1      35.015 -19.170 -22.582  0.00  0.00    +0.211 HD
ENDBRANCH  18  21
TORSDOF 2
ENDMDL
MODEL 6
REMARK VINA RESULT:      -8.5      3.054      4.683
REMARK  Name = 9835303
REMARK  2 active torsions:
REMARK  status: ('A' for Active; 'I' for Inactive)
REMARK    1  A    between atoms: C_6  and  O_19
REMARK    2  A    between atoms: C_18  and  O_21
REMARK                            x       y       z     vdW  Elec       q    Type
REMARK                         _______ _______ _______ _____ _____    ______ ____
ROOT
ATOM      1  C   UNL     1      35.557 -23.129 -15.236  0.00  0.00    +0.002 C 
ATOM      2  C   UNL     1      36.074 -24.073 -14.130  0.00  0.00    +0.025 C 
ATOM      3  C   UNL     1      34.206 -23.574 -15.800  0.00  0.00    +0.001 C 
ATOM      4  C   UNL     1      33.162 -23.583 -14.643  0.00  0.00    +0.004 C 
ATOM      5  C   UNL     1      35.076 -24.035 -12.966  0.00  0.00    +0.002 C 
ATOM      6  C   UNL     1      37.429 -23.393 -13.842  0.00  0.00    +0.110 C 
ATOM      7  C   UNL     1      33.654 -24.403 -13.424  0.00  0.00    +0.000 C 
ATOM      8  C   UNL     1      36.750 -22.991 -16.176  0.00  0.00    +0.003 C 
ATOM      9  C   UNL     1      31.768 -24.053 -15.157  0.00  0.00    +0.018 C 
ATOM     10  C   UNL     1      33.727 -22.660 -16.936  0.00  0.00    +0.004 C 
ATOM     11  C   UNL     1      37.971 -23.027 -15.239  0.00  0.00    +0.029 C 
ATOM     12  C   UNL     1      36.282 -25.539 -14.581  0.00  0.00    +0.002 C 
ATOM     13  C   UNL     1      31.350 -23.260 -16.388  0.00  0.00    -0.046 C 
ATOM     14  C   UNL     1      32.381 -23.128 -17.479  0.00  0.00    +0.022 C 
ATOM     15  C   UNL     1      30.715 -23.991 -14.027  0.00  0.00    +0.007 C 
ATOM     16  C   UNL     1      29.293 -24.057 -14.569  0.00  0.00    +0.034 C 
ATOM     17  C   UNL     1      30.125 -22.723 -16.526  0.00  0.00    -0.006 C 
ATOM     18  C   UNL     1      29.023 -22.897 -15.525  0.00  0.00    +0.132 C 
ENDROOT
BRANCH   6  19
ATOM     19  O   UNL     1      38.332 -24.193 -13.105  0.00  0.00    -0.384 OA
ATOM     20  H   UNL     1      38.447 -25.047 -13.551  0.00  0.00    +0.210 HD
ENDBRANCH   6  19
BRANCH  18  21
ATOM     21  O   UNL     1      27.795 -23.162 -16.197  0.00  0.00    -0.380 OA
ATOM     22  H   UNL     1      27.319 -23.869 -15.734  0.00  0.00    +0.211 HD
ENDBRANCH  18  21
TORSDOF 2
ENDMDL
MODEL 7
REMARK VINA RESULT:      -8.1      6.858     10.069
REMARK  Name = 9835303
REMARK  2 active torsions:
REMARK  status: ('A' for Active; 'I' for Inactive)
REMARK    1  A    between atoms: C_6  and  O_19
REMARK    2  A    between atoms: C_18  and  O_21
REMARK                            x       y       z     vdW  Elec       q    Type
REMARK                         _______ _______ _______ _____ _____    ______ ____
ROOT
ATOM      1  C   UNL     1      33.641 -17.416 -22.040  0.00  0.00    +0.002 C 
ATOM      2  C   UNL     1      34.766 -17.753 -23.042  0.00  0.00    +0.025 C 
ATOM      3  C   UNL     1      33.669 -15.952 -21.600  0.00  0.00    +0.001 C 
ATOM      4  C   UNL     1      33.482 -15.050 -22.857  0.00  0.00    +0.004 C 
ATOM      5  C   UNL     1      34.547 -16.909 -24.304  0.00  0.00    +0.002 C 
ATOM      6  C   UNL     1      34.493 -19.261 -23.218  0.00  0.00    +0.110 C 
ATOM      7  C   UNL     1      34.490 -15.405 -23.980  0.00  0.00    +0.000 C 
ATOM      8  C   UNL     1      33.759 -18.515 -20.988  0.00  0.00    +0.003 C 
ATOM      9  C   UNL     1      33.527 -13.541 -22.470  0.00  0.00    +0.018 C 
ATOM     10  C   UNL     1      32.581 -15.642 -20.563  0.00  0.00    +0.004 C 
ATOM     11  C   UNL     1      34.186 -19.758 -21.791  0.00  0.00    +0.029 C 
ATOM     12  C   UNL     1      36.199 -17.514 -22.505  0.00  0.00    +0.002 C 
ATOM     13  C   UNL     1      32.564 -13.249 -21.326  0.00  0.00    -0.046 C 
ATOM     14  C   UNL     1      32.634 -14.177 -20.141  0.00  0.00    +0.022 C 
ATOM     15  C   UNL     1      33.267 -12.648 -23.704  0.00  0.00    +0.007 C 
ATOM     16  C   UNL     1      32.913 -11.220 -23.311  0.00  0.00    +0.034 C 
ATOM     17  C   UNL     1      31.712 -12.208 -21.341  0.00  0.00    -0.006 C 
ATOM     18  C   UNL     1      31.658 -11.193 -22.443  0.00  0.00    +0.132 C 
ENDROOT
BRANCH   6  19
ATOM     19  O   UNL     1      35.556 -19.974 -23.820  0.00  0.00    -0.384 OA
ATOM     20  H   UNL     1      35.303 -20.904 -23.929  0.00  0.00    +0.210 HD
ENDBRANCH   6  19
BRANCH  18  21
ATOM     21  O   UNL     1      31.538  -9.886 -21.890  0.00  0.00    -0.380 OA
ATOM     22  H   UNL     1      31.362  -9.951 -20.938  0.00  0.00    +0.211 HD
ENDBRANCH  18  21
TORSDOF 2
ENDMDL
MODEL 8
REMARK VINA RESULT:      -8.0     15.669     20.066
REMARK  Name = 9835303
REMARK  2 active torsions:
REMARK  status: ('A' for Active; 'I' for Inactive)
REMARK    1  A    between atoms: C_6  and  O_19
REMARK    2  A    between atoms: C_18  and  O_21
REMARK                            x       y       z     vdW  Elec       q    Type
REMARK                         _______ _______ _______ _____ _____    ______ ____
ROOT
ATOM      1  C   UNL     1      32.883  -4.900 -26.661  0.00  0.00    +0.002 C 
ATOM      2  C   UNL     1      32.197  -3.518 -26.634  0.00  0.00    +0.025 C 
ATOM      3  C   UNL     1      33.375  -5.336 -25.280  0.00  0.00    +0.001 C 
ATOM      4  C   UNL     1      32.151  -5.423 -24.320  0.00  0.00    +0.004 C 
ATOM      5  C   UNL     1      30.957  -3.620 -25.736  0.00  0.00    +0.002 C 
ATOM      6  C   UNL     1      31.894  -3.366 -28.139  0.00  0.00    +0.110 C 
ATOM      7  C   UNL     1      31.316  -4.117 -24.324  0.00  0.00    +0.000 C 
ATOM      8  C   UNL     1      33.883  -4.780 -27.807  0.00  0.00    +0.003 C 
ATOM      9  C   UNL     1      32.597  -5.842 -22.887  0.00  0.00    +0.018 C 
ATOM     10  C   UNL     1      34.104  -6.686 -25.328  0.00  0.00    +0.004 C 
ATOM     11  C   UNL     1      33.170  -3.882 -28.834  0.00  0.00    +0.029 C 
ATOM     12  C   UNL     1      33.098  -2.362 -26.136  0.00  0.00    +0.002 C 
ATOM     13  C   UNL     1      33.460  -7.096 -22.935  0.00  0.00    -0.046 C 
ATOM     14  C   UNL     1      34.583  -7.095 -23.939  0.00  0.00    +0.022 C 
ATOM     15  C   UNL     1      31.375  -6.000 -21.953  0.00  0.00    +0.007 C 
ATOM     16  C   UNL     1      31.721  -6.775 -20.688  0.00  0.00    +0.034 C 
ATOM     17  C   UNL     1      33.266  -8.145 -22.116  0.00  0.00    -0.006 C 
ATOM     18  C   UNL     1      32.231  -8.172 -21.031  0.00  0.00    +0.132 C 
ENDROOT
BRANCH   6  19
ATOM     19  O   UNL     1      31.562  -2.048 -28.531  0.00  0.00    -0.384 OA
ATOM     20  H   UNL     1      31.997  -1.414 -27.939  0.00  0.00    +0.210 HD
ENDBRANCH   6  19
BRANCH  18  21
ATOM     21  O   UNL     1      32.787  -8.737 -19.847  0.00  0.00    -0.380 OA
ATOM     22  H   UNL     1      33.577  -8.236 -19.589  0.00  0.00    +0.211 HD
ENDBRANCH  18  21
TORSDOF 2
ENDMDL
MODEL 9
REMARK VINA RESULT:      -7.9      3.269      5.226
REMARK  Name = 9835303
REMARK  2 active torsions:
REMARK  status: ('A' for Active; 'I' for Inactive)
REMARK    1  A    between atoms: C_6  and  O_19
REMARK    2  A    between atoms: C_18  and  O_21
REMARK                            x       y       z     vdW  Elec       q    Type
REMARK                         _______ _______ _______ _____ _____    ______ ____
ROOT
ATOM      1  C   UNL     1      34.967 -24.670 -14.457  0.00  0.00    +0.002 C 
ATOM      2  C   UNL     1      35.924 -23.706 -15.188  0.00  0.00    +0.025 C 
ATOM      3  C   UNL     1      33.580 -24.064 -14.238  0.00  0.00    +0.001 C 
ATOM      4  C   UNL     1      32.959 -23.727 -15.627  0.00  0.00    +0.004 C 
ATOM      5  C   UNL     1      35.343 -23.422 -16.579  0.00  0.00    +0.002 C 
ATOM      6  C   UNL     1      37.198 -24.576 -15.186  0.00  0.00    +0.110 C 
ATOM      7  C   UNL     1      33.911 -22.864 -16.494  0.00  0.00    +0.000 C 
ATOM      8  C   UNL     1      35.779 -25.133 -13.251  0.00  0.00    +0.003 C 
ATOM      9  C   UNL     1      31.550 -23.082 -15.464  0.00  0.00    +0.018 C 
ATOM     10  C   UNL     1      32.654 -25.010 -13.462  0.00  0.00    +0.004 C 
ATOM     11  C   UNL     1      37.225 -25.201 -13.776  0.00  0.00    +0.029 C 
ATOM     12  C   UNL     1      36.175 -22.366 -14.453  0.00  0.00    +0.002 C 
ATOM     13  C   UNL     1      30.668 -23.933 -14.560  0.00  0.00    -0.046 C 
ATOM     14  C   UNL     1      31.280 -24.379 -13.257  0.00  0.00    +0.022 C 
ATOM     15  C   UNL     1      30.903 -22.817 -16.842  0.00  0.00    +0.007 C 
ATOM     16  C   UNL     1      29.405 -22.565 -16.730  0.00  0.00    +0.034 C 
ATOM     17  C   UNL     1      29.401 -24.256 -14.874  0.00  0.00    -0.006 C 
ATOM     18  C   UNL     1      28.699 -23.766 -16.105  0.00  0.00    +0.132 C 
ENDROOT
BRANCH   6  19
ATOM     19  O   UNL     1      38.384 -23.865 -15.483  0.00  0.00    -0.384 OA
ATOM     20  H   UNL     1      38.841 -23.638 -14.659  0.00  0.00    +0.210 HD
ENDBRANCH   6  19
BRANCH  18  21
ATOM     21  O   UNL     1      27.370 -23.371 -15.780  0.00  0.00    -0.380 OA
ATOM     22  H   UNL     1      27.100 -22.638 -16.356  0.00  0.00    +0.211 HD
ENDBRANCH  18  21
TORSDOF 2
ENDMDL
