MODEL 1
REMARK VINA RESULT:      -9.8      0.000      0.000
REMARK  Name = 62867
REMARK  9 active torsions:
REMARK  status: ('A' for Active; 'I' for Inactive)
REMARK    1  A    between atoms: N_2  and  C_21
REMARK    2  A    between atoms: C_8  and  S_15
REMARK    3  A    between atoms: S_15  and  N_18
REMARK    4  A    between atoms: C_21  and  C_22
REMARK    5  A    between atoms: C_22  and  C_23
REMARK    6  A    between atoms: C_23  and  N_24
REMARK    7  A    between atoms: C_25  and  C_31
REMARK    8  A    between atoms: C_31  and  C_32
REMARK    9  A    between atoms: C_32  and  O_33
REMARK                            x       y       z     vdW  Elec       q    Type
REMARK                         _______ _______ _______ _____ _____    ______ ____
ROOT
ATOM      1  S   UNL     1      31.253 -24.584 -13.466  0.00  0.00    -0.084 S 
ATOM      2  N   UNL     1      32.519 -23.696 -16.162  0.00  0.00    -0.286 N 
ATOM      3  C   UNL     1      33.429 -23.907 -15.095  0.00  0.00    +0.059 C 
ATOM      4  C   UNL     1      31.137 -23.418 -16.011  0.00  0.00    +0.058 C 
ATOM      5  C   UNL     1      32.974 -24.289 -13.817  0.00  0.00    +0.043 C 
ATOM      6  C   UNL     1      30.455 -23.751 -14.823  0.00  0.00    +0.043 C 
ATOM      7  C   UNL     1      34.819 -23.712 -15.248  0.00  0.00    +0.035 C 
ATOM      8  C   UNL     1      35.715 -23.908 -14.194  0.00  0.00    +0.123 C 
ATOM      9  C   UNL     1      30.390 -22.768 -17.017  0.00  0.00    +0.015 C 
ATOM     10  C   UNL     1      33.880 -24.489 -12.761  0.00  0.00    +0.009 C 
ATOM     11  C   UNL     1      35.245 -24.299 -12.949  0.00  0.00    +0.021 C 
ATOM     12  C   UNL     1      29.086 -23.467 -14.676  0.00  0.00    +0.008 C 
ATOM     13  C   UNL     1      29.031 -22.482 -16.863  0.00  0.00    +0.001 C 
ATOM     14  C   UNL     1      28.377 -22.835 -15.693  0.00  0.00    +0.001 C 
ENDROOT
BRANCH   8  15
ATOM     15  S   UNL     1      37.427 -23.668 -14.445  0.00  0.00    +0.063 S 
ATOM     16  O   UNL     1      37.621 -23.139 -15.790  0.00  0.00    -0.153 OA
ATOM     17  O   UNL     1      37.949 -22.908 -13.315  0.00  0.00    -0.153 OA
BRANCH  15  18
ATOM     18  N   UNL     1      38.070 -25.273 -14.380  0.00  0.00    -0.153 NA
ATOM     19  C   UNL     1      39.530 -25.437 -14.597  0.00  0.00    +0.115 C 
ATOM     20  C   UNL     1      37.287 -26.354 -15.032  0.00  0.00    +0.115 C 
ENDBRANCH  15  18
ENDBRANCH   8  15
BRANCH   2  21
ATOM     21  C   UNL     1      33.065 -23.695 -17.526  0.00  0.00    +0.093 C 
BRANCH  21  22
ATOM     22  C   UNL     1      33.473 -22.282 -17.944  0.00  0.00    -0.001 C 
BRANCH  22  23
ATOM     23  C   UNL     1      34.622 -22.223 -18.954  0.00  0.00    -0.076 C 
BRANCH  23  24
ATOM     24  N   UNL     1      34.785 -20.884 -19.519  0.00  0.00    +0.387 N 
ATOM     25  C   UNL     1      35.124 -18.948 -21.694  0.00  0.00    -0.002 C 
ATOM     26  C   UNL     1      36.279 -19.366 -20.779  0.00  0.00    -0.023 C 
ATOM     27  C   UNL     1      33.790 -19.142 -20.966  0.00  0.00    -0.023 C 
ATOM     28  C   UNL     1      36.068 -20.779 -20.227  0.00  0.00    -0.077 C 
ATOM     29  C   UNL     1      33.661 -20.561 -20.408  0.00  0.00    -0.077 C 
ATOM     30  H   UNL     1      34.789 -20.207 -18.758  0.00  0.00    -0.080 HD
BRANCH  25  31
ATOM     31  C   UNL     1      35.289 -17.505 -22.161  0.00  0.00    +0.032 C 
BRANCH  31  32
ATOM     32  C   UNL     1      34.302 -16.579 -21.472  0.00  0.00    +0.137 C 
BRANCH  32  33
ATOM     33  O   UNL     1      34.986 -15.871 -20.447  0.00  0.00    -0.382 OA
ATOM     34  H   UNL     1      34.664 -14.957 -20.416  0.00  0.00    +0.210 HD
ENDBRANCH  32  33
ENDBRANCH  31  32
ENDBRANCH  25  31
ENDBRANCH  23  24
ENDBRANCH  22  23
ENDBRANCH  21  22
ENDBRANCH   2  21
TORSDOF 9
ENDMDL
MODEL 2
REMARK VINA RESULT:      -9.5      3.194      7.489
REMARK  Name = 62867
REMARK  9 active torsions:
REMARK  status: ('A' for Active; 'I' for Inactive)
REMARK    1  A    between atoms: N_2  and  C_21
REMARK    2  A    between atoms: C_8  and  S_15
REMARK    3  A    between atoms: S_15  and  N_18
REMARK    4  A    between atoms: C_21  and  C_22
REMARK    5  A    between atoms: C_22  and  C_23
REMARK    6  A    between atoms: C_23  and  N_24
REMARK    7  A    between atoms: C_25  and  C_31
REMARK    8  A    between atoms: C_31  and  C_32
REMARK    9  A    between atoms: C_32  and  O_33
REMARK                            x       y       z     vdW  Elec       q    Type
REMARK                         _______ _______ _______ _____ _____    ______ ____
ROOT
ATOM      1  S   UNL     1      37.928 -23.154 -14.678  0.00  0.00    -0.084 S 
ATOM      2  N   UNL     1      34.943 -24.001 -14.497  0.00  0.00    -0.286 N 
ATOM      3  C   UNL     1      35.324 -23.344 -15.694  0.00  0.00    +0.059 C 
ATOM      4  C   UNL     1      35.631 -23.906 -13.261  0.00  0.00    +0.058 C 
ATOM      5  C   UNL     1      36.645 -22.891 -15.885  0.00  0.00    +0.043 C 
ATOM      6  C   UNL     1      36.982 -23.508 -13.211  0.00  0.00    +0.043 C 
ATOM      7  C   UNL     1      34.401 -23.082 -16.730  0.00  0.00    +0.035 C 
ATOM      8  C   UNL     1      34.773 -22.423 -17.904  0.00  0.00    +0.123 C 
ATOM      9  C   UNL     1      34.995 -24.167 -12.028  0.00  0.00    +0.015 C 
ATOM     10  C   UNL     1      37.015 -22.233 -17.071  0.00  0.00    +0.009 C 
ATOM     11  C   UNL     1      36.082 -22.001 -18.077  0.00  0.00    +0.021 C 
ATOM     12  C   UNL     1      37.659 -23.409 -11.982  0.00  0.00    +0.008 C 
ATOM     13  C   UNL     1      35.670 -24.061 -10.809  0.00  0.00    +0.001 C 
ATOM     14  C   UNL     1      37.004 -23.685 -10.786  0.00  0.00    +0.001 C 
ENDROOT
BRANCH   8  15
ATOM     15  S   UNL     1      33.592 -22.139 -19.160  0.00  0.00    +0.063 S 
ATOM     16  O   UNL     1      33.707 -23.210 -20.144  0.00  0.00    -0.153 OA
ATOM     17  O   UNL     1      32.298 -21.915 -18.524  0.00  0.00    -0.153 OA
BRANCH  15  18
ATOM     18  N   UNL     1      34.122 -20.659 -19.881  0.00  0.00    -0.153 NA
ATOM     19  C   UNL     1      33.104 -19.833 -20.580  0.00  0.00    +0.115 C 
ATOM     20  C   UNL     1      35.419 -20.672 -20.605  0.00  0.00    +0.115 C 
ENDBRANCH  15  18
ENDBRANCH   8  15
BRANCH   2  21
ATOM     21  C   UNL     1      33.700 -24.783 -14.520  0.00  0.00    +0.093 C 
BRANCH  21  22
ATOM     22  C   UNL     1      32.543 -23.977 -13.931  0.00  0.00    -0.001 C 
BRANCH  22  23
ATOM     23  C   UNL     1      31.286 -24.796 -13.624  0.00  0.00    -0.076 C 
BRANCH  23  24
ATOM     24  N   UNL     1      30.125 -24.320 -14.376  0.00  0.00    +0.387 N 
ATOM     25  C   UNL     1      28.771 -23.125 -16.685  0.00  0.00    -0.002 C 
ATOM     26  C   UNL     1      29.009 -22.355 -15.383  0.00  0.00    -0.023 C 
ATOM     27  C   UNL     1      28.733 -24.630 -16.397  0.00  0.00    -0.023 C 
ATOM     28  C   UNL     1      30.242 -22.880 -14.643  0.00  0.00    -0.077 C 
ATOM     29  C   UNL     1      29.974 -25.080 -15.624  0.00  0.00    -0.077 C 
ATOM     30  H   UNL     1      29.289 -24.469 -13.814  0.00  0.00    -0.080 HD
BRANCH  25  31
ATOM     31  C   UNL     1      27.485 -22.665 -17.367  0.00  0.00    +0.032 C 
BRANCH  31  32
ATOM     32  C   UNL     1      26.543 -21.991 -16.385  0.00  0.00    +0.137 C 
BRANCH  32  33
ATOM     33  O   UNL     1      25.569 -21.264 -17.120  0.00  0.00    -0.382 OA
ATOM     34  H   UNL     1      24.682 -21.517 -16.821  0.00  0.00    +0.210 HD
ENDBRANCH  32  33
ENDBRANCH  31  32
ENDBRANCH  25  31
ENDBRANCH  23  24
ENDBRANCH  22  23
ENDBRANCH  21  22
ENDBRANCH   2  21
TORSDOF 9
ENDMDL
MODEL 3
REMARK VINA RESULT:      -9.4      2.703      5.633
REMARK  Name = 62867
REMARK  9 active torsions:
REMARK  status: ('A' for Active; 'I' for Inactive)
REMARK    1  A    between atoms: N_2  and  C_21
REMARK    2  A    between atoms: C_8  and  S_15
REMARK    3  A    between atoms: S_15  and  N_18
REMARK    4  A    between atoms: C_21  and  C_22
REMARK    5  A    between atoms: C_22  and  C_23
REMARK    6  A    between atoms: C_23  and  N_24
REMARK    7  A    between atoms: C_25  and  C_31
REMARK    8  A    between atoms: C_31  and  C_32
REMARK    9  A    between atoms: C_32  and  O_33
REMARK                            x       y       z     vdW  Elec       q    Type
REMARK                         _______ _______ _______ _____ _____    ______ ____
ROOT
ATOM      1  S   UNL     1      35.000 -23.904 -12.102  0.00  0.00    -0.084 S 
ATOM      2  N   UNL     1      35.120 -23.908 -15.208  0.00  0.00    -0.286 N 
ATOM      3  C   UNL     1      33.851 -23.628 -14.642  0.00  0.00    +0.059 C 
ATOM      4  C   UNL     1      36.171 -24.597 -14.552  0.00  0.00    +0.058 C 
ATOM      5  C   UNL     1      33.664 -23.620 -13.246  0.00  0.00    +0.043 C 
ATOM      6  C   UNL     1      36.214 -24.686 -13.146  0.00  0.00    +0.043 C 
ATOM      7  C   UNL     1      32.714 -23.381 -15.442  0.00  0.00    +0.035 C 
ATOM      8  C   UNL     1      31.460 -23.117 -14.885  0.00  0.00    +0.123 C 
ATOM      9  C   UNL     1      37.197 -25.254 -15.266  0.00  0.00    +0.015 C 
ATOM     10  C   UNL     1      32.401 -23.350 -12.691  0.00  0.00    +0.009 C 
ATOM     11  C   UNL     1      31.304 -23.099 -13.508  0.00  0.00    +0.021 C 
ATOM     12  C   UNL     1      37.254 -25.377 -12.499  0.00  0.00    +0.008 C 
ATOM     13  C   UNL     1      38.225 -25.944 -14.619  0.00  0.00    +0.001 C 
ATOM     14  C   UNL     1      38.256 -26.003 -13.234  0.00  0.00    +0.001 C 
ENDROOT
BRANCH   8  15
ATOM     15  S   UNL     1      30.091 -22.802 -15.923  0.00  0.00    +0.063 S 
ATOM     16  O   UNL     1      29.131 -21.994 -15.179  0.00  0.00    -0.153 OA
ATOM     17  O   UNL     1      30.593 -22.290 -17.194  0.00  0.00    -0.153 OA
BRANCH  15  18
ATOM     18  N   UNL     1      29.415 -24.373 -16.183  0.00  0.00    -0.153 NA
ATOM     19  C   UNL     1      28.127 -24.452 -16.920  0.00  0.00    +0.115 C 
ATOM     20  C   UNL     1      29.472 -25.341 -15.059  0.00  0.00    +0.115 C 
ENDBRANCH  15  18
ENDBRANCH   8  15
BRANCH   2  21
ATOM     21  C   UNL     1      35.339 -23.516 -16.607  0.00  0.00    +0.093 C 
BRANCH  21  22
ATOM     22  C   UNL     1      36.033 -22.156 -16.685  0.00  0.00    -0.001 C 
BRANCH  22  23
ATOM     23  C   UNL     1      36.807 -21.909 -17.983  0.00  0.00    -0.076 C 
BRANCH  23  24
ATOM     24  N   UNL     1      36.139 -20.930 -18.840  0.00  0.00    +0.387 N 
ATOM     25  C   UNL     1      35.097 -19.907 -21.382  0.00  0.00    -0.002 C 
ATOM     26  C   UNL     1      36.390 -19.380 -20.752  0.00  0.00    -0.023 C 
ATOM     27  C   UNL     1      34.186 -20.482 -20.291  0.00  0.00    -0.023 C 
ATOM     28  C   UNL     1      37.057 -20.446 -19.879  0.00  0.00    -0.077 C 
ATOM     29  C   UNL     1      34.926 -21.510 -19.433  0.00  0.00    -0.077 C 
ATOM     30  H   UNL     1      35.860 -20.133 -18.270  0.00  0.00    -0.080 HD
BRANCH  25  31
ATOM     31  C   UNL     1      34.384 -18.811 -22.170  0.00  0.00    +0.032 C 
BRANCH  31  32
ATOM     32  C   UNL     1      34.925 -18.699 -23.584  0.00  0.00    +0.137 C 
BRANCH  32  33
ATOM     33  O   UNL     1      35.689 -17.506 -23.683  0.00  0.00    -0.382 OA
ATOM     34  H   UNL     1      35.960 -17.371 -24.605  0.00  0.00    +0.210 HD
ENDBRANCH  32  33
ENDBRANCH  31  32
ENDBRANCH  25  31
ENDBRANCH  23  24
ENDBRANCH  22  23
ENDBRANCH  21  22
ENDBRANCH   2  21
TORSDOF 9
ENDMDL
MODEL 4
REMARK VINA RESULT:      -8.7      3.184      6.245
REMARK  Name = 62867
REMARK  9 active torsions:
REMARK  status: ('A' for Active; 'I' for Inactive)
REMARK    1  A    between atoms: N_2  and  C_21
REMARK    2  A    between atoms: C_8  and  S_15
REMARK    3  A    between atoms: S_15  and  N_18
REMARK    4  A    between atoms: C_21  and  C_22
REMARK    5  A    between atoms: C_22  and  C_23
REMARK    6  A    between atoms: C_23  and  N_24
REMARK    7  A    between atoms: C_25  and  C_31
REMARK    8  A    between atoms: C_31  and  C_32
REMARK    9  A    between atoms: C_32  and  O_33
REMARK                            x       y       z     vdW  Elec       q    Type
REMARK                         _______ _______ _______ _____ _____    ______ ____
ROOT
ATOM      1  S   UNL     1      37.029 -21.678 -17.748  0.00  0.00    -0.084 S 
ATOM      2  N   UNL     1      34.665 -22.925 -16.161  0.00  0.00    -0.286 N 
ATOM      3  C   UNL     1      35.961 -23.314 -15.740  0.00  0.00    +0.059 C 
ATOM      4  C   UNL     1      34.343 -22.418 -17.446  0.00  0.00    +0.058 C 
ATOM      5  C   UNL     1      37.112 -22.835 -16.396  0.00  0.00    +0.043 C 
ATOM      6  C   UNL     1      35.334 -21.850 -18.271  0.00  0.00    +0.043 C 
ATOM      7  C   UNL     1      36.161 -24.220 -14.676  0.00  0.00    +0.035 C 
ATOM      8  C   UNL     1      37.438 -24.614 -14.268  0.00  0.00    +0.123 C 
ATOM      9  C   UNL     1      33.035 -22.489 -17.973  0.00  0.00    +0.015 C 
ATOM     10  C   UNL     1      38.395 -23.230 -15.979  0.00  0.00    +0.009 C 
ATOM     11  C   UNL     1      38.557 -24.117 -14.918  0.00  0.00    +0.021 C 
ATOM     12  C   UNL     1      35.012 -21.356 -19.548  0.00  0.00    +0.008 C 
ATOM     13  C   UNL     1      32.721 -22.002 -19.244  0.00  0.00    +0.001 C 
ATOM     14  C   UNL     1      33.710 -21.431 -20.031  0.00  0.00    +0.001 C 
ENDROOT
BRANCH   8  15
ATOM     15  S   UNL     1      37.626 -25.726 -12.934  0.00  0.00    +0.063 S 
ATOM     16  O   UNL     1      36.712 -26.843 -13.139  0.00  0.00    -0.153 OA
ATOM     17  O   UNL     1      39.049 -26.010 -12.777  0.00  0.00    -0.153 OA
BRANCH  15  18
ATOM     18  N   UNL     1      37.088 -24.809 -11.569  0.00  0.00    -0.153 NA
ATOM     19  C   UNL     1      35.655 -24.915 -11.194  0.00  0.00    +0.115 C 
ATOM     20  C   UNL     1      37.598 -23.421 -11.429  0.00  0.00    +0.115 C 
ENDBRANCH  15  18
ENDBRANCH   8  15
BRANCH   2  21
ATOM     21  C   UNL     1      33.557 -23.128 -15.218  0.00  0.00    +0.093 C 
BRANCH  21  22
ATOM     22  C   UNL     1      32.461 -23.988 -15.848  0.00  0.00    -0.001 C 
BRANCH  22  23
ATOM     23  C   UNL     1      31.455 -24.569 -14.852  0.00  0.00    -0.076 C 
BRANCH  23  24
ATOM     24  N   UNL     1      30.098 -24.081 -15.097  0.00  0.00    +0.387 N 
ATOM     25  C   UNL     1      28.078 -22.417 -16.419  0.00  0.00    -0.002 C 
ATOM     26  C   UNL     1      28.580 -22.129 -15.000  0.00  0.00    -0.023 C 
ATOM     27  C   UNL     1      28.256 -23.905 -16.740  0.00  0.00    -0.023 C 
ATOM     28  C   UNL     1      30.007 -22.645 -14.800  0.00  0.00    -0.077 C 
ATOM     29  C   UNL     1      29.693 -24.362 -16.481  0.00  0.00    -0.077 C 
ATOM     30  H   UNL     1      29.456 -24.572 -14.477  0.00  0.00    -0.080 HD
BRANCH  25  31
ATOM     31  C   UNL     1      26.622 -21.991 -16.583  0.00  0.00    +0.032 C 
BRANCH  31  32
ATOM     32  C   UNL     1      26.327 -21.547 -18.005  0.00  0.00    +0.137 C 
BRANCH  32  33
ATOM     33  O   UNL     1      25.967 -20.173 -17.984  0.00  0.00    -0.382 OA
ATOM     34  H   UNL     1      26.638 -19.656 -18.455  0.00  0.00    +0.210 HD
ENDBRANCH  32  33
ENDBRANCH  31  32
ENDBRANCH  25  31
ENDBRANCH  23  24
ENDBRANCH  22  23
ENDBRANCH  21  22
ENDBRANCH   2  21
TORSDOF 9
ENDMDL
MODEL 5
REMARK VINA RESULT:      -8.4     10.472     16.538
REMARK  Name = 62867
REMARK  9 active torsions:
REMARK  status: ('A' for Active; 'I' for Inactive)
REMARK    1  A    between atoms: N_2  and  C_21
REMARK    2  A    between atoms: C_8  and  S_15
REMARK    3  A    between atoms: S_15  and  N_18
REMARK    4  A    between atoms: C_21  and  C_22
REMARK    5  A    between atoms: C_22  and  C_23
REMARK    6  A    between atoms: C_23  and  N_24
REMARK    7  A    between atoms: C_25  and  C_31
REMARK    8  A    between atoms: C_31  and  C_32
REMARK    9  A    between atoms: C_32  and  O_33
REMARK                            x       y       z     vdW  Elec       q    Type
REMARK                         _______ _______ _______ _____ _____    ______ ____
ROOT
ATOM      1  S   UNL     1      32.401  -7.616 -19.846  0.00  0.00    -0.084 S 
ATOM      2  N   UNL     1      32.113  -8.821 -22.697  0.00  0.00    -0.286 N 
ATOM      3  C   UNL     1      32.022  -7.409 -22.614  0.00  0.00    +0.059 C 
ATOM      4  C   UNL     1      31.877  -9.717 -21.624  0.00  0.00    +0.058 C 
ATOM      5  C   UNL     1      32.113  -6.746 -21.374  0.00  0.00    +0.043 C 
ATOM      6  C   UNL     1      31.953  -9.284 -20.285  0.00  0.00    +0.043 C 
ATOM      7  C   UNL     1      31.800  -6.606 -23.754  0.00  0.00    +0.035 C 
ATOM      8  C   UNL     1      31.697  -5.215 -23.671  0.00  0.00    +0.123 C 
ATOM      9  C   UNL     1      31.520 -11.066 -21.840  0.00  0.00    +0.015 C 
ATOM     10  C   UNL     1      32.013  -5.346 -21.297  0.00  0.00    +0.009 C 
ATOM     11  C   UNL     1      31.806  -4.584 -22.442  0.00  0.00    +0.021 C 
ATOM     12  C   UNL     1      31.710 -10.175 -19.224  0.00  0.00    +0.008 C 
ATOM     13  C   UNL     1      31.274 -11.946 -20.783  0.00  0.00    +0.001 C 
ATOM     14  C   UNL     1      31.373 -11.501 -19.473  0.00  0.00    +0.001 C 
ENDROOT
BRANCH   8  15
ATOM     15  S   UNL     1      31.439  -4.270 -25.118  0.00  0.00    +0.063 S 
ATOM     16  O   UNL     1      32.374  -4.732 -26.137  0.00  0.00    -0.153 OA
ATOM     17  O   UNL     1      30.012  -4.286 -25.423  0.00  0.00    -0.153 OA
BRANCH  15  18
ATOM     18  N   UNL     1      31.887  -2.670 -24.636  0.00  0.00    -0.153 NA
ATOM     19  C   UNL     1      30.814  -1.786 -24.112  0.00  0.00    +0.115 C 
ATOM     20  C   UNL     1      32.841  -1.932 -25.502  0.00  0.00    +0.115 C 
ENDBRANCH  15  18
ENDBRANCH   8  15
BRANCH   2  21
ATOM     21  C   UNL     1      32.408  -9.405 -24.013  0.00  0.00    +0.093 C 
BRANCH  21  22
ATOM     22  C   UNL     1      33.637 -10.310 -23.939  0.00  0.00    -0.001 C 
BRANCH  22  23
ATOM     23  C   UNL     1      33.723 -11.359 -25.051  0.00  0.00    -0.076 C 
BRANCH  23  24
ATOM     24  N   UNL     1      34.086 -12.677 -24.533  0.00  0.00    +0.387 N 
ATOM     25  C   UNL     1      33.572 -15.229 -23.185  0.00  0.00    -0.002 C 
ATOM     26  C   UNL     1      34.329 -14.082 -22.510  0.00  0.00    -0.023 C 
ATOM     27  C   UNL     1      33.710 -15.116 -24.707  0.00  0.00    -0.023 C 
ATOM     28  C   UNL     1      33.902 -12.725 -23.076  0.00  0.00    -0.077 C 
ATOM     29  C   UNL     1      33.304 -13.726 -25.201  0.00  0.00    -0.077 C 
ATOM     30  H   UNL     1      35.072 -12.846 -24.731  0.00  0.00    -0.080 HD
BRANCH  25  31
ATOM     31  C   UNL     1      34.073 -16.583 -22.689  0.00  0.00    +0.032 C 
BRANCH  31  32
ATOM     32  C   UNL     1      34.801 -17.344 -23.784  0.00  0.00    +0.137 C 
BRANCH  32  33
ATOM     33  O   UNL     1      36.059 -17.769 -23.279  0.00  0.00    -0.382 OA
ATOM     34  H   UNL     1      36.544 -17.003 -22.932  0.00  0.00    +0.210 HD
ENDBRANCH  32  33
ENDBRANCH  31  32
ENDBRANCH  25  31
ENDBRANCH  23  24
ENDBRANCH  22  23
ENDBRANCH  21  22
ENDBRANCH   2  21
TORSDOF 9
ENDMDL
MODEL 6
REMARK VINA RESULT:      -8.3     11.970     16.525
REMARK  Name = 62867
REMARK  9 active torsions:
REMARK  status: ('A' for Active; 'I' for Inactive)
REMARK    1  A    between atoms: N_2  and  C_21
REMARK    2  A    between atoms: C_8  and  S_15
REMARK    3  A    between atoms: S_15  and  N_18
REMARK    4  A    between atoms: C_21  and  C_22
REMARK    5  A    between atoms: C_22  and  C_23
REMARK    6  A    between atoms: C_23  and  N_24
REMARK    7  A    between atoms: C_25  and  C_31
REMARK    8  A    between atoms: C_31  and  C_32
REMARK    9  A    between atoms: C_32  and  O_33
REMARK                            x       y       z     vdW  Elec       q    Type
REMARK                         _______ _______ _______ _____ _____    ______ ____
ROOT
ATOM      1  S   UNL     1      32.278  -7.612 -19.792  0.00  0.00    -0.084 S 
ATOM      2  N   UNL     1      32.285  -8.762 -22.679  0.00  0.00    -0.286 N 
ATOM      3  C   UNL     1      32.110  -7.359 -22.577  0.00  0.00    +0.059 C 
ATOM      4  C   UNL     1      32.013  -9.695 -21.647  0.00  0.00    +0.058 C 
ATOM      5  C   UNL     1      32.066  -6.722 -21.321  0.00  0.00    +0.043 C 
ATOM      6  C   UNL     1      31.958  -9.290 -20.298  0.00  0.00    +0.043 C 
ATOM      7  C   UNL     1      31.937  -6.542 -23.715  0.00  0.00    +0.035 C 
ATOM      8  C   UNL     1      31.752  -5.161 -23.614  0.00  0.00    +0.123 C 
ATOM      9  C   UNL     1      31.749 -11.055 -21.918  0.00  0.00    +0.015 C 
ATOM     10  C   UNL     1      31.884  -5.332 -21.225  0.00  0.00    +0.009 C 
ATOM     11  C   UNL     1      31.728  -4.554 -22.368  0.00  0.00    +0.021 C 
ATOM     12  C   UNL     1      31.681 -10.217 -19.278  0.00  0.00    +0.008 C 
ATOM     13  C   UNL     1      31.467 -11.972 -20.901  0.00  0.00    +0.001 C 
ATOM     14  C   UNL     1      31.437 -11.553 -19.580  0.00  0.00    +0.001 C 
ENDROOT
BRANCH   8  15
ATOM     15  S   UNL     1      31.559  -4.196 -25.058  0.00  0.00    +0.063 S 
ATOM     16  O   UNL     1      30.170  -4.298 -25.492  0.00  0.00    -0.153 OA
ATOM     17  O   UNL     1      32.111  -2.872 -24.796  0.00  0.00    -0.153 OA
BRANCH  15  18
ATOM     18  N   UNL     1      32.565  -5.000 -26.214  0.00  0.00    -0.153 NA
ATOM     19  C   UNL     1      33.840  -5.585 -25.725  0.00  0.00    +0.115 C 
ATOM     20  C   UNL     1      32.720  -4.367 -27.548  0.00  0.00    +0.115 C 
ENDBRANCH  15  18
ENDBRANCH   8  15
BRANCH   2  21
ATOM     21  C   UNL     1      32.715  -9.298 -23.978  0.00  0.00    +0.093 C 
BRANCH  21  22
ATOM     22  C   UNL     1      34.154  -9.809 -23.902  0.00  0.00    -0.001 C 
BRANCH  22  23
ATOM     23  C   UNL     1      34.734 -10.280 -25.239  0.00  0.00    -0.076 C 
BRANCH  23  24
ATOM     24  N   UNL     1      34.551 -11.717 -25.439  0.00  0.00    +0.387 N 
ATOM     25  C   UNL     1      32.978 -14.170 -25.757  0.00  0.00    -0.002 C 
ATOM     26  C   UNL     1      33.711 -13.826 -24.457  0.00  0.00    -0.023 C 
ATOM     27  C   UNL     1      33.664 -13.474 -26.938  0.00  0.00    -0.023 C 
ATOM     28  C   UNL     1      33.862 -12.313 -24.287  0.00  0.00    -0.077 C 
ATOM     29  C   UNL     1      33.818 -11.973 -26.686  0.00  0.00    -0.077 C 
ATOM     30  H   UNL     1      35.468 -12.155 -25.519  0.00  0.00    -0.080 HD
BRANCH  25  31
ATOM     31  C   UNL     1      32.919 -15.680 -25.971  0.00  0.00    +0.032 C 
BRANCH  31  32
ATOM     32  C   UNL     1      33.943 -16.405 -25.115  0.00  0.00    +0.137 C 
BRANCH  32  33
ATOM     33  O   UNL     1      35.006 -16.838 -25.951  0.00  0.00    -0.382 OA
ATOM     34  H   UNL     1      35.398 -17.646 -25.584  0.00  0.00    +0.210 HD
ENDBRANCH  32  33
ENDBRANCH  31  32
ENDBRANCH  25  31
ENDBRANCH  23  24
ENDBRANCH  22  23
ENDBRANCH  21  22
ENDBRANCH   2  21
TORSDOF 9
ENDMDL
MODEL 7
REMARK VINA RESULT:      -8.3      2.601      5.780
REMARK  Name = 62867
REMARK  9 active torsions:
REMARK  status: ('A' for Active; 'I' for Inactive)
REMARK    1  A    between atoms: N_2  and  C_21
REMARK    2  A    between atoms: C_8  and  S_15
REMARK    3  A    between atoms: S_15  and  N_18
REMARK    4  A    between atoms: C_21  and  C_22
REMARK    5  A    between atoms: C_22  and  C_23
REMARK    6  A    between atoms: C_23  and  N_24
REMARK    7  A    between atoms: C_25  and  C_31
REMARK    8  A    between atoms: C_31  and  C_32
REMARK    9  A    between atoms: C_32  and  O_33
REMARK                            x       y       z     vdW  Elec       q    Type
REMARK                         _______ _______ _______ _____ _____    ______ ____
ROOT
ATOM      1  S   UNL     1      35.066 -24.661 -12.378  0.00  0.00    -0.084 S 
ATOM      2  N   UNL     1      35.242 -23.242 -15.138  0.00  0.00    -0.286 N 
ATOM      3  C   UNL     1      33.945 -23.654 -14.740  0.00  0.00    +0.059 C 
ATOM      4  C   UNL     1      36.456 -23.786 -14.648  0.00  0.00    +0.058 C 
ATOM      5  C   UNL     1      33.739 -24.329 -13.520  0.00  0.00    +0.043 C 
ATOM      6  C   UNL     1      36.499 -24.475 -13.419  0.00  0.00    +0.043 C 
ATOM      7  C   UNL     1      32.811 -23.444 -15.554  0.00  0.00    +0.035 C 
ATOM      8  C   UNL     1      31.534 -23.861 -15.168  0.00  0.00    +0.123 C 
ATOM      9  C   UNL     1      37.662 -23.700 -15.377  0.00  0.00    +0.015 C 
ATOM     10  C   UNL     1      32.453 -24.743 -13.134  0.00  0.00    +0.009 C 
ATOM     11  C   UNL     1      31.354 -24.509 -13.956  0.00  0.00    +0.021 C 
ATOM     12  C   UNL     1      37.705 -25.020 -12.941  0.00  0.00    +0.008 C 
ATOM     13  C   UNL     1      38.856 -24.248 -14.900  0.00  0.00    +0.001 C 
ATOM     14  C   UNL     1      38.878 -24.906 -13.680  0.00  0.00    +0.001 C 
ENDROOT
BRANCH   8  15
ATOM     15  S   UNL     1      30.163 -23.559 -16.208  0.00  0.00    +0.063 S 
ATOM     16  O   UNL     1      30.571 -22.607 -17.235  0.00  0.00    -0.153 OA
ATOM     17  O   UNL     1      29.621 -24.846 -16.629  0.00  0.00    -0.153 OA
BRANCH  15  18
ATOM     18  N   UNL     1      29.024 -22.791 -15.156  0.00  0.00    -0.153 NA
ATOM     19  C   UNL     1      27.673 -22.502 -15.702  0.00  0.00    +0.115 C 
ATOM     20  C   UNL     1      29.520 -21.691 -14.291  0.00  0.00    +0.115 C 
ENDBRANCH  15  18
ENDBRANCH   8  15
BRANCH   2  21
ATOM     21  C   UNL     1      35.334 -22.221 -16.190  0.00  0.00    +0.093 C 
BRANCH  21  22
ATOM     22  C   UNL     1      35.256 -22.864 -17.575  0.00  0.00    -0.001 C 
BRANCH  22  23
ATOM     23  C   UNL     1      33.926 -22.652 -18.302  0.00  0.00    -0.076 C 
BRANCH  23  24
ATOM     24  N   UNL     1      34.086 -21.846 -19.511  0.00  0.00    +0.387 N 
ATOM     25  C   UNL     1      34.484 -19.353 -21.001  0.00  0.00    -0.002 C 
ATOM     26  C   UNL     1      33.122 -20.046 -20.909  0.00  0.00    -0.023 C 
ATOM     27  C   UNL     1      35.603 -20.381 -20.805  0.00  0.00    -0.023 C 
ATOM     28  C   UNL     1      32.999 -20.863 -19.621  0.00  0.00    -0.077 C 
ATOM     29  C   UNL     1      35.399 -21.187 -19.520  0.00  0.00    -0.077 C 
ATOM     30  H   UNL     1      34.037 -22.460 -20.323  0.00  0.00    -0.080 HD
BRANCH  25  31
ATOM     31  C   UNL     1      34.639 -18.622 -22.332  0.00  0.00    +0.032 C 
BRANCH  31  32
ATOM     32  C   UNL     1      35.673 -17.513 -22.243  0.00  0.00    +0.137 C 
BRANCH  32  33
ATOM     33  O   UNL     1      35.702 -16.821 -23.483  0.00  0.00    -0.382 OA
ATOM     34  H   UNL     1      35.305 -15.943 -23.373  0.00  0.00    +0.210 HD
ENDBRANCH  32  33
ENDBRANCH  31  32
ENDBRANCH  25  31
ENDBRANCH  23  24
ENDBRANCH  22  23
ENDBRANCH  21  22
ENDBRANCH   2  21
TORSDOF 9
ENDMDL
MODEL 8
REMARK VINA RESULT:      -7.7      2.941      6.257
REMARK  Name = 62867
REMARK  9 active torsions:
REMARK  status: ('A' for Active; 'I' for Inactive)
REMARK    1  A    between atoms: N_2  and  C_21
REMARK    2  A    between atoms: C_8  and  S_15
REMARK    3  A    between atoms: S_15  and  N_18
REMARK    4  A    between atoms: C_21  and  C_22
REMARK    5  A    between atoms: C_22  and  C_23
REMARK    6  A    between atoms: C_23  and  N_24
REMARK    7  A    between atoms: C_25  and  C_31
REMARK    8  A    between atoms: C_31  and  C_32
REMARK    9  A    between atoms: C_32  and  O_33
REMARK                            x       y       z     vdW  Elec       q    Type
REMARK                         _______ _______ _______ _____ _____    ______ ____
ROOT
ATOM      1  S   UNL     1      37.003 -21.065 -17.681  0.00  0.00    -0.084 S 
ATOM      2  N   UNL     1      34.628 -22.975 -17.071  0.00  0.00    -0.286 N 
ATOM      3  C   UNL     1      35.853 -23.294 -16.433  0.00  0.00    +0.059 C 
ATOM      4  C   UNL     1      34.500 -22.192 -18.246  0.00  0.00    +0.058 C 
ATOM      5  C   UNL     1      37.009 -22.518 -16.649  0.00  0.00    +0.043 C 
ATOM      6  C   UNL     1      35.522 -21.306 -18.642  0.00  0.00    +0.043 C 
ATOM      7  C   UNL     1      35.985 -24.417 -15.587  0.00  0.00    +0.035 C 
ATOM      8  C   UNL     1      37.195 -24.739 -14.969  0.00  0.00    +0.123 C 
ATOM      9  C   UNL     1      33.372 -22.286 -19.090  0.00  0.00    +0.015 C 
ATOM     10  C   UNL     1      38.223 -22.844 -16.021  0.00  0.00    +0.009 C 
ATOM     11  C   UNL     1      38.315 -23.951 -15.183  0.00  0.00    +0.021 C 
ATOM     12  C   UNL     1      35.395 -20.536 -19.812  0.00  0.00    +0.008 C 
ATOM     13  C   UNL     1      33.253 -21.523 -20.255  0.00  0.00    +0.001 C 
ATOM     14  C   UNL     1      34.264 -20.645 -20.615  0.00  0.00    +0.001 C 
ENDROOT
BRANCH   8  15
ATOM     15  S   UNL     1      37.297 -26.131 -13.917  0.00  0.00    +0.063 S 
ATOM     16  O   UNL     1      36.127 -26.131 -13.047  0.00  0.00    -0.153 OA
ATOM     17  O   UNL     1      37.550 -27.307 -14.744  0.00  0.00    -0.153 OA
BRANCH  15  18
ATOM     18  N   UNL     1      38.703 -25.810 -12.962  0.00  0.00    -0.153 NA
ATOM     19  C   UNL     1      38.640 -24.671 -12.010  0.00  0.00    +0.115 C 
ATOM     20  C   UNL     1      40.025 -25.901 -13.632  0.00  0.00    +0.115 C 
ENDBRANCH  15  18
ENDBRANCH   8  15
BRANCH   2  21
ATOM     21  C   UNL     1      33.401 -23.558 -16.511  0.00  0.00    +0.093 C 
BRANCH  21  22
ATOM     22  C   UNL     1      33.317 -23.299 -15.007  0.00  0.00    -0.001 C 
BRANCH  22  23
ATOM     23  C   UNL     1      32.347 -24.215 -14.256  0.00  0.00    -0.076 C 
BRANCH  23  24
ATOM     24  N   UNL     1      30.952 -23.845 -14.493  0.00  0.00    +0.387 N 
ATOM     25  C   UNL     1      28.721 -22.793 -16.077  0.00  0.00    -0.002 C 
ATOM     26  C   UNL     1      29.378 -21.991 -14.950  0.00  0.00    -0.023 C 
ATOM     27  C   UNL     1      28.919 -24.292 -15.831  0.00  0.00    -0.023 C 
ATOM     28  C   UNL     1      30.839 -22.404 -14.752  0.00  0.00    -0.077 C 
ATOM     29  C   UNL     1      30.394 -24.629 -15.604  0.00  0.00    -0.077 C 
ATOM     30  H   UNL     1      30.410 -24.058 -13.656  0.00  0.00    -0.080 HD
BRANCH  25  31
ATOM     31  C   UNL     1      27.239 -22.449 -16.203  0.00  0.00    +0.032 C 
BRANCH  31  32
ATOM     32  C   UNL     1      26.863 -22.117 -17.637  0.00  0.00    +0.137 C 
BRANCH  32  33
ATOM     33  O   UNL     1      26.472 -20.753 -17.697  0.00  0.00    -0.382 OA
ATOM     34  H   UNL     1      25.534 -20.675 -17.463  0.00  0.00    +0.210 HD
ENDBRANCH  32  33
ENDBRANCH  31  32
ENDBRANCH  25  31
ENDBRANCH  23  24
ENDBRANCH  22  23
ENDBRANCH  21  22
ENDBRANCH   2  21
TORSDOF 9
ENDMDL
MODEL 9
REMARK VINA RESULT:      -7.4      9.711     13.063
REMARK  Name = 62867
REMARK  9 active torsions:
REMARK  status: ('A' for Active; 'I' for Inactive)
REMARK    1  A    between atoms: N_2  and  C_21
REMARK    2  A    between atoms: C_8  and  S_15
REMARK    3  A    between atoms: S_15  and  N_18
REMARK    4  A    between atoms: C_21  and  C_22
REMARK    5  A    between atoms: C_22  and  C_23
REMARK    6  A    between atoms: C_23  and  N_24
REMARK    7  A    between atoms: C_25  and  C_31
REMARK    8  A    between atoms: C_31  and  C_32
REMARK    9  A    between atoms: C_32  and  O_33
REMARK                            x       y       z     vdW  Elec       q    Type
REMARK                         _______ _______ _______ _____ _____    ______ ____
ROOT
ATOM      1  S   UNL     1      34.447 -16.451 -21.253  0.00  0.00    -0.084 S 
ATOM      2  N   UNL     1      33.800 -14.659 -23.709  0.00  0.00    -0.286 N 
ATOM      3  C   UNL     1      33.281 -14.212 -22.468  0.00  0.00    +0.059 C 
ATOM      4  C   UNL     1      34.169 -15.995 -24.004  0.00  0.00    +0.058 C 
ATOM      5  C   UNL     1      33.486 -14.951 -21.286  0.00  0.00    +0.043 C 
ATOM      6  C   UNL     1      34.463 -16.912 -22.974  0.00  0.00    +0.043 C 
ATOM      7  C   UNL     1      32.508 -13.035 -22.360  0.00  0.00    +0.035 C 
ATOM      8  C   UNL     1      31.985 -12.601 -21.139  0.00  0.00    +0.123 C 
ATOM      9  C   UNL     1      34.225 -16.481 -25.328  0.00  0.00    +0.015 C 
ATOM     10  C   UNL     1      32.962 -14.508 -20.059  0.00  0.00    +0.009 C 
ATOM     11  C   UNL     1      32.215 -13.336 -19.987  0.00  0.00    +0.021 C 
ATOM     12  C   UNL     1      34.822 -18.238 -23.272  0.00  0.00    +0.008 C 
ATOM     13  C   UNL     1      34.577 -17.802 -25.618  0.00  0.00    +0.001 C 
ATOM     14  C   UNL     1      34.879 -18.681 -24.589  0.00  0.00    +0.001 C 
ENDROOT
BRANCH   8  15
ATOM     15  S   UNL     1      31.050 -11.127 -21.062  0.00  0.00    +0.063 S 
ATOM     16  O   UNL     1      31.079 -10.500 -22.379  0.00  0.00    -0.153 OA
ATOM     17  O   UNL     1      29.755 -11.442 -20.470  0.00  0.00    -0.153 OA
BRANCH  15  18
ATOM     18  N   UNL     1      31.944 -10.143 -19.955  0.00  0.00    -0.153 NA
ATOM     19  C   UNL     1      31.555 -10.196 -18.522  0.00  0.00    +0.115 C 
ATOM     20  C   UNL     1      32.291  -8.765 -20.386  0.00  0.00    +0.115 C 
ENDBRANCH  15  18
ENDBRANCH   8  15
BRANCH   2  21
ATOM     21  C   UNL     1      33.896 -13.675 -24.796  0.00  0.00    +0.093 C 
BRANCH  21  22
ATOM     22  C   UNL     1      33.381 -12.310 -24.336  0.00  0.00    -0.001 C 
BRANCH  22  23
ATOM     23  C   UNL     1      34.352 -11.151 -24.574  0.00  0.00    -0.076 C 
BRANCH  23  24
ATOM     24  N   UNL     1      33.888  -9.912 -23.949  0.00  0.00    +0.387 N 
ATOM     25  C   UNL     1      33.154  -7.075 -23.913  0.00  0.00    -0.002 C 
ATOM     26  C   UNL     1      34.475  -7.589 -23.334  0.00  0.00    -0.023 C 
ATOM     27  C   UNL     1      32.108  -8.195 -23.892  0.00  0.00    -0.023 C 
ATOM     28  C   UNL     1      34.925  -8.875 -24.032  0.00  0.00    -0.077 C 
ATOM     29  C   UNL     1      32.636  -9.461 -24.570  0.00  0.00    -0.077 C 
ATOM     30  H   UNL     1      33.703 -10.094 -22.963  0.00  0.00    -0.080 HD
BRANCH  25  31
ATOM     31  C   UNL     1      32.660  -5.850 -23.148  0.00  0.00    +0.032 C 
BRANCH  31  32
ATOM     32  C   UNL     1      31.255  -6.057 -22.609  0.00  0.00    +0.137 C 
BRANCH  32  33
ATOM     33  O   UNL     1      31.171  -5.458 -21.324  0.00  0.00    -0.382 OA
ATOM     34  H   UNL     1      31.801  -5.888 -20.725  0.00  0.00    +0.210 HD
ENDBRANCH  32  33
ENDBRANCH  31  32
ENDBRANCH  25  31
ENDBRANCH  23  24
ENDBRANCH  22  23
ENDBRANCH  21  22
ENDBRANCH   2  21
TORSDOF 9
ENDMDL
