MODEL 1
REMARK VINA RESULT:      -7.3      0.000      0.000
REMARK  Name = 4510
REMARK  8 active torsions:
REMARK  status: ('A' for Active; 'I' for Inactive)
REMARK    1  A    between atoms: C_1  and  O_2
REMARK    2  A    between atoms: C_1  and  C_6
REMARK    3  A    between atoms: C_1  and  C_11
REMARK    4  A    between atoms: O_2  and  N_5
REMARK    5  A    between atoms: C_6  and  O_7
REMARK    6  A    between atoms: O_7  and  N_10
REMARK    7  A    between atoms: C_11  and  O_12
REMARK    8  A    between atoms: O_12  and  N_15
REMARK                            x       y       z     vdW  Elec       q    Type
REMARK                         _______ _______ _______ _____ _____    ______ ____
ROOT
ATOM      1  C   UNL     1      37.466 -25.516 -13.892  0.00  0.00    +0.293 C 
ENDROOT
BRANCH   1   2
ATOM      2  O   UNL     1      37.398 -26.812 -14.492  0.00  0.00    -0.332 OA
BRANCH   2   5
ATOM      3  O   UNL     1      35.606 -26.075 -15.550  0.00  0.00    -0.090 OA
ATOM      4  O   UNL     1      36.847 -27.644 -16.535  0.00  0.00    -0.090 OA
ATOM      5  N   UNL     1      36.553 -26.858 -15.631  0.00  0.00    +0.218 N 
ENDBRANCH   2   5
ENDBRANCH   1   2
BRANCH   1   6
ATOM      6  C   UNL     1      38.612 -24.756 -14.546  0.00  0.00    +0.293 C 
BRANCH   6   7
ATOM      7  O   UNL     1      39.824 -25.073 -13.870  0.00  0.00    -0.332 OA
BRANCH   7  10
ATOM      8  O   UNL     1      40.561 -25.926 -15.774  0.00  0.00    -0.090 OA
ATOM      9  O   UNL     1      41.235 -26.856 -13.862  0.00  0.00    -0.090 OA
ATOM     10  N   UNL     1      40.613 -26.042 -14.549  0.00  0.00    +0.218 N 
ENDBRANCH   7  10
ENDBRANCH   6   7
ENDBRANCH   1   6
BRANCH   1  11
ATOM     11  C   UNL     1      37.690 -25.681 -12.394  0.00  0.00    +0.293 C 
BRANCH  11  12
ATOM     12  O   UNL     1      36.435 -25.731 -11.721  0.00  0.00    -0.332 OA
BRANCH  12  15
ATOM     13  O   UNL     1      35.273 -24.844 -10.061  0.00  0.00    -0.090 OA
ATOM     14  O   UNL     1      37.061 -23.743 -10.811  0.00  0.00    -0.090 OA
ATOM     15  N   UNL     1      36.252 -24.673 -10.788  0.00  0.00    +0.218 N 
ENDBRANCH  12  15
ENDBRANCH  11  12
ENDBRANCH   1  11
TORSDOF 8
ENDMDL
MODEL 2
REMARK VINA RESULT:      -7.2      0.941      5.123
REMARK  Name = 4510
REMARK  8 active torsions:
REMARK  status: ('A' for Active; 'I' for Inactive)
REMARK    1  A    between atoms: C_1  and  O_2
REMARK    2  A    between atoms: C_1  and  C_6
REMARK    3  A    between atoms: C_1  and  C_11
REMARK    4  A    between atoms: O_2  and  N_5
REMARK    5  A    between atoms: C_6  and  O_7
REMARK    6  A    between atoms: O_7  and  N_10
REMARK    7  A    between atoms: C_11  and  O_12
REMARK    8  A    between atoms: O_12  and  N_15
REMARK                            x       y       z     vdW  Elec       q    Type
REMARK                         _______ _______ _______ _____ _____    ______ ____
ROOT
ATOM      1  C   UNL     1      38.310 -25.427 -13.379  0.00  0.00    +0.293 C 
ENDROOT
BRANCH   1   2
ATOM      2  O   UNL     1      39.597 -25.999 -13.139  0.00  0.00    -0.332 OA
BRANCH   2   5
ATOM      3  O   UNL     1      40.998 -26.748 -14.673  0.00  0.00    -0.090 OA
ATOM      4  O   UNL     1      40.769 -24.543 -14.434  0.00  0.00    -0.090 OA
ATOM      5  N   UNL     1      40.533 -25.724 -14.169  0.00  0.00    +0.218 N 
ENDBRANCH   2   5
ENDBRANCH   1   2
BRANCH   1   6
ATOM      6  C   UNL     1      37.907 -24.639 -12.139  0.00  0.00    +0.293 C 
BRANCH   6   7
ATOM      7  O   UNL     1      36.793 -25.278 -11.526  0.00  0.00    -0.332 OA
BRANCH   7  10
ATOM      8  O   UNL     1      36.080 -24.138  -9.769  0.00  0.00    -0.090 OA
ATOM      9  O   UNL     1      34.971 -23.928 -11.693  0.00  0.00    -0.090 OA
ATOM     10  N   UNL     1      35.860 -24.367 -10.959  0.00  0.00    +0.218 N 
ENDBRANCH   7  10
ENDBRANCH   6   7
ENDBRANCH   1   6
BRANCH   1  11
ATOM     11  C   UNL     1      37.321 -26.550 -13.671  0.00  0.00    +0.293 C 
BRANCH  11  12
ATOM     12  O   UNL     1      37.616 -27.136 -14.935  0.00  0.00    -0.332 OA
BRANCH  12  15
ATOM     13  O   UNL     1      36.679 -27.760 -16.839  0.00  0.00    -0.090 OA
ATOM     14  O   UNL     1      35.702 -26.142 -15.656  0.00  0.00    -0.090 OA
ATOM     15  N   UNL     1      36.568 -26.989 -15.885  0.00  0.00    +0.218 N 
ENDBRANCH  12  15
ENDBRANCH  11  12
ENDBRANCH   1  11
TORSDOF 8
ENDMDL
MODEL 3
REMARK VINA RESULT:      -7.2      0.836      3.340
REMARK  Name = 4510
REMARK  8 active torsions:
REMARK  status: ('A' for Active; 'I' for Inactive)
REMARK    1  A    between atoms: C_1  and  O_2
REMARK    2  A    between atoms: C_1  and  C_6
REMARK    3  A    between atoms: C_1  and  C_11
REMARK    4  A    between atoms: O_2  and  N_5
REMARK    5  A    between atoms: C_6  and  O_7
REMARK    6  A    between atoms: O_7  and  N_10
REMARK    7  A    between atoms: C_11  and  O_12
REMARK    8  A    between atoms: O_12  and  N_15
REMARK                            x       y       z     vdW  Elec       q    Type
REMARK                         _______ _______ _______ _____ _____    ______ ____
ROOT
ATOM      1  C   UNL     1      38.652 -25.598 -13.106  0.00  0.00    +0.293 C 
ENDROOT
BRANCH   1   2
ATOM      2  O   UNL     1      39.291 -25.162 -14.307  0.00  0.00    -0.332 OA
BRANCH   2   5
ATOM      3  O   UNL     1      40.621 -25.967 -15.875  0.00  0.00    -0.090 OA
ATOM      4  O   UNL     1      41.042 -26.501 -13.752  0.00  0.00    -0.090 OA
ATOM      5  N   UNL     1      40.418 -25.948 -14.660  0.00  0.00    +0.218 N 
ENDBRANCH   2   5
ENDBRANCH   1   2
BRANCH   1   6
ATOM      6  C   UNL     1      37.422 -26.408 -13.495  0.00  0.00    +0.293 C 
BRANCH   6   7
ATOM      7  O   UNL     1      37.697 -27.119 -14.697  0.00  0.00    -0.332 OA
BRANCH   7  10
ATOM      8  O   UNL     1      36.865 -27.700 -16.663  0.00  0.00    -0.090 OA
ATOM      9  O   UNL     1      35.778 -26.169 -15.460  0.00  0.00    -0.090 OA
ATOM     10  N   UNL     1      36.685 -26.974 -15.685  0.00  0.00    +0.218 N 
ENDBRANCH   7  10
ENDBRANCH   6   7
ENDBRANCH   1   6
BRANCH   1  11
ATOM     11  C   UNL     1      38.276 -24.375 -12.279  0.00  0.00    +0.293 C 
BRANCH  11  12
ATOM     12  O   UNL     1      37.496 -24.772 -11.155  0.00  0.00    -0.332 OA
BRANCH  12  15
ATOM     13  O   UNL     1      35.396 -24.947 -10.482  0.00  0.00    -0.090 OA
ATOM     14  O   UNL     1      35.918 -23.325 -11.920  0.00  0.00    -0.090 OA
ATOM     15  N   UNL     1      36.157 -24.296 -11.199  0.00  0.00    +0.218 N 
ENDBRANCH  12  15
ENDBRANCH  11  12
ENDBRANCH   1  11
TORSDOF 8
ENDMDL
MODEL 4
REMARK VINA RESULT:      -7.1      1.892      5.124
REMARK  Name = 4510
REMARK  8 active torsions:
REMARK  status: ('A' for Active; 'I' for Inactive)
REMARK    1  A    between atoms: C_1  and  O_2
REMARK    2  A    between atoms: C_1  and  C_6
REMARK    3  A    between atoms: C_1  and  C_11
REMARK    4  A    between atoms: O_2  and  N_5
REMARK    5  A    between atoms: C_6  and  O_7
REMARK    6  A    between atoms: O_7  and  N_10
REMARK    7  A    between atoms: C_11  and  O_12
REMARK    8  A    between atoms: O_12  and  N_15
REMARK                            x       y       z     vdW  Elec       q    Type
REMARK                         _______ _______ _______ _____ _____    ______ ____
ROOT
ATOM      1  C   UNL     1      37.750 -24.392 -13.489  0.00  0.00    +0.293 C 
ENDROOT
BRANCH   1   2
ATOM      2  O   UNL     1      38.197 -23.525 -14.534  0.00  0.00    -0.332 OA
BRANCH   2   5
ATOM      3  O   UNL     1      37.412 -22.308 -16.201  0.00  0.00    -0.090 OA
ATOM      4  O   UNL     1      36.376 -24.220 -15.705  0.00  0.00    -0.090 OA
ATOM      5  N   UNL     1      37.239 -23.350 -15.566  0.00  0.00    +0.218 N 
ENDBRANCH   2   5
ENDBRANCH   1   2
BRANCH   1   6
ATOM      6  C   UNL     1      37.473 -23.539 -12.258  0.00  0.00    +0.293 C 
BRANCH   6   7
ATOM      7  O   UNL     1      37.065 -24.387 -11.190  0.00  0.00    -0.332 OA
BRANCH   7  10
ATOM      8  O   UNL     1      35.432 -24.615  -9.715  0.00  0.00    -0.090 OA
ATOM      9  O   UNL     1      34.927 -23.849 -11.747  0.00  0.00    -0.090 OA
ATOM     10  N   UNL     1      35.685 -24.269 -10.869  0.00  0.00    +0.218 N 
ENDBRANCH   7  10
ENDBRANCH   6   7
ENDBRANCH   1   6
BRANCH   1  11
ATOM     11  C   UNL     1      38.832 -25.430 -13.217  0.00  0.00    +0.293 C 
BRANCH  11  12
ATOM     12  O   UNL     1      40.058 -25.015 -13.811  0.00  0.00    -0.332 OA
BRANCH  12  15
ATOM     13  O   UNL     1      40.471 -25.912 -15.791  0.00  0.00    -0.090 OA
ATOM     14  O   UNL     1      41.344 -26.883 -13.983  0.00  0.00    -0.090 OA
ATOM     15  N   UNL     1      40.685 -26.032 -14.583  0.00  0.00    +0.218 N 
ENDBRANCH  12  15
ENDBRANCH  11  12
ENDBRANCH   1  11
TORSDOF 8
ENDMDL
MODEL 5
REMARK VINA RESULT:      -7.0      1.317      4.758
REMARK  Name = 4510
REMARK  8 active torsions:
REMARK  status: ('A' for Active; 'I' for Inactive)
REMARK    1  A    between atoms: C_1  and  O_2
REMARK    2  A    between atoms: C_1  and  C_6
REMARK    3  A    between atoms: C_1  and  C_11
REMARK    4  A    between atoms: O_2  and  N_5
REMARK    5  A    between atoms: C_6  and  O_7
REMARK    6  A    between atoms: O_7  and  N_10
REMARK    7  A    between atoms: C_11  and  O_12
REMARK    8  A    between atoms: O_12  and  N_15
REMARK                            x       y       z     vdW  Elec       q    Type
REMARK                         _______ _______ _______ _____ _____    ______ ____
ROOT
ATOM      1  C   UNL     1      38.164 -25.368 -13.467  0.00  0.00    +0.293 C 
ENDROOT
BRANCH   1   2
ATOM      2  O   UNL     1      39.355 -26.117 -13.215  0.00  0.00    -0.332 OA
BRANCH   2   5
ATOM      3  O   UNL     1      40.618 -24.603 -14.208  0.00  0.00    -0.090 OA
ATOM      4  O   UNL     1      40.974 -26.753 -14.680  0.00  0.00    -0.090 OA
ATOM      5  N   UNL     1      40.409 -25.813 -14.115  0.00  0.00    +0.218 N 
ENDBRANCH   2   5
ENDBRANCH   1   2
BRANCH   1   6
ATOM      6  C   UNL     1      37.673 -24.806 -12.139  0.00  0.00    +0.293 C 
BRANCH   6   7
ATOM      7  O   UNL     1      36.483 -25.488 -11.759  0.00  0.00    -0.332 OA
BRANCH   7  10
ATOM      8  O   UNL     1      35.085 -23.775 -11.796  0.00  0.00    -0.090 OA
ATOM      9  O   UNL     1      35.318 -24.913  -9.893  0.00  0.00    -0.090 OA
ATOM     10  N   UNL     1      35.549 -24.661 -11.079  0.00  0.00    +0.218 N 
ENDBRANCH   7  10
ENDBRANCH   6   7
ENDBRANCH   1   6
BRANCH   1  11
ATOM     11  C   UNL     1      37.130 -26.291 -14.098  0.00  0.00    +0.293 C 
BRANCH  11  12
ATOM     12  O   UNL     1      36.774 -25.806 -15.389  0.00  0.00    -0.332 OA
BRANCH  12  15
ATOM     13  O   UNL     1      36.223 -23.736 -15.942  0.00  0.00    -0.090 OA
ATOM     14  O   UNL     1      34.765 -24.945 -14.764  0.00  0.00    -0.090 OA
ATOM     15  N   UNL     1      35.829 -24.745 -15.354  0.00  0.00    +0.218 N 
ENDBRANCH  12  15
ENDBRANCH  11  12
ENDBRANCH   1  11
TORSDOF 8
ENDMDL
MODEL 6
REMARK VINA RESULT:      -6.9      0.850      4.577
REMARK  Name = 4510
REMARK  8 active torsions:
REMARK  status: ('A' for Active; 'I' for Inactive)
REMARK    1  A    between atoms: C_1  and  O_2
REMARK    2  A    between atoms: C_1  and  C_6
REMARK    3  A    between atoms: C_1  and  C_11
REMARK    4  A    between atoms: O_2  and  N_5
REMARK    5  A    between atoms: C_6  and  O_7
REMARK    6  A    between atoms: O_7  and  N_10
REMARK    7  A    between atoms: C_11  and  O_12
REMARK    8  A    between atoms: O_12  and  N_15
REMARK                            x       y       z     vdW  Elec       q    Type
REMARK                         _______ _______ _______ _____ _____    ______ ____
ROOT
ATOM      1  C   UNL     1      37.565 -25.625 -13.762  0.00  0.00    +0.293 C 
ENDROOT
BRANCH   1   2
ATOM      2  O   UNL     1      36.266 -25.114 -14.068  0.00  0.00    -0.332 OA
BRANCH   2   5
ATOM      3  O   UNL     1      35.143 -24.643 -15.909  0.00  0.00    -0.090 OA
ATOM      4  O   UNL     1      36.059 -26.667 -15.716  0.00  0.00    -0.090 OA
ATOM      5  N   UNL     1      35.788 -25.525 -15.339  0.00  0.00    +0.218 N 
ENDBRANCH   2   5
ENDBRANCH   1   2
BRANCH   1   6
ATOM      6  C   UNL     1      37.720 -25.636 -12.246  0.00  0.00    +0.293 C 
BRANCH   6   7
ATOM      7  O   UNL     1      36.474 -25.293 -11.651  0.00  0.00    -0.332 OA
BRANCH   7  10
ATOM      8  O   UNL     1      37.307 -23.304 -11.160  0.00  0.00    -0.090 OA
ATOM      9  O   UNL     1      35.899 -24.251  -9.714  0.00  0.00    -0.090 OA
ATOM     10  N   UNL     1      36.558 -24.193 -10.755  0.00  0.00    +0.218 N 
ENDBRANCH   7  10
ENDBRANCH   6   7
ENDBRANCH   1   6
BRANCH   1  11
ATOM     11  C   UNL     1      38.611 -24.735 -14.423  0.00  0.00    +0.293 C 
BRANCH  11  12
ATOM     12  O   UNL     1      39.898 -25.020 -13.884  0.00  0.00    -0.332 OA
BRANCH  12  15
ATOM     13  O   UNL     1      41.184 -26.820 -13.869  0.00  0.00    -0.090 OA
ATOM     14  O   UNL     1      40.556 -25.981 -15.837  0.00  0.00    -0.090 OA
ATOM     15  N   UNL     1      40.603 -26.022 -14.606  0.00  0.00    +0.218 N 
ENDBRANCH  12  15
ENDBRANCH  11  12
ENDBRANCH   1  11
TORSDOF 8
ENDMDL
MODEL 7
REMARK VINA RESULT:      -6.9      1.708      2.196
REMARK  Name = 4510
REMARK  8 active torsions:
REMARK  status: ('A' for Active; 'I' for Inactive)
REMARK    1  A    between atoms: C_1  and  O_2
REMARK    2  A    between atoms: C_1  and  C_6
REMARK    3  A    between atoms: C_1  and  C_11
REMARK    4  A    between atoms: O_2  and  N_5
REMARK    5  A    between atoms: C_6  and  O_7
REMARK    6  A    between atoms: O_7  and  N_10
REMARK    7  A    between atoms: C_11  and  O_12
REMARK    8  A    between atoms: O_12  and  N_15
REMARK                            x       y       z     vdW  Elec       q    Type
REMARK                         _______ _______ _______ _____ _____    ______ ____
ROOT
ATOM      1  C   UNL     1      37.524 -24.751 -13.668  0.00  0.00    +0.293 C 
ENDROOT
BRANCH   1   2
ATOM      2  O   UNL     1      37.284 -24.853 -15.073  0.00  0.00    -0.332 OA
BRANCH   2   5
ATOM      3  O   UNL     1      38.084 -22.873 -15.633  0.00  0.00    -0.090 OA
ATOM      4  O   UNL     1      35.992 -23.375 -16.221  0.00  0.00    -0.090 OA
ATOM      5  N   UNL     1      37.088 -23.596 -15.701  0.00  0.00    +0.218 N 
ENDBRANCH   2   5
ENDBRANCH   1   2
BRANCH   1   6
ATOM      6  C   UNL     1      38.487 -25.864 -13.274  0.00  0.00    +0.293 C 
BRANCH   6   7
ATOM      7  O   UNL     1      39.192 -26.298 -14.433  0.00  0.00    -0.332 OA
BRANCH   7  10
ATOM      8  O   UNL     1      40.845 -24.857 -14.727  0.00  0.00    -0.090 OA
ATOM      9  O   UNL     1      41.342 -26.917 -14.031  0.00  0.00    -0.090 OA
ATOM     10  N   UNL     1      40.584 -26.012 -14.388  0.00  0.00    +0.218 N 
ENDBRANCH   7  10
ENDBRANCH   6   7
ENDBRANCH   1   6
BRANCH   1  11
ATOM     11  C   UNL     1      36.195 -24.878 -12.933  0.00  0.00    +0.293 C 
BRANCH  11  12
ATOM     12  O   UNL     1      36.421 -25.335 -11.603  0.00  0.00    -0.332 OA
BRANCH  12  15
ATOM     13  O   UNL     1      36.881 -23.356 -10.728  0.00  0.00    -0.090 OA
ATOM     14  O   UNL     1      35.275 -24.584  -9.787  0.00  0.00    -0.090 OA
ATOM     15  N   UNL     1      36.159 -24.347 -10.614  0.00  0.00    +0.218 N 
ENDBRANCH  12  15
ENDBRANCH  11  12
ENDBRANCH   1  11
TORSDOF 8
ENDMDL
MODEL 8
REMARK VINA RESULT:      -6.8      1.763      4.780
REMARK  Name = 4510
REMARK  8 active torsions:
REMARK  status: ('A' for Active; 'I' for Inactive)
REMARK    1  A    between atoms: C_1  and  O_2
REMARK    2  A    between atoms: C_1  and  C_6
REMARK    3  A    between atoms: C_1  and  C_11
REMARK    4  A    between atoms: O_2  and  N_5
REMARK    5  A    between atoms: C_6  and  O_7
REMARK    6  A    between atoms: O_7  and  N_10
REMARK    7  A    between atoms: C_11  and  O_12
REMARK    8  A    between atoms: O_12  and  N_15
REMARK                            x       y       z     vdW  Elec       q    Type
REMARK                         _______ _______ _______ _____ _____    ______ ____
ROOT
ATOM      1  C   UNL     1      36.938 -24.886 -12.905  0.00  0.00    +0.293 C 
ENDROOT
BRANCH   1   2
ATOM      2  O   UNL     1      36.167 -25.254 -11.759  0.00  0.00    -0.332 OA
BRANCH   2   5
ATOM      3  O   UNL     1      35.397 -24.535  -9.819  0.00  0.00    -0.090 OA
ATOM      4  O   UNL     1      36.886 -23.275 -10.900  0.00  0.00    -0.090 OA
ATOM      5  N   UNL     1      36.160 -24.260 -10.746  0.00  0.00    +0.218 N 
ENDBRANCH   2   5
ENDBRANCH   1   2
BRANCH   1   6
ATOM      6  C   UNL     1      36.075 -25.105 -14.141  0.00  0.00    +0.293 C 
BRANCH   6   7
ATOM      7  O   UNL     1      36.858 -24.851 -15.303  0.00  0.00    -0.332 OA
BRANCH   7  10
ATOM      8  O   UNL     1      35.956 -22.857 -15.626  0.00  0.00    -0.090 OA
ATOM      9  O   UNL     1      38.175 -23.050 -15.741  0.00  0.00    -0.090 OA
ATOM     10  N   UNL     1      37.025 -23.467 -15.581  0.00  0.00    +0.218 N 
ENDBRANCH   7  10
ENDBRANCH   6   7
ENDBRANCH   1   6
BRANCH   1  11
ATOM     11  C   UNL     1      38.197 -25.744 -12.945  0.00  0.00    +0.293 C 
BRANCH  11  12
ATOM     12  O   UNL     1      39.326 -24.932 -13.250  0.00  0.00    -0.332 OA
BRANCH  12  15
ATOM     13  O   UNL     1      39.767 -26.575 -14.663  0.00  0.00    -0.090 OA
ATOM     14  O   UNL     1      41.124 -24.806 -14.636  0.00  0.00    -0.090 OA
ATOM     15  N   UNL     1      40.153 -25.473 -14.271  0.00  0.00    +0.218 N 
ENDBRANCH  12  15
ENDBRANCH  11  12
ENDBRANCH   1  11
TORSDOF 8
ENDMDL
MODEL 9
REMARK VINA RESULT:      -6.7      2.148      4.082
REMARK  Name = 4510
REMARK  8 active torsions:
REMARK  status: ('A' for Active; 'I' for Inactive)
REMARK    1  A    between atoms: C_1  and  O_2
REMARK    2  A    between atoms: C_1  and  C_6
REMARK    3  A    between atoms: C_1  and  C_11
REMARK    4  A    between atoms: O_2  and  N_5
REMARK    5  A    between atoms: C_6  and  O_7
REMARK    6  A    between atoms: O_7  and  N_10
REMARK    7  A    between atoms: C_11  and  O_12
REMARK    8  A    between atoms: O_12  and  N_15
REMARK                            x       y       z     vdW  Elec       q    Type
REMARK                         _______ _______ _______ _____ _____    ______ ____
ROOT
ATOM      1  C   UNL     1      37.471 -24.972 -13.850  0.00  0.00    +0.293 C 
ENDROOT
BRANCH   1   2
ATOM      2  O   UNL     1      37.748 -23.709 -13.241  0.00  0.00    -0.332 OA
BRANCH   2   5
ATOM      3  O   UNL     1      37.643 -24.638 -11.241  0.00  0.00    -0.090 OA
ATOM      4  O   UNL     1      39.235 -23.124 -11.623  0.00  0.00    -0.090 OA
ATOM      5  N   UNL     1      38.265 -23.823 -11.925  0.00  0.00    +0.218 N 
ENDBRANCH   2   5
ENDBRANCH   1   2
BRANCH   1   6
ATOM      6  C   UNL     1      38.524 -25.216 -14.924  0.00  0.00    +0.293 C 
BRANCH   6   7
ATOM      7  O   UNL     1      39.296 -26.357 -14.564  0.00  0.00    -0.332 OA
BRANCH   7  10
ATOM      8  O   UNL     1      40.961 -24.902 -14.638  0.00  0.00    -0.090 OA
ATOM      9  O   UNL     1      41.401 -26.986 -13.980  0.00  0.00    -0.090 OA
ATOM     10  N   UNL     1      40.675 -26.070 -14.373  0.00  0.00    +0.218 N 
ENDBRANCH   7  10
ENDBRANCH   6   7
ENDBRANCH   1   6
BRANCH   1  11
ATOM     11  C   UNL     1      36.068 -24.932 -14.445  0.00  0.00    +0.293 C 
BRANCH  11  12
ATOM     12  O   UNL     1      36.123 -24.437 -15.779  0.00  0.00    -0.332 OA
BRANCH  12  15
ATOM     13  O   UNL     1      35.061 -23.082 -17.169  0.00  0.00    -0.090 OA
ATOM     14  O   UNL     1      35.024 -22.609 -14.990  0.00  0.00    -0.090 OA
ATOM     15  N   UNL     1      35.334 -23.271 -15.983  0.00  0.00    +0.218 N 
ENDBRANCH  12  15
ENDBRANCH  11  12
ENDBRANCH   1  11
TORSDOF 8
ENDMDL
