MODEL 1
REMARK VINA RESULT:      -5.4      0.000      0.000
REMARK  Name = 444397
REMARK  8 active torsions:
REMARK  status: ('A' for Active; 'I' for Inactive)
REMARK    1  A    between atoms: C_1  and  O_2
REMARK    2  A    between atoms: C_1  and  C_4
REMARK    3  A    between atoms: C_1  and  C_8
REMARK    4  A    between atoms: C_4  and  C_5
REMARK    5  A    between atoms: C_5  and  C_6
REMARK    6  A    between atoms: C_8  and  O_9
REMARK    7  A    between atoms: C_8  and  C_11
REMARK    8  A    between atoms: C_11  and  O_12
REMARK                            x       y       z     vdW  Elec       q    Type
REMARK                         _______ _______ _______ _____ _____    ______ ____
ROOT
ATOM      1  C   UNL     1      28.190 -23.119 -16.996  0.00  0.00    +0.140 C 
ENDROOT
BRANCH   1   2
ATOM      2  O   UNL     1      27.531 -24.195 -17.669  0.00  0.00    -0.382 OA
ATOM      3  H   UNL     1      27.808 -25.039 -17.277  0.00  0.00    +0.210 HD
ENDBRANCH   1   2
BRANCH   1   4
ATOM      4  C   UNL     1      28.823 -23.714 -15.730  0.00  0.00    +0.032 C 
BRANCH   4   5
ATOM      5  C   UNL     1      29.753 -22.748 -14.996  0.00  0.00    +0.003 C 
BRANCH   5   6
ATOM      6  C   UNL     1      30.697 -23.498 -14.054  0.00  0.00    +0.000 C 
ATOM      7  C   UNL     1      30.521 -25.003 -14.170  0.00  0.00    +0.000 C 
ENDBRANCH   5   6
ENDBRANCH   4   5
ENDBRANCH   1   4
BRANCH   1   8
ATOM      8  C   UNL     1      27.190 -21.982 -16.731  0.00  0.00    +0.166 C 
BRANCH   8   9
ATOM      9  O   UNL     1      26.309 -22.351 -15.668  0.00  0.00    -0.379 OA
ATOM     10  H   UNL     1      25.943 -21.551 -15.258  0.00  0.00    +0.211 HD
ENDBRANCH   8   9
BRANCH   8  11
ATOM     11  C   UNL     1      26.346 -21.626 -17.954  0.00  0.00    +0.169 C 
BRANCH  11  12
ATOM     12  O   UNL     1      26.031 -20.237 -17.908  0.00  0.00    -0.379 OA
ATOM     13  H   UNL     1      25.420 -20.021 -18.628  0.00  0.00    +0.211 HD
ENDBRANCH  11  12
ENDBRANCH   8  11
ENDBRANCH   1   8
TORSDOF 8
ENDMDL
MODEL 2
REMARK VINA RESULT:      -5.4      9.457      9.892
REMARK  Name = 444397
REMARK  8 active torsions:
REMARK  status: ('A' for Active; 'I' for Inactive)
REMARK    1  A    between atoms: C_1  and  O_2
REMARK    2  A    between atoms: C_1  and  C_4
REMARK    3  A    between atoms: C_1  and  C_8
REMARK    4  A    between atoms: C_4  and  C_5
REMARK    5  A    between atoms: C_5  and  C_6
REMARK    6  A    between atoms: C_8  and  O_9
REMARK    7  A    between atoms: C_8  and  C_11
REMARK    8  A    between atoms: C_11  and  O_12
REMARK                            x       y       z     vdW  Elec       q    Type
REMARK                         _______ _______ _______ _____ _____    ______ ____
ROOT
ATOM      1  C   UNL     1      34.577 -18.343 -21.606  0.00  0.00    +0.140 C 
ENDROOT
BRANCH   1   2
ATOM      2  O   UNL     1      35.279 -17.464 -20.725  0.00  0.00    -0.382 OA
ATOM      3  H   UNL     1      35.309 -16.574 -21.112  0.00  0.00    +0.210 HD
ENDBRANCH   1   2
BRANCH   1   4
ATOM      4  C   UNL     1      34.590 -19.730 -20.946  0.00  0.00    +0.032 C 
BRANCH   4   5
ATOM      5  C   UNL     1      33.202 -20.238 -20.557  0.00  0.00    +0.003 C 
BRANCH   5   6
ATOM      6  C   UNL     1      33.288 -21.298 -19.457  0.00  0.00    +0.000 C 
ATOM      7  C   UNL     1      34.687 -21.885 -19.358  0.00  0.00    +0.000 C 
ENDBRANCH   5   6
ENDBRANCH   4   5
ENDBRANCH   1   4
BRANCH   1   8
ATOM      8  C   UNL     1      35.216 -18.301 -23.004  0.00  0.00    +0.166 C 
BRANCH   8   9
ATOM      9  O   UNL     1      36.640 -18.266 -22.882  0.00  0.00    -0.379 OA
ATOM     10  H   UNL     1      37.017 -19.075 -23.265  0.00  0.00    +0.211 HD
ENDBRANCH   8   9
BRANCH   8  11
ATOM     11  C   UNL     1      34.774 -17.094 -23.831  0.00  0.00    +0.169 C 
BRANCH  11  12
ATOM     12  O   UNL     1      35.562 -15.967 -23.458  0.00  0.00    -0.379 OA
ATOM     13  H   UNL     1      36.365 -15.943 -23.999  0.00  0.00    +0.211 HD
ENDBRANCH  11  12
ENDBRANCH   8  11
ENDBRANCH   1   8
TORSDOF 8
ENDMDL
MODEL 3
REMARK VINA RESULT:      -5.3      9.643     10.157
REMARK  Name = 444397
REMARK  8 active torsions:
REMARK  status: ('A' for Active; 'I' for Inactive)
REMARK    1  A    between atoms: C_1  and  O_2
REMARK    2  A    between atoms: C_1  and  C_4
REMARK    3  A    between atoms: C_1  and  C_8
REMARK    4  A    between atoms: C_4  and  C_5
REMARK    5  A    between atoms: C_5  and  C_6
REMARK    6  A    between atoms: C_8  and  O_9
REMARK    7  A    between atoms: C_8  and  C_11
REMARK    8  A    between atoms: C_11  and  O_12
REMARK                            x       y       z     vdW  Elec       q    Type
REMARK                         _______ _______ _______ _____ _____    ______ ____
ROOT
ATOM      1  C   UNL     1      34.620 -18.036 -21.955  0.00  0.00    +0.140 C 
ENDROOT
BRANCH   1   2
ATOM      2  O   UNL     1      35.364 -17.548 -20.836  0.00  0.00    -0.382 OA
ATOM      3  H   UNL     1      36.248 -17.274 -21.129  0.00  0.00    +0.210 HD
ENDBRANCH   1   2
BRANCH   1   4
ATOM      4  C   UNL     1      34.325 -19.517 -21.675  0.00  0.00    +0.032 C 
BRANCH   4   5
ATOM      5  C   UNL     1      33.146 -19.740 -20.728  0.00  0.00    +0.003 C 
BRANCH   5   6
ATOM      6  C   UNL     1      33.372 -20.968 -19.844  0.00  0.00    +0.000 C 
ATOM      7  C   UNL     1      34.852 -21.271 -19.678  0.00  0.00    +0.000 C 
ENDBRANCH   5   6
ENDBRANCH   4   5
ENDBRANCH   1   4
BRANCH   1   8
ATOM      8  C   UNL     1      35.404 -17.780 -23.253  0.00  0.00    +0.166 C 
BRANCH   8   9
ATOM      9  O   UNL     1      35.681 -16.384 -23.382  0.00  0.00    -0.379 OA
ATOM     10  H   UNL     1      35.001 -15.875 -22.912  0.00  0.00    +0.211 HD
ENDBRANCH   8   9
BRANCH   8  11
ATOM     11  C   UNL     1      34.659 -18.242 -24.505  0.00  0.00    +0.169 C 
BRANCH  11  12
ATOM     12  O   UNL     1      34.791 -17.244 -25.513  0.00  0.00    -0.379 OA
ATOM     13  H   UNL     1      34.489 -16.391 -25.164  0.00  0.00    +0.211 HD
ENDBRANCH  11  12
ENDBRANCH   8  11
ENDBRANCH   1   8
TORSDOF 8
ENDMDL
MODEL 4
REMARK VINA RESULT:      -5.3     10.051     10.667
REMARK  Name = 444397
REMARK  8 active torsions:
REMARK  status: ('A' for Active; 'I' for Inactive)
REMARK    1  A    between atoms: C_1  and  O_2
REMARK    2  A    between atoms: C_1  and  C_4
REMARK    3  A    between atoms: C_1  and  C_8
REMARK    4  A    between atoms: C_4  and  C_5
REMARK    5  A    between atoms: C_5  and  C_6
REMARK    6  A    between atoms: C_8  and  O_9
REMARK    7  A    between atoms: C_8  and  C_11
REMARK    8  A    between atoms: C_11  and  O_12
REMARK                            x       y       z     vdW  Elec       q    Type
REMARK                         _______ _______ _______ _____ _____    ______ ____
ROOT
ATOM      1  C   UNL     1      34.509 -16.825 -21.479  0.00  0.00    +0.140 C 
ENDROOT
BRANCH   1   2
ATOM      2  O   UNL     1      34.965 -15.790 -20.605  0.00  0.00    -0.382 OA
ATOM      3  H   UNL     1      34.409 -15.002 -20.720  0.00  0.00    +0.210 HD
ENDBRANCH   1   2
BRANCH   1   4
ATOM      4  C   UNL     1      35.480 -18.004 -21.307  0.00  0.00    +0.032 C 
BRANCH   4   5
ATOM      5  C   UNL     1      34.898 -19.347 -21.748  0.00  0.00    +0.003 C 
BRANCH   5   6
ATOM      6  C   UNL     1      34.373 -20.141 -20.550  0.00  0.00    +0.000 C 
ATOM      7  C   UNL     1      32.854 -20.110 -20.485  0.00  0.00    +0.000 C 
ENDBRANCH   5   6
ENDBRANCH   4   5
ENDBRANCH   1   4
BRANCH   1   8
ATOM      8  C   UNL     1      34.411 -16.289 -22.916  0.00  0.00    +0.166 C 
BRANCH   8   9
ATOM      9  O   UNL     1      35.720 -16.172 -23.478  0.00  0.00    -0.379 OA
ATOM     10  H   UNL     1      35.655 -15.815 -24.378  0.00  0.00    +0.211 HD
ENDBRANCH   8   9
BRANCH   8  11
ATOM     11  C   UNL     1      33.727 -14.925 -23.003  0.00  0.00    +0.169 C 
BRANCH  11  12
ATOM     12  O   UNL     1      34.716 -13.906 -22.884  0.00  0.00    -0.379 OA
ATOM     13  H   UNL     1      35.583 -14.269 -23.120  0.00  0.00    +0.211 HD
ENDBRANCH  11  12
ENDBRANCH   8  11
ENDBRANCH   1   8
TORSDOF 8
ENDMDL
MODEL 5
REMARK VINA RESULT:      -5.3      8.596     10.701
REMARK  Name = 444397
REMARK  8 active torsions:
REMARK  status: ('A' for Active; 'I' for Inactive)
REMARK    1  A    between atoms: C_1  and  O_2
REMARK    2  A    between atoms: C_1  and  C_4
REMARK    3  A    between atoms: C_1  and  C_8
REMARK    4  A    between atoms: C_4  and  C_5
REMARK    5  A    between atoms: C_5  and  C_6
REMARK    6  A    between atoms: C_8  and  O_9
REMARK    7  A    between atoms: C_8  and  C_11
REMARK    8  A    between atoms: C_11  and  O_12
REMARK                            x       y       z     vdW  Elec       q    Type
REMARK                         _______ _______ _______ _____ _____    ______ ____
ROOT
ATOM      1  C   UNL     1      37.768 -25.981 -14.461  0.00  0.00    +0.140 C 
ENDROOT
BRANCH   1   2
ATOM      2  O   UNL     1      37.522 -26.445 -15.790  0.00  0.00    -0.382 OA
ATOM      3  H   UNL     1      38.277 -26.220 -16.357  0.00  0.00    +0.210 HD
ENDBRANCH   1   2
BRANCH   1   4
ATOM      4  C   UNL     1      36.470 -25.315 -13.980  0.00  0.00    +0.032 C 
BRANCH   4   5
ATOM      5  C   UNL     1      35.453 -25.076 -15.095  0.00  0.00    +0.003 C 
BRANCH   5   6
ATOM      6  C   UNL     1      35.343 -23.588 -15.434  0.00  0.00    +0.000 C 
ATOM      7  C   UNL     1      34.148 -23.308 -16.330  0.00  0.00    +0.000 C 
ENDBRANCH   5   6
ENDBRANCH   4   5
ENDBRANCH   1   4
BRANCH   1   8
ATOM      8  C   UNL     1      38.996 -25.055 -14.451  0.00  0.00    +0.166 C 
BRANCH   8   9
ATOM      9  O   UNL     1      38.864 -24.069 -15.477  0.00  0.00    -0.379 OA
ATOM     10  H   UNL     1      38.274 -24.401 -16.172  0.00  0.00    +0.211 HD
ENDBRANCH   8   9
BRANCH   8  11
ATOM     11  C   UNL     1      40.312 -25.802 -14.666  0.00  0.00    +0.169 C 
BRANCH  11  12
ATOM     12  O   UNL     1      40.509 -25.993 -16.065  0.00  0.00    -0.379 OA
ATOM     13  H   UNL     1      40.446 -26.937 -16.273  0.00  0.00    +0.211 HD
ENDBRANCH  11  12
ENDBRANCH   8  11
ENDBRANCH   1   8
TORSDOF 8
ENDMDL
MODEL 6
REMARK VINA RESULT:      -5.2      9.704     11.019
REMARK  Name = 444397
REMARK  8 active torsions:
REMARK  status: ('A' for Active; 'I' for Inactive)
REMARK    1  A    between atoms: C_1  and  O_2
REMARK    2  A    between atoms: C_1  and  C_4
REMARK    3  A    between atoms: C_1  and  C_8
REMARK    4  A    between atoms: C_4  and  C_5
REMARK    5  A    between atoms: C_5  and  C_6
REMARK    6  A    between atoms: C_8  and  O_9
REMARK    7  A    between atoms: C_8  and  C_11
REMARK    8  A    between atoms: C_11  and  O_12
REMARK                            x       y       z     vdW  Elec       q    Type
REMARK                         _______ _______ _______ _____ _____    ______ ____
ROOT
ATOM      1  C   UNL     1      37.818 -26.111 -14.457  0.00  0.00    +0.140 C 
ENDROOT
BRANCH   1   2
ATOM      2  O   UNL     1      37.481 -26.438 -15.807  0.00  0.00    -0.382 OA
ATOM      3  H   UNL     1      36.855 -25.782 -16.153  0.00  0.00    +0.210 HD
ENDBRANCH   1   2
BRANCH   1   4
ATOM      4  C   UNL     1      36.522 -25.635 -13.784  0.00  0.00    +0.032 C 
BRANCH   4   5
ATOM      5  C   UNL     1      36.679 -25.333 -12.294  0.00  0.00    +0.003 C 
BRANCH   5   6
ATOM      6  C   UNL     1      36.134 -23.944 -11.951  0.00  0.00    +0.000 C 
ATOM      7  C   UNL     1      37.253 -22.923 -11.824  0.00  0.00    +0.000 C 
ENDBRANCH   5   6
ENDBRANCH   4   5
ENDBRANCH   1   4
BRANCH   1   8
ATOM      8  C   UNL     1      38.957 -25.079 -14.439  0.00  0.00    +0.166 C 
BRANCH   8   9
ATOM      9  O   UNL     1      38.744 -24.107 -15.466  0.00  0.00    -0.379 OA
ATOM     10  H   UNL     1      38.595 -23.238 -15.062  0.00  0.00    +0.211 HD
ENDBRANCH   8   9
BRANCH   8  11
ATOM     11  C   UNL     1      40.337 -25.704 -14.646  0.00  0.00    +0.169 C 
BRANCH  11  12
ATOM     12  O   UNL     1      40.502 -26.007 -16.028  0.00  0.00    -0.379 OA
ATOM     13  H   UNL     1      40.448 -26.966 -16.157  0.00  0.00    +0.211 HD
ENDBRANCH  11  12
ENDBRANCH   8  11
ENDBRANCH   1   8
TORSDOF 8
ENDMDL
MODEL 7
REMARK VINA RESULT:      -5.2      9.754     10.250
REMARK  Name = 444397
REMARK  8 active torsions:
REMARK  status: ('A' for Active; 'I' for Inactive)
REMARK    1  A    between atoms: C_1  and  O_2
REMARK    2  A    between atoms: C_1  and  C_4
REMARK    3  A    between atoms: C_1  and  C_8
REMARK    4  A    between atoms: C_4  and  C_5
REMARK    5  A    between atoms: C_5  and  C_6
REMARK    6  A    between atoms: C_8  and  O_9
REMARK    7  A    between atoms: C_8  and  C_11
REMARK    8  A    between atoms: C_11  and  O_12
REMARK                            x       y       z     vdW  Elec       q    Type
REMARK                         _______ _______ _______ _____ _____    ______ ____
ROOT
ATOM      1  C   UNL     1      35.490 -17.827 -21.948  0.00  0.00    +0.140 C 
ENDROOT
BRANCH   1   2
ATOM      2  O   UNL     1      36.596 -18.136 -22.800  0.00  0.00    -0.382 OA
ATOM      3  H   UNL     1      37.277 -18.604 -22.290  0.00  0.00    +0.210 HD
ENDBRANCH   1   2
BRANCH   1   4
ATOM      4  C   UNL     1      34.690 -19.127 -21.779  0.00  0.00    +0.032 C 
BRANCH   4   5
ATOM      5  C   UNL     1      35.245 -20.053 -20.697  0.00  0.00    +0.003 C 
BRANCH   5   6
ATOM      6  C   UNL     1      34.122 -20.821 -19.997  0.00  0.00    +0.000 C 
ATOM      7  C   UNL     1      32.763 -20.202 -20.281  0.00  0.00    +0.000 C 
ENDBRANCH   5   6
ENDBRANCH   4   5
ENDBRANCH   1   4
BRANCH   1   8
ATOM      8  C   UNL     1      34.685 -16.660 -22.543  0.00  0.00    +0.166 C 
BRANCH   8   9
ATOM      9  O   UNL     1      35.518 -15.892 -23.413  0.00  0.00    -0.379 OA
ATOM     10  H   UNL     1      35.803 -16.445 -24.159  0.00  0.00    +0.211 HD
ENDBRANCH   8   9
BRANCH   8  11
ATOM     11  C   UNL     1      34.108 -15.726 -21.479  0.00  0.00    +0.169 C 
BRANCH  11  12
ATOM     12  O   UNL     1      34.959 -15.750 -20.336  0.00  0.00    -0.379 OA
ATOM     13  H   UNL     1      35.560 -14.990 -20.366  0.00  0.00    +0.211 HD
ENDBRANCH  11  12
ENDBRANCH   8  11
ENDBRANCH   1   8
TORSDOF 8
ENDMDL
MODEL 8
REMARK VINA RESULT:      -5.1     11.070     11.756
REMARK  Name = 444397
REMARK  8 active torsions:
REMARK  status: ('A' for Active; 'I' for Inactive)
REMARK    1  A    between atoms: C_1  and  O_2
REMARK    2  A    between atoms: C_1  and  C_4
REMARK    3  A    between atoms: C_1  and  C_8
REMARK    4  A    between atoms: C_4  and  C_5
REMARK    5  A    between atoms: C_5  and  C_6
REMARK    6  A    between atoms: C_8  and  O_9
REMARK    7  A    between atoms: C_8  and  C_11
REMARK    8  A    between atoms: C_11  and  O_12
REMARK                            x       y       z     vdW  Elec       q    Type
REMARK                         _______ _______ _______ _____ _____    ______ ____
ROOT
ATOM      1  C   UNL     1      34.552 -16.739 -22.916  0.00  0.00    +0.140 C 
ENDROOT
BRANCH   1   2
ATOM      2  O   UNL     1      35.531 -15.803 -23.376  0.00  0.00    -0.382 OA
ATOM      3  H   UNL     1      36.420 -16.162 -23.221  0.00  0.00    +0.210 HD
ENDBRANCH   1   2
BRANCH   1   4
ATOM      4  C   UNL     1      34.514 -16.618 -21.386  0.00  0.00    +0.032 C 
BRANCH   4   5
ATOM      5  C   UNL     1      34.429 -15.177 -20.885  0.00  0.00    +0.003 C 
BRANCH   5   6
ATOM      6  C   UNL     1      32.981 -14.776 -20.598  0.00  0.00    +0.000 C 
ATOM      7  C   UNL     1      32.417 -13.898 -21.703  0.00  0.00    +0.000 C 
ENDBRANCH   5   6
ENDBRANCH   4   5
ENDBRANCH   1   4
BRANCH   1   8
ATOM      8  C   UNL     1      34.894 -18.146 -23.433  0.00  0.00    +0.166 C 
BRANCH   8   9
ATOM      9  O   UNL     1      36.302 -18.368 -23.333  0.00  0.00    -0.379 OA
ATOM     10  H   UNL     1      36.746 -17.984 -24.106  0.00  0.00    +0.211 HD
ENDBRANCH   8   9
BRANCH   8  11
ATOM     11  C   UNL     1      34.473 -18.371 -24.885  0.00  0.00    +0.169 C 
BRANCH  11  12
ATOM     12  O   UNL     1      34.709 -17.175 -25.623  0.00  0.00    -0.379 OA
ATOM     13  H   UNL     1      34.525 -16.408 -25.061  0.00  0.00    +0.211 HD
ENDBRANCH  11  12
ENDBRANCH   8  11
ENDBRANCH   1   8
TORSDOF 8
ENDMDL
MODEL 9
REMARK VINA RESULT:      -5.0     10.701     11.342
REMARK  Name = 444397
REMARK  8 active torsions:
REMARK  status: ('A' for Active; 'I' for Inactive)
REMARK    1  A    between atoms: C_1  and  O_2
REMARK    2  A    between atoms: C_1  and  C_4
REMARK    3  A    between atoms: C_1  and  C_8
REMARK    4  A    between atoms: C_4  and  C_5
REMARK    5  A    between atoms: C_5  and  C_6
REMARK    6  A    between atoms: C_8  and  O_9
REMARK    7  A    between atoms: C_8  and  C_11
REMARK    8  A    between atoms: C_11  and  O_12
REMARK                            x       y       z     vdW  Elec       q    Type
REMARK                         _______ _______ _______ _____ _____    ______ ____
ROOT
ATOM      1  C   UNL     1      34.538 -16.870 -23.532  0.00  0.00    +0.140 C 
ENDROOT
BRANCH   1   2
ATOM      2  O   UNL     1      35.760 -16.157 -23.324  0.00  0.00    -0.382 OA
ATOM      3  H   UNL     1      36.152 -15.930 -24.183  0.00  0.00    +0.210 HD
ENDBRANCH   1   2
BRANCH   1   4
ATOM      4  C   UNL     1      34.771 -18.299 -23.018  0.00  0.00    +0.032 C 
BRANCH   4   5
ATOM      5  C   UNL     1      34.868 -18.396 -21.496  0.00  0.00    +0.003 C 
BRANCH   5   6
ATOM      6  C   UNL     1      34.466 -19.787 -21.003  0.00  0.00    +0.000 C 
ATOM      7  C   UNL     1      32.973 -19.871 -20.730  0.00  0.00    +0.000 C 
ENDBRANCH   5   6
ENDBRANCH   4   5
ENDBRANCH   1   4
BRANCH   1   8
ATOM      8  C   UNL     1      34.131 -16.787 -25.012  0.00  0.00    +0.166 C 
BRANCH   8   9
ATOM      9  O   UNL     1      35.277 -16.998 -25.840  0.00  0.00    -0.379 OA
ATOM     10  H   UNL     1      35.680 -16.143 -26.058  0.00  0.00    +0.211 HD
ENDBRANCH   8   9
BRANCH   8  11
ATOM     11  C   UNL     1      33.505 -15.445 -25.388  0.00  0.00    +0.169 C 
BRANCH  11  12
ATOM     12  O   UNL     1      32.766 -15.605 -26.596  0.00  0.00    -0.379 OA
ATOM     13  H   UNL     1      33.295 -15.286 -27.343  0.00  0.00    +0.211 HD
ENDBRANCH  11  12
ENDBRANCH   8  11
ENDBRANCH   1   8
TORSDOF 8
ENDMDL
