MODEL 1
REMARK VINA RESULT:      -7.3      0.000      0.000
REMARK  Name = 5288814
REMARK  5 active torsions:
REMARK  status: ('A' for Active; 'I' for Inactive)
REMARK    1  A    between atoms: N_2  and  S_16
REMARK    2  A    between atoms: C_4  and  C_12
REMARK    3  A    between atoms: N_11  and  O_14
REMARK    4  A    between atoms: S_16  and  C_19
REMARK    5  A    between atoms: C_24  and  O_25
REMARK                            x       y       z     vdW  Elec       q    Type
REMARK                         _______ _______ _______ _____ _____    ______ ____
ROOT
ATOM      1  S   UNL     1      37.532 -24.155 -15.672  0.00  0.00    -0.140 S 
ATOM      2  N   UNL     1      34.745 -23.201 -16.529  0.00  0.00    -0.147 NA
ATOM      3  C   UNL     1      36.005 -24.460 -14.657  0.00  0.00    +0.063 C 
ATOM      4  C   UNL     1      34.705 -24.264 -15.488  0.00  0.00    +0.166 C 
ATOM      5  C   UNL     1      35.166 -21.840 -16.129  0.00  0.00    +0.097 C 
ATOM      6  C   UNL     1      36.617 -21.619 -16.535  0.00  0.00    +0.031 C 
ATOM      7  C   UNL     1      37.649 -22.337 -15.670  0.00  0.00    +0.059 C 
ATOM      8  C   UNL     1      36.060 -23.682 -13.328  0.00  0.00    +0.013 C 
ATOM      9  C   UNL     1      36.102 -25.962 -14.275  0.00  0.00    +0.013 C 
ENDROOT
BRANCH   4  12
ATOM     10  O   UNL     1      32.852 -24.999 -14.184  0.00  0.00    -0.271 OA
ATOM     11  N   UNL     1      33.192 -22.728 -14.451  0.00  0.00    -0.196 N 
ATOM     12  C   UNL     1      33.486 -24.052 -14.645  0.00  0.00    +0.261 C 
ATOM     13  H   UNL     1      33.735 -22.008 -14.844  0.00  0.00    +0.182 HD
BRANCH  11  14
ATOM     14  O   UNL     1      32.067 -22.464 -13.658  0.00  0.00    -0.295 OA
ATOM     15  H   UNL     1      31.273 -22.456 -14.216  0.00  0.00    +0.241 HD
ENDBRANCH  11  14
ENDBRANCH   4  12
BRANCH   2  16
ATOM     16  S   UNL     1      33.615 -23.317 -17.810  0.00  0.00    +0.064 S 
ATOM     17  O   UNL     1      32.322 -22.850 -17.352  0.00  0.00    -0.153 OA
ATOM     18  O   UNL     1      33.752 -24.610 -18.451  0.00  0.00    -0.153 OA
BRANCH  16  19
ATOM     19  C   UNL     1      34.265 -22.097 -18.912  0.00  0.00    +0.122 C 
ATOM     20  C   UNL     1      33.412 -21.151 -19.453  0.00  0.00    +0.023 C 
ATOM     21  C   UNL     1      35.616 -22.110 -19.216  0.00  0.00    +0.023 C 
ATOM     22  C   UNL     1      33.924 -20.189 -20.323  0.00  0.00    +0.038 C 
ATOM     23  C   UNL     1      36.128 -21.149 -20.087  0.00  0.00    +0.038 C 
ATOM     24  C   UNL     1      35.282 -20.187 -20.640  0.00  0.00    +0.139 C 
BRANCH  24  25
ATOM     25  O   UNL     1      35.782 -19.249 -21.490  0.00  0.00    -0.471 OA
ATOM     26  C   UNL     1      35.248 -17.930 -21.387  0.00  0.00    +0.252 C 
ENDBRANCH  24  25
ENDBRANCH  16  19
ENDBRANCH   2  16
TORSDOF 5
ENDMDL
MODEL 2
REMARK VINA RESULT:      -7.0      2.514      3.958
REMARK  Name = 5288814
REMARK  5 active torsions:
REMARK  status: ('A' for Active; 'I' for Inactive)
REMARK    1  A    between atoms: N_2  and  S_16
REMARK    2  A    between atoms: C_4  and  C_12
REMARK    3  A    between atoms: N_11  and  O_14
REMARK    4  A    between atoms: S_16  and  C_19
REMARK    5  A    between atoms: C_24  and  O_25
REMARK                            x       y       z     vdW  Elec       q    Type
REMARK                         _______ _______ _______ _____ _____    ______ ____
ROOT
ATOM      1  S   UNL     1      38.129 -23.001 -12.555  0.00  0.00    -0.140 S 
ATOM      2  N   UNL     1      35.667 -24.393 -13.744  0.00  0.00    -0.147 NA
ATOM      3  C   UNL     1      38.232 -24.596 -13.504  0.00  0.00    +0.063 C 
ATOM      4  C   UNL     1      36.948 -24.859 -14.342  0.00  0.00    +0.166 C 
ATOM      5  C   UNL     1      35.334 -24.824 -12.368  0.00  0.00    +0.097 C 
ATOM      6  C   UNL     1      35.641 -23.694 -11.395  0.00  0.00    +0.031 C 
ATOM      7  C   UNL     1      37.123 -23.468 -11.109  0.00  0.00    +0.059 C 
ATOM      8  C   UNL     1      38.669 -25.756 -12.590  0.00  0.00    +0.013 C 
ATOM      9  C   UNL     1      39.405 -24.368 -14.495  0.00  0.00    +0.013 C 
ENDROOT
BRANCH   4  12
ATOM     10  O   UNL     1      36.647 -27.182 -13.914  0.00  0.00    -0.271 OA
ATOM     11  N   UNL     1      36.795 -26.467 -16.107  0.00  0.00    -0.196 N 
ATOM     12  C   UNL     1      36.785 -26.291 -14.748  0.00  0.00    +0.261 C 
ATOM     13  H   UNL     1      36.909 -25.715 -16.732  0.00  0.00    +0.182 HD
BRANCH  11  14
ATOM     14  O   UNL     1      36.634 -27.786 -16.551  0.00  0.00    -0.295 OA
ATOM     15  H   UNL     1      35.753 -27.890 -16.945  0.00  0.00    +0.241 HD
ENDBRANCH  11  14
ENDBRANCH   4  12
BRANCH   2  16
ATOM     16  S   UNL     1      34.354 -24.131 -14.811  0.00  0.00    +0.064 S 
ATOM     17  O   UNL     1      33.351 -23.323 -14.147  0.00  0.00    -0.153 OA
ATOM     18  O   UNL     1      33.995 -25.385 -15.443  0.00  0.00    -0.153 OA
BRANCH  16  19
ATOM     19  C   UNL     1      35.137 -23.118 -16.029  0.00  0.00    +0.122 C 
ATOM     20  C   UNL     1      34.561 -22.998 -17.282  0.00  0.00    +0.023 C 
ATOM     21  C   UNL     1      36.314 -22.462 -15.710  0.00  0.00    +0.023 C 
ATOM     22  C   UNL     1      35.179 -22.200 -18.244  0.00  0.00    +0.038 C 
ATOM     23  C   UNL     1      36.933 -21.664 -16.671  0.00  0.00    +0.038 C 
ATOM     24  C   UNL     1      36.365 -21.532 -17.939  0.00  0.00    +0.139 C 
BRANCH  24  25
ATOM     25  O   UNL     1      36.969 -20.752 -18.877  0.00  0.00    -0.471 OA
ATOM     26  C   UNL     1      36.287 -20.586 -20.119  0.00  0.00    +0.252 C 
ENDBRANCH  24  25
ENDBRANCH  16  19
ENDBRANCH   2  16
TORSDOF 5
ENDMDL
MODEL 3
REMARK VINA RESULT:      -6.7      3.990      5.779
REMARK  Name = 5288814
REMARK  5 active torsions:
REMARK  status: ('A' for Active; 'I' for Inactive)
REMARK    1  A    between atoms: N_2  and  S_16
REMARK    2  A    between atoms: C_4  and  C_12
REMARK    3  A    between atoms: N_11  and  O_14
REMARK    4  A    between atoms: S_16  and  C_19
REMARK    5  A    between atoms: C_24  and  O_25
REMARK                            x       y       z     vdW  Elec       q    Type
REMARK                         _______ _______ _______ _____ _____    ______ ____
ROOT
ATOM      1  S   UNL     1      34.052 -24.100 -17.484  0.00  0.00    -0.140 S 
ATOM      2  N   UNL     1      31.724 -24.054 -15.486  0.00  0.00    -0.147 NA
ATOM      3  C   UNL     1      34.303 -23.998 -15.645  0.00  0.00    +0.063 C 
ATOM      4  C   UNL     1      33.026 -24.412 -14.859  0.00  0.00    +0.166 C 
ATOM      5  C   UNL     1      31.500 -22.647 -15.888  0.00  0.00    +0.097 C 
ATOM      6  C   UNL     1      31.712 -22.510 -17.390  0.00  0.00    +0.031 C 
ATOM      7  C   UNL     1      33.167 -22.549 -17.846  0.00  0.00    +0.059 C 
ATOM      8  C   UNL     1      34.910 -22.639 -15.243  0.00  0.00    +0.013 C 
ATOM      9  C   UNL     1      35.401 -25.057 -15.356  0.00  0.00    +0.013 C 
ENDROOT
BRANCH   4  12
ATOM     10  O   UNL     1      33.742 -24.432 -12.588  0.00  0.00    -0.271 OA
ATOM     11  N   UNL     1      32.143 -22.893 -13.235  0.00  0.00    -0.196 N 
ATOM     12  C   UNL     1      33.016 -23.929 -13.442  0.00  0.00    +0.261 C 
ATOM     13  H   UNL     1      31.584 -22.527 -13.958  0.00  0.00    +0.182 HD
BRANCH  11  14
ATOM     14  O   UNL     1      32.097 -22.387 -11.929  0.00  0.00    -0.295 OA
ATOM     15  H   UNL     1      32.731 -22.869 -11.373  0.00  0.00    +0.241 HD
ENDBRANCH  11  14
ENDBRANCH   4  12
BRANCH   2  16
ATOM     16  S   UNL     1      30.348 -24.948 -14.999  0.00  0.00    +0.064 S 
ATOM     17  O   UNL     1      30.265 -24.948 -13.552  0.00  0.00    -0.153 OA
ATOM     18  O   UNL     1      30.297 -26.189 -15.745  0.00  0.00    -0.153 OA
BRANCH  16  19
ATOM     19  C   UNL     1      29.061 -23.900 -15.608  0.00  0.00    +0.122 C 
ATOM     20  C   UNL     1      28.578 -22.883 -14.802  0.00  0.00    +0.023 C 
ATOM     21  C   UNL     1      28.559 -24.115 -16.880  0.00  0.00    +0.023 C 
ATOM     22  C   UNL     1      27.563 -22.057 -15.282  0.00  0.00    +0.038 C 
ATOM     23  C   UNL     1      27.542 -23.289 -17.360  0.00  0.00    +0.038 C 
ATOM     24  C   UNL     1      27.044 -22.259 -16.561  0.00  0.00    +0.139 C 
BRANCH  24  25
ATOM     25  O   UNL     1      26.053 -21.453 -17.030  0.00  0.00    -0.471 OA
ATOM     26  C   UNL     1      25.971 -21.279 -18.443  0.00  0.00    +0.252 C 
ENDBRANCH  24  25
ENDBRANCH  16  19
ENDBRANCH   2  16
TORSDOF 5
ENDMDL
MODEL 4
REMARK VINA RESULT:      -6.6      3.854      5.644
REMARK  Name = 5288814
REMARK  5 active torsions:
REMARK  status: ('A' for Active; 'I' for Inactive)
REMARK    1  A    between atoms: N_2  and  S_16
REMARK    2  A    between atoms: C_4  and  C_12
REMARK    3  A    between atoms: N_11  and  O_14
REMARK    4  A    between atoms: S_16  and  C_19
REMARK    5  A    between atoms: C_24  and  O_25
REMARK                            x       y       z     vdW  Elec       q    Type
REMARK                         _______ _______ _______ _____ _____    ______ ____
ROOT
ATOM      1  S   UNL     1      38.127 -23.820 -11.963  0.00  0.00    -0.140 S 
ATOM      2  N   UNL     1      35.886 -23.970 -14.053  0.00  0.00    -0.147 NA
ATOM      3  C   UNL     1      37.932 -25.252 -13.132  0.00  0.00    +0.063 C 
ATOM      4  C   UNL     1      37.014 -24.899 -14.337  0.00  0.00    +0.166 C 
ATOM      5  C   UNL     1      34.967 -24.298 -12.940  0.00  0.00    +0.097 C 
ATOM      6  C   UNL     1      35.330 -23.461 -11.721  0.00  0.00    +0.031 C 
ATOM      7  C   UNL     1      36.592 -23.900 -10.985  0.00  0.00    +0.059 C 
ATOM      8  C   UNL     1      37.555 -26.539 -12.374  0.00  0.00    +0.013 C 
ATOM      9  C   UNL     1      39.365 -25.486 -13.682  0.00  0.00    +0.013 C 
ENDROOT
BRANCH   4  12
ATOM     10  O   UNL     1      35.360 -26.558 -14.767  0.00  0.00    -0.271 OA
ATOM     11  N   UNL     1      37.316 -26.594 -15.998  0.00  0.00    -0.196 N 
ATOM     12  C   UNL     1      36.467 -26.101 -15.042  0.00  0.00    +0.261 C 
ATOM     13  H   UNL     1      38.195 -26.188 -16.178  0.00  0.00    +0.182 HD
BRANCH  11  14
ATOM     14  O   UNL     1      36.855 -27.715 -16.703  0.00  0.00    -0.295 OA
ATOM     15  H   UNL     1      37.610 -28.268 -16.961  0.00  0.00    +0.241 HD
ENDBRANCH  11  14
ENDBRANCH   4  12
BRANCH   2  16
ATOM     16  S   UNL     1      35.221 -23.117 -15.380  0.00  0.00    +0.064 S 
ATOM     17  O   UNL     1      35.743 -23.667 -16.614  0.00  0.00    -0.153 OA
ATOM     18  O   UNL     1      35.291 -21.693 -15.115  0.00  0.00    -0.153 OA
BRANCH  16  19
ATOM     19  C   UNL     1      33.527 -23.606 -15.250  0.00  0.00    +0.122 C 
ATOM     20  C   UNL     1      33.126 -24.381 -14.176  0.00  0.00    +0.023 C 
ATOM     21  C   UNL     1      32.631 -23.206 -16.227  0.00  0.00    +0.023 C 
ATOM     22  C   UNL     1      31.791 -24.767 -14.074  0.00  0.00    +0.038 C 
ATOM     23  C   UNL     1      31.294 -23.593 -16.126  0.00  0.00    +0.038 C 
ATOM     24  C   UNL     1      30.874 -24.374 -15.049  0.00  0.00    +0.139 C 
BRANCH  24  25
ATOM     25  O   UNL     1      29.570 -24.751 -14.950  0.00  0.00    -0.471 OA
ATOM     26  C   UNL     1      28.693 -24.341 -15.998  0.00  0.00    +0.252 C 
ENDBRANCH  24  25
ENDBRANCH  16  19
ENDBRANCH   2  16
TORSDOF 5
ENDMDL
MODEL 5
REMARK VINA RESULT:      -6.5      3.776      5.668
REMARK  Name = 5288814
REMARK  5 active torsions:
REMARK  status: ('A' for Active; 'I' for Inactive)
REMARK    1  A    between atoms: N_2  and  S_16
REMARK    2  A    between atoms: C_4  and  C_12
REMARK    3  A    between atoms: N_11  and  O_14
REMARK    4  A    between atoms: S_16  and  C_19
REMARK    5  A    between atoms: C_24  and  O_25
REMARK                            x       y       z     vdW  Elec       q    Type
REMARK                         _______ _______ _______ _____ _____    ______ ____
ROOT
ATOM      1  S   UNL     1      34.208 -24.511 -17.157  0.00  0.00    -0.140 S 
ATOM      2  N   UNL     1      32.289 -23.978 -14.823  0.00  0.00    -0.147 NA
ATOM      3  C   UNL     1      34.775 -24.402 -15.390  0.00  0.00    +0.063 C 
ATOM      4  C   UNL     1      33.593 -24.551 -14.389  0.00  0.00    +0.166 C 
ATOM      5  C   UNL     1      32.253 -22.567 -15.267  0.00  0.00    +0.097 C 
ATOM      6  C   UNL     1      32.234 -22.516 -16.789  0.00  0.00    +0.031 C 
ATOM      7  C   UNL     1      33.563 -22.835 -17.467  0.00  0.00    +0.059 C 
ATOM      8  C   UNL     1      35.670 -23.167 -15.171  0.00  0.00    +0.013 C 
ATOM      9  C   UNL     1      35.701 -25.636 -15.216  0.00  0.00    +0.013 C 
ENDROOT
BRANCH   4  12
ATOM     10  O   UNL     1      33.388 -23.002 -12.592  0.00  0.00    -0.271 OA
ATOM     11  N   UNL     1      34.785 -24.825 -12.333  0.00  0.00    -0.196 N 
ATOM     12  C   UNL     1      33.904 -24.032 -13.020  0.00  0.00    +0.261 C 
ATOM     13  H   UNL     1      35.170 -25.642 -12.725  0.00  0.00    +0.182 HD
BRANCH  11  14
ATOM     14  O   UNL     1      35.107 -24.398 -11.037  0.00  0.00    -0.295 OA
ATOM     15  H   UNL     1      35.946 -24.802 -10.763  0.00  0.00    +0.241 HD
ENDBRANCH  11  14
ENDBRANCH   4  12
BRANCH   2  16
ATOM     16  S   UNL     1      30.877 -24.589 -14.072  0.00  0.00    +0.064 S 
ATOM     17  O   UNL     1      30.698 -23.940 -12.789  0.00  0.00    -0.153 OA
ATOM     18  O   UNL     1      30.867 -26.035 -14.179  0.00  0.00    -0.153 OA
BRANCH  16  19
ATOM     19  C   UNL     1      29.642 -23.959 -15.168  0.00  0.00    +0.122 C 
ATOM     20  C   UNL     1      29.094 -22.711 -14.925  0.00  0.00    +0.023 C 
ATOM     21  C   UNL     1      29.243 -24.725 -16.250  0.00  0.00    +0.023 C 
ATOM     22  C   UNL     1      28.119 -22.215 -15.789  0.00  0.00    +0.038 C 
ATOM     23  C   UNL     1      28.266 -24.229 -17.115  0.00  0.00    +0.038 C 
ATOM     24  C   UNL     1      27.705 -22.973 -16.884  0.00  0.00    +0.139 C 
BRANCH  24  25
ATOM     25  O   UNL     1      26.752 -22.488 -17.728  0.00  0.00    -0.471 OA
ATOM     26  C   UNL     1      26.124 -21.262 -17.361  0.00  0.00    +0.252 C 
ENDBRANCH  24  25
ENDBRANCH  16  19
ENDBRANCH   2  16
TORSDOF 5
ENDMDL
MODEL 6
REMARK VINA RESULT:      -6.5      2.577      3.915
REMARK  Name = 5288814
REMARK  5 active torsions:
REMARK  status: ('A' for Active; 'I' for Inactive)
REMARK    1  A    between atoms: N_2  and  S_16
REMARK    2  A    between atoms: C_4  and  C_12
REMARK    3  A    between atoms: N_11  and  O_14
REMARK    4  A    between atoms: S_16  and  C_19
REMARK    5  A    between atoms: C_24  and  O_25
REMARK                            x       y       z     vdW  Elec       q    Type
REMARK                         _______ _______ _______ _____ _____    ______ ____
ROOT
ATOM      1  S   UNL     1      37.797 -25.348 -15.020  0.00  0.00    -0.140 S 
ATOM      2  N   UNL     1      35.374 -24.012 -13.694  0.00  0.00    -0.147 NA
ATOM      3  C   UNL     1      37.510 -25.374 -13.183  0.00  0.00    +0.063 C 
ATOM      4  C   UNL     1      36.041 -25.014 -12.818  0.00  0.00    +0.166 C 
ATOM      5  C   UNL     1      36.051 -22.716 -13.925  0.00  0.00    +0.097 C 
ATOM      6  C   UNL     1      36.734 -22.738 -15.286  0.00  0.00    +0.031 C 
ATOM      7  C   UNL     1      38.010 -23.570 -15.358  0.00  0.00    +0.059 C 
ATOM      8  C   UNL     1      38.589 -24.561 -12.442  0.00  0.00    +0.013 C 
ATOM      9  C   UNL     1      37.746 -26.856 -12.787  0.00  0.00    +0.013 C 
ENDROOT
BRANCH   4  12
ATOM     10  O   UNL     1      35.146 -25.205 -10.620  0.00  0.00    -0.271 OA
ATOM     11  N   UNL     1      36.601 -23.469 -11.079  0.00  0.00    -0.196 N 
ATOM     12  C   UNL     1      35.869 -24.584 -11.395  0.00  0.00    +0.261 C 
ATOM     13  H   UNL     1      37.166 -23.009 -11.741  0.00  0.00    +0.182 HD
BRANCH  11  14
ATOM     14  O   UNL     1      36.492 -23.023  -9.755  0.00  0.00    -0.295 OA
ATOM     15  H   UNL     1      36.442 -23.788  -9.159  0.00  0.00    +0.241 HD
ENDBRANCH  11  14
ENDBRANCH   4  12
BRANCH   2  16
ATOM     16  S   UNL     1      33.662 -24.003 -13.711  0.00  0.00    +0.064 S 
ATOM     17  O   UNL     1      33.179 -22.961 -12.828  0.00  0.00    -0.153 OA
ATOM     18  O   UNL     1      33.177 -25.364 -13.587  0.00  0.00    -0.153 OA
BRANCH  16  19
ATOM     19  C   UNL     1      33.368 -23.476 -15.372  0.00  0.00    +0.122 C 
ATOM     20  C   UNL     1      34.410 -23.491 -16.283  0.00  0.00    +0.023 C 
ATOM     21  C   UNL     1      32.098 -23.056 -15.734  0.00  0.00    +0.023 C 
ATOM     22  C   UNL     1      34.178 -23.074 -17.593  0.00  0.00    +0.038 C 
ATOM     23  C   UNL     1      31.866 -22.638 -17.045  0.00  0.00    +0.038 C 
ATOM     24  C   UNL     1      32.906 -22.647 -17.974  0.00  0.00    +0.139 C 
BRANCH  24  25
ATOM     25  O   UNL     1      32.679 -22.240 -19.253  0.00  0.00    -0.471 OA
ATOM     26  C   UNL     1      33.451 -21.141 -19.731  0.00  0.00    +0.252 C 
ENDBRANCH  24  25
ENDBRANCH  16  19
ENDBRANCH   2  16
TORSDOF 5
ENDMDL
MODEL 7
REMARK VINA RESULT:      -6.2      3.595      5.555
REMARK  Name = 5288814
REMARK  5 active torsions:
REMARK  status: ('A' for Active; 'I' for Inactive)
REMARK    1  A    between atoms: N_2  and  S_16
REMARK    2  A    between atoms: C_4  and  C_12
REMARK    3  A    between atoms: N_11  and  O_14
REMARK    4  A    between atoms: S_16  and  C_19
REMARK    5  A    between atoms: C_24  and  O_25
REMARK                            x       y       z     vdW  Elec       q    Type
REMARK                         _______ _______ _______ _____ _____    ______ ____
ROOT
ATOM      1  S   UNL     1      34.553 -24.984 -17.032  0.00  0.00    -0.140 S 
ATOM      2  N   UNL     1      33.145 -23.901 -14.530  0.00  0.00    -0.147 NA
ATOM      3  C   UNL     1      35.396 -24.845 -15.380  0.00  0.00    +0.063 C 
ATOM      4  C   UNL     1      34.375 -24.680 -14.218  0.00  0.00    +0.166 C 
ATOM      5  C   UNL     1      33.296 -22.550 -15.116  0.00  0.00    +0.097 C 
ATOM      6  C   UNL     1      33.052 -22.620 -16.618  0.00  0.00    +0.031 C 
ATOM      7  C   UNL     1      34.181 -23.246 -17.431  0.00  0.00    +0.059 C 
ATOM      8  C   UNL     1      36.522 -23.794 -15.420  0.00  0.00    +0.013 C 
ATOM      9  C   UNL     1      36.099 -26.217 -15.201  0.00  0.00    +0.013 C 
ENDROOT
BRANCH   4  12
ATOM     10  O   UNL     1      35.504 -23.010 -12.950  0.00  0.00    -0.271 OA
ATOM     11  N   UNL     1      34.870 -24.966 -11.895  0.00  0.00    -0.196 N 
ATOM     12  C   UNL     1      34.981 -24.122 -12.968  0.00  0.00    +0.261 C 
ATOM     13  H   UNL     1      34.440 -25.849 -11.965  0.00  0.00    +0.182 HD
BRANCH  11  14
ATOM     14  O   UNL     1      35.409 -24.495 -10.690  0.00  0.00    -0.295 OA
ATOM     15  H   UNL     1      34.893 -24.844  -9.946  0.00  0.00    +0.241 HD
ENDBRANCH  11  14
ENDBRANCH   4  12
BRANCH   2  16
ATOM     16  S   UNL     1      31.779 -24.162 -13.533  0.00  0.00    +0.064 S 
ATOM     17  O   UNL     1      31.675 -23.084 -12.570  0.00  0.00    -0.153 OA
ATOM     18  O   UNL     1      31.761 -25.546 -13.100  0.00  0.00    -0.153 OA
BRANCH  16  19
ATOM     19  C   UNL     1      30.482 -23.951 -14.715  0.00  0.00    +0.122 C 
ATOM     20  C   UNL     1      30.104 -25.022 -15.505  0.00  0.00    +0.023 C 
ATOM     21  C   UNL     1      29.866 -22.715 -14.831  0.00  0.00    +0.023 C 
ATOM     22  C   UNL     1      29.081 -24.856 -16.438  0.00  0.00    +0.038 C 
ATOM     23  C   UNL     1      28.844 -22.547 -15.765  0.00  0.00    +0.038 C 
ATOM     24  C   UNL     1      28.451 -23.618 -16.568  0.00  0.00    +0.139 C 
BRANCH  24  25
ATOM     25  O   UNL     1      27.452 -23.455 -17.479  0.00  0.00    -0.471 OA
ATOM     26  C   UNL     1      26.889 -22.150 -17.599  0.00  0.00    +0.252 C 
ENDBRANCH  24  25
ENDBRANCH  16  19
ENDBRANCH   2  16
TORSDOF 5
ENDMDL
MODEL 8
REMARK VINA RESULT:      -5.9      3.193      4.384
REMARK  Name = 5288814
REMARK  5 active torsions:
REMARK  status: ('A' for Active; 'I' for Inactive)
REMARK    1  A    between atoms: N_2  and  S_16
REMARK    2  A    between atoms: C_4  and  C_12
REMARK    3  A    between atoms: N_11  and  O_14
REMARK    4  A    between atoms: S_16  and  C_19
REMARK    5  A    between atoms: C_24  and  O_25
REMARK                            x       y       z     vdW  Elec       q    Type
REMARK                         _______ _______ _______ _____ _____    ______ ____
ROOT
ATOM      1  S   UNL     1      35.850 -23.698 -12.142  0.00  0.00    -0.140 S 
ATOM      2  N   UNL     1      36.808 -23.554 -15.053  0.00  0.00    -0.147 NA
ATOM      3  C   UNL     1      37.164 -24.821 -12.828  0.00  0.00    +0.063 C 
ATOM      4  C   UNL     1      37.755 -24.278 -14.161  0.00  0.00    +0.166 C 
ATOM      5  C   UNL     1      35.543 -24.224 -15.428  0.00  0.00    +0.097 C 
ATOM      6  C   UNL     1      34.407 -23.673 -14.577  0.00  0.00    +0.031 C 
ATOM      7  C   UNL     1      34.388 -24.154 -13.129  0.00  0.00    +0.059 C 
ATOM      8  C   UNL     1      36.675 -26.281 -12.873  0.00  0.00    +0.013 C 
ATOM      9  C   UNL     1      38.289 -24.780 -11.760  0.00  0.00    +0.013 C 
ENDROOT
BRANCH   4  12
ATOM     10  O   UNL     1      37.870 -26.318 -15.383  0.00  0.00    -0.271 OA
ATOM     11  N   UNL     1      39.780 -25.031 -15.189  0.00  0.00    -0.196 N 
ATOM     12  C   UNL     1      38.459 -25.323 -14.969  0.00  0.00    +0.261 C 
ATOM     13  H   UNL     1      40.203 -24.217 -14.833  0.00  0.00    +0.182 HD
BRANCH  11  14
ATOM     14  O   UNL     1      40.492 -25.967 -15.952  0.00  0.00    -0.295 OA
ATOM     15  H   UNL     1      40.463 -25.711 -16.887  0.00  0.00    +0.241 HD
ENDBRANCH  11  14
ENDBRANCH   4  12
BRANCH   2  16
ATOM     16  S   UNL     1      37.481 -22.475 -16.198  0.00  0.00    +0.064 S 
ATOM     17  O   UNL     1      38.552 -23.141 -16.913  0.00  0.00    -0.153 OA
ATOM     18  O   UNL     1      37.699 -21.187 -15.571  0.00  0.00    -0.153 OA
BRANCH  16  19
ATOM     19  C   UNL     1      36.118 -22.309 -17.312  0.00  0.00    +0.122 C 
ATOM     20  C   UNL     1      36.281 -21.580 -18.477  0.00  0.00    +0.023 C 
ATOM     21  C   UNL     1      34.911 -22.910 -16.998  0.00  0.00    +0.023 C 
ATOM     22  C   UNL     1      35.206 -21.448 -19.355  0.00  0.00    +0.038 C 
ATOM     23  C   UNL     1      33.835 -22.778 -17.876  0.00  0.00    +0.038 C 
ATOM     24  C   UNL     1      33.982 -22.047 -19.055  0.00  0.00    +0.139 C 
BRANCH  24  25
ATOM     25  O   UNL     1      32.933 -21.918 -19.912  0.00  0.00    -0.471 OA
ATOM     26  C   UNL     1      32.730 -20.636 -20.502  0.00  0.00    +0.252 C 
ENDBRANCH  24  25
ENDBRANCH  16  19
ENDBRANCH   2  16
TORSDOF 5
ENDMDL
MODEL 9
REMARK VINA RESULT:      -5.4     12.518     15.906
REMARK  Name = 5288814
REMARK  5 active torsions:
REMARK  status: ('A' for Active; 'I' for Inactive)
REMARK    1  A    between atoms: N_2  and  S_16
REMARK    2  A    between atoms: C_4  and  C_12
REMARK    3  A    between atoms: N_11  and  O_14
REMARK    4  A    between atoms: S_16  and  C_19
REMARK    5  A    between atoms: C_24  and  O_25
REMARK                            x       y       z     vdW  Elec       q    Type
REMARK                         _______ _______ _______ _____ _____    ______ ____
ROOT
ATOM      1  S   UNL     1      32.289 -11.805 -21.442  0.00  0.00    -0.140 S 
ATOM      2  N   UNL     1      33.141  -9.671 -23.475  0.00  0.00    -0.147 NA
ATOM      3  C   UNL     1      33.135 -12.219 -23.045  0.00  0.00    +0.063 C 
ATOM      4  C   UNL     1      33.827 -10.977 -23.676  0.00  0.00    +0.166 C 
ATOM      5  C   UNL     1      31.713  -9.561 -23.851  0.00  0.00    +0.097 C 
ATOM      6  C   UNL     1      30.852  -9.658 -22.599  0.00  0.00    +0.031 C 
ATOM      7  C   UNL     1      30.726 -11.058 -22.005  0.00  0.00    +0.059 C 
ATOM      8  C   UNL     1      32.192 -12.995 -23.985  0.00  0.00    +0.013 C 
ATOM      9  C   UNL     1      34.247 -13.222 -22.634  0.00  0.00    +0.013 C 
ENDROOT
BRANCH   4  12
ATOM     10  O   UNL     1      33.298 -11.630 -25.904  0.00  0.00    -0.271 OA
ATOM     11  N   UNL     1      35.358 -10.668 -25.488  0.00  0.00    -0.196 N 
ATOM     12  C   UNL     1      34.119 -11.136 -25.136  0.00  0.00    +0.261 C 
ATOM     13  H   UNL     1      35.978 -10.281 -24.830  0.00  0.00    +0.182 HD
BRANCH  11  14
ATOM     14  O   UNL     1      35.687 -10.778 -26.847  0.00  0.00    -0.295 OA
ATOM     15  H   UNL     1      36.501 -10.281 -27.023  0.00  0.00    +0.241 HD
ENDBRANCH  11  14
ENDBRANCH   4  12
BRANCH   2  16
ATOM     16  S   UNL     1      34.092  -8.256 -23.626  0.00  0.00    +0.064 S 
ATOM     17  O   UNL     1      34.452  -8.066 -25.016  0.00  0.00    -0.153 OA
ATOM     18  O   UNL     1      35.106  -8.250 -22.590  0.00  0.00    -0.153 OA
BRANCH  16  19
ATOM     19  C   UNL     1      32.891  -7.026 -23.212  0.00  0.00    +0.122 C 
ATOM     20  C   UNL     1      32.301  -6.288 -24.223  0.00  0.00    +0.023 C 
ATOM     21  C   UNL     1      32.563  -6.821 -21.882  0.00  0.00    +0.023 C 
ATOM     22  C   UNL     1      31.356  -5.317 -23.897  0.00  0.00    +0.038 C 
ATOM     23  C   UNL     1      31.617  -5.850 -21.554  0.00  0.00    +0.038 C 
ATOM     24  C   UNL     1      31.013  -5.098 -22.562  0.00  0.00    +0.139 C 
BRANCH  24  25
ATOM     25  O   UNL     1      30.089  -4.150 -22.243  0.00  0.00    -0.471 OA
ATOM     26  C   UNL     1      30.400  -2.800 -22.582  0.00  0.00    +0.252 C 
ENDBRANCH  24  25
ENDBRANCH  16  19
ENDBRANCH   2  16
TORSDOF 5
ENDMDL
