MODEL 1
REMARK VINA RESULT:      -9.1      0.000      0.000
REMARK  Name = 4848
REMARK  2 active torsions:
REMARK  status: ('A' for Active; 'I' for Inactive)
REMARK    1  A    between atoms: C_6  and  C_20
REMARK    2  A    between atoms: C_20  and  N_21
REMARK                            x       y       z     vdW  Elec       q    Type
REMARK                         _______ _______ _______ _____ _____    ______ ____
ROOT
ATOM      1  O   UNL     1      34.098 -24.656 -13.387  0.00  0.00    -0.276 OA
ATOM      2  O   UNL     1      37.483 -20.676 -16.665  0.00  0.00    -0.270 OA
ATOM      3  N   UNL     1      35.197 -23.744 -15.251  0.00  0.00    -0.223 N 
ATOM      4  N   UNL     1      37.953 -22.745 -15.832  0.00  0.00    -0.278 N 
ATOM      5  N   UNL     1      36.232 -25.747 -14.481  0.00  0.00    -0.227 NA
ATOM      6  C   UNL     1      34.146 -23.846 -14.317  0.00  0.00    +0.213 C 
ATOM      7  C   UNL     1      35.019 -23.206 -16.558  0.00  0.00    +0.064 C 
ATOM      8  C   UNL     1      36.387 -24.523 -15.064  0.00  0.00    +0.155 C 
ATOM      9  C   UNL     1      35.932 -22.338 -17.159  0.00  0.00    +0.068 C 
ATOM     10  C   UNL     1      37.661 -24.037 -15.366  0.00  0.00    +0.083 C 
ATOM     11  C   UNL     1      33.877 -23.580 -17.296  0.00  0.00    +0.015 C 
ATOM     12  C   UNL     1      37.151 -21.849 -16.496  0.00  0.00    +0.251 C 
ATOM     13  C   UNL     1      35.686 -21.833 -18.449  0.00  0.00    +0.006 C 
ATOM     14  C   UNL     1      38.772 -24.836 -15.049  0.00  0.00    +0.019 C 
ATOM     15  C   UNL     1      33.640 -23.086 -18.578  0.00  0.00    +0.001 C 
ATOM     16  C   UNL     1      34.545 -22.206 -19.154  0.00  0.00    +0.000 C 
ATOM     17  C   UNL     1      38.609 -26.090 -14.484  0.00  0.00    +0.022 C 
ATOM     18  C   UNL     1      37.322 -26.497 -14.219  0.00  0.00    +0.100 C 
ATOM     19  H   UNL     1      38.870 -22.434 -15.655  0.00  0.00    +0.155 HD
ENDROOT
BRANCH   6  20
ATOM     20  C   UNL     1      33.049 -22.802 -14.411  0.00  0.00    +0.011 C 
BRANCH  20  21
ATOM     21  N   UNL     1      31.910 -23.456 -15.053  0.00  0.00    +0.390 N 
ATOM     22  N   UNL     1      29.086 -23.781 -15.576  0.00  0.00    +0.383 N 
ATOM     23  C   UNL     1      31.012 -24.042 -14.050  0.00  0.00    -0.100 C 
ATOM     24  C   UNL     1      31.179 -22.511 -15.905  0.00  0.00    -0.100 C 
ATOM     25  C   UNL     1      29.817 -24.726 -14.722  0.00  0.00    -0.101 C 
ATOM     26  C   UNL     1      29.985 -23.195 -16.578  0.00  0.00    -0.101 C 
ATOM     27  C   UNL     1      27.948 -24.436 -16.219  0.00  0.00    -0.101 C 
ATOM     28  H   UNL     1      32.269 -24.208 -15.641  0.00  0.00    -0.079 HD
ATOM     29  H   UNL     1      28.725 -23.029 -14.988  0.00  0.00    -0.080 HD
ENDBRANCH  20  21
ENDBRANCH   6  20
TORSDOF 2
ENDMDL
MODEL 2
REMARK VINA RESULT:      -8.9     14.514     17.150
REMARK  Name = 4848
REMARK  2 active torsions:
REMARK  status: ('A' for Active; 'I' for Inactive)
REMARK    1  A    between atoms: C_6  and  C_20
REMARK    2  A    between atoms: C_20  and  N_21
REMARK                            x       y       z     vdW  Elec       q    Type
REMARK                         _______ _______ _______ _____ _____    ______ ____
ROOT
ATOM      1  O   UNL     1      33.323  -8.699 -25.160  0.00  0.00    -0.276 OA
ATOM      2  O   UNL     1      33.289  -7.398 -19.131  0.00  0.00    -0.270 OA
ATOM      3  N   UNL     1      32.484  -8.497 -22.976  0.00  0.00    -0.223 N 
ATOM      4  N   UNL     1      32.369  -6.329 -20.921  0.00  0.00    -0.278 N 
ATOM      5  N   UNL     1      31.484  -6.941 -24.477  0.00  0.00    -0.227 NA
ATOM      6  C   UNL     1      33.224  -9.117 -24.003  0.00  0.00    +0.213 C 
ATOM      7  C   UNL     1      31.964  -9.211 -21.858  0.00  0.00    +0.064 C 
ATOM      8  C   UNL     1      31.901  -7.206 -23.205  0.00  0.00    +0.155 C 
ATOM      9  C   UNL     1      32.012  -8.726 -20.551  0.00  0.00    +0.068 C 
ATOM     10  C   UNL     1      31.841  -6.220 -22.218  0.00  0.00    +0.083 C 
ATOM     11  C   UNL     1      31.351 -10.462 -22.079  0.00  0.00    +0.015 C 
ATOM     12  C   UNL     1      32.641  -7.450 -20.176  0.00  0.00    +0.251 C 
ATOM     13  C   UNL     1      31.491  -9.492 -19.492  0.00  0.00    +0.006 C 
ATOM     14  C   UNL     1      31.347  -4.953 -22.570  0.00  0.00    +0.019 C 
ATOM     15  C   UNL     1      30.827 -11.214 -21.029  0.00  0.00    +0.001 C 
ATOM     16  C   UNL     1      30.901 -10.730 -19.731  0.00  0.00    +0.000 C 
ATOM     17  C   UNL     1      30.897  -4.696 -23.855  0.00  0.00    +0.022 C 
ATOM     18  C   UNL     1      30.987  -5.720 -24.768  0.00  0.00    +0.100 C 
ATOM     19  H   UNL     1      32.576  -5.473 -20.481  0.00  0.00    +0.155 HD
ENDROOT
BRANCH   6  20
ATOM     20  C   UNL     1      34.043 -10.332 -23.612  0.00  0.00    +0.011 C 
BRANCH  20  21
ATOM     21  N   UNL     1      33.451 -11.472 -24.311  0.00  0.00    +0.390 N 
ATOM     22  N   UNL     1      33.583 -14.067 -25.578  0.00  0.00    +0.383 N 
ATOM     23  C   UNL     1      34.059 -11.643 -25.636  0.00  0.00    -0.100 C 
ATOM     24  C   UNL     1      33.595 -12.700 -23.520  0.00  0.00    -0.100 C 
ATOM     25  C   UNL     1      33.442 -12.838 -26.369  0.00  0.00    -0.101 C 
ATOM     26  C   UNL     1      32.976 -13.895 -24.252  0.00  0.00    -0.101 C 
ATOM     27  C   UNL     1      32.989 -15.206 -26.276  0.00  0.00    -0.101 C 
ATOM     28  H   UNL     1      32.457 -11.283 -24.435  0.00  0.00    -0.079 HD
ATOM     29  H   UNL     1      34.577 -14.257 -25.454  0.00  0.00    -0.080 HD
ENDBRANCH  20  21
ENDBRANCH   6  20
TORSDOF 2
ENDMDL
MODEL 3
REMARK VINA RESULT:      -8.1     10.546     13.215
REMARK  Name = 4848
REMARK  2 active torsions:
REMARK  status: ('A' for Active; 'I' for Inactive)
REMARK    1  A    between atoms: C_6  and  C_20
REMARK    2  A    between atoms: C_20  and  N_21
REMARK                            x       y       z     vdW  Elec       q    Type
REMARK                         _______ _______ _______ _____ _____    ______ ____
ROOT
ATOM      1  O   UNL     1      34.270 -15.719 -23.580  0.00  0.00    -0.276 OA
ATOM      2  O   UNL     1      34.741  -9.569 -23.601  0.00  0.00    -0.270 OA
ATOM      3  N   UNL     1      33.571 -13.476 -23.568  0.00  0.00    -0.223 N 
ATOM      4  N   UNL     1      34.137 -11.052 -25.223  0.00  0.00    -0.278 N 
ATOM      5  N   UNL     1      33.040 -14.580 -25.612  0.00  0.00    -0.227 NA
ATOM      6  C   UNL     1      34.077 -14.655 -22.984  0.00  0.00    +0.213 C 
ATOM      7  C   UNL     1      32.888 -12.474 -22.822  0.00  0.00    +0.064 C 
ATOM      8  C   UNL     1      33.387 -13.415 -24.990  0.00  0.00    +0.155 C 
ATOM      9  C   UNL     1      33.103 -11.107 -23.001  0.00  0.00    +0.068 C 
ATOM     10  C   UNL     1      33.638 -12.261 -25.734  0.00  0.00    +0.083 C 
ATOM     11  C   UNL     1      31.932 -12.875 -21.866  0.00  0.00    +0.015 C 
ATOM     12  C   UNL     1      34.085 -10.552 -23.945  0.00  0.00    +0.251 C 
ATOM     13  C   UNL     1      32.402 -10.171 -22.218  0.00  0.00    +0.006 C 
ATOM     14  C   UNL     1      33.530 -12.332 -27.133  0.00  0.00    +0.019 C 
ATOM     15  C   UNL     1      31.232 -11.945 -21.098  0.00  0.00    +0.001 C 
ATOM     16  C   UNL     1      31.471 -10.590 -21.271  0.00  0.00    +0.000 C 
ATOM     17  C   UNL     1      33.148 -13.508 -27.758  0.00  0.00    +0.022 C 
ATOM     18  C   UNL     1      32.916 -14.600 -26.955  0.00  0.00    +0.100 C 
ATOM     19  H   UNL     1      34.595 -10.478 -25.879  0.00  0.00    +0.155 HD
ENDROOT
BRANCH   6  20
ATOM     20  C   UNL     1      34.512 -14.562 -21.533  0.00  0.00    +0.011 C 
BRANCH  20  21
ATOM     21  N   UNL     1      34.365 -15.903 -20.970  0.00  0.00    +0.390 N 
ATOM     22  N   UNL     1      33.843 -18.739 -21.175  0.00  0.00    +0.383 N 
ATOM     23  C   UNL     1      33.006 -16.414 -21.188  0.00  0.00    -0.100 C 
ATOM     24  C   UNL     1      35.355 -16.820 -21.547  0.00  0.00    -0.100 C 
ATOM     25  C   UNL     1      32.852 -17.820 -20.600  0.00  0.00    -0.101 C 
ATOM     26  C   UNL     1      35.202 -18.226 -20.958  0.00  0.00    -0.101 C 
ATOM     27  C   UNL     1      33.698 -20.079 -20.610  0.00  0.00    -0.101 C 
ATOM     28  H   UNL     1      34.529 -15.842 -19.966  0.00  0.00    -0.079 HD
ATOM     29  H   UNL     1      33.679 -18.801 -22.180  0.00  0.00    -0.080 HD
ENDBRANCH  20  21
ENDBRANCH   6  20
TORSDOF 2
ENDMDL
MODEL 4
REMARK VINA RESULT:      -7.6      2.253      6.060
REMARK  Name = 4848
REMARK  2 active torsions:
REMARK  status: ('A' for Active; 'I' for Inactive)
REMARK    1  A    between atoms: C_6  and  C_20
REMARK    2  A    between atoms: C_20  and  N_21
REMARK                            x       y       z     vdW  Elec       q    Type
REMARK                         _______ _______ _______ _____ _____    ______ ____
ROOT
ATOM      1  O   UNL     1      33.246 -22.907 -17.367  0.00  0.00    -0.276 OA
ATOM      2  O   UNL     1      35.935 -23.187 -11.824  0.00  0.00    -0.270 OA
ATOM      3  N   UNL     1      34.150 -23.872 -15.427  0.00  0.00    -0.223 N 
ATOM      4  N   UNL     1      33.778 -23.506 -12.484  0.00  0.00    -0.278 N 
ATOM      5  N   UNL     1      31.786 -24.141 -15.555  0.00  0.00    -0.227 NA
ATOM      6  C   UNL     1      34.218 -23.263 -16.696  0.00  0.00    +0.213 C 
ATOM      7  C   UNL     1      35.178 -24.716 -14.917  0.00  0.00    +0.064 C 
ATOM      8  C   UNL     1      32.883 -23.976 -14.760  0.00  0.00    +0.155 C 
ATOM      9  C   UNL     1      35.631 -24.659 -13.599  0.00  0.00    +0.068 C 
ATOM     10  C   UNL     1      32.743 -23.823 -13.379  0.00  0.00    +0.083 C 
ATOM     11  C   UNL     1      35.757 -25.673 -15.777  0.00  0.00    +0.015 C 
ATOM     12  C   UNL     1      35.132 -23.697 -12.605  0.00  0.00    +0.251 C 
ATOM     13  C   UNL     1      36.662 -25.515 -13.167  0.00  0.00    +0.006 C 
ATOM     14  C   UNL     1      31.449 -23.837 -12.835  0.00  0.00    +0.019 C 
ATOM     15  C   UNL     1      36.771 -26.526 -15.343  0.00  0.00    +0.001 C 
ATOM     16  C   UNL     1      37.228 -26.443 -14.036  0.00  0.00    +0.000 C 
ATOM     17  C   UNL     1      30.339 -24.035 -13.641  0.00  0.00    +0.022 C 
ATOM     18  C   UNL     1      30.561 -24.180 -14.990  0.00  0.00    +0.100 C 
ATOM     19  H   UNL     1      33.488 -23.084 -11.643  0.00  0.00    +0.155 HD
ENDROOT
BRANCH   6  20
ATOM     20  C   UNL     1      35.604 -22.932 -17.217  0.00  0.00    +0.011 C 
BRANCH  20  21
ATOM     21  N   UNL     1      35.444 -21.799 -18.127  0.00  0.00    +0.390 N 
ATOM     22  N   UNL     1      35.531 -20.561 -20.738  0.00  0.00    +0.383 N 
ATOM     23  C   UNL     1      36.721 -21.460 -18.768  0.00  0.00    -0.100 C 
ATOM     24  C   UNL     1      34.423 -22.087 -19.142  0.00  0.00    -0.100 C 
ATOM     25  C   UNL     1      36.553 -20.275 -19.724  0.00  0.00    -0.101 C 
ATOM     26  C   UNL     1      34.254 -20.902 -20.097  0.00  0.00    -0.101 C 
ATOM     27  C   UNL     1      35.369 -19.428 -21.648  0.00  0.00    -0.101 C 
ATOM     28  H   UNL     1      35.135 -20.997 -17.580  0.00  0.00    -0.079 HD
ATOM     29  H   UNL     1      35.839 -21.364 -21.287  0.00  0.00    -0.080 HD
ENDBRANCH  20  21
ENDBRANCH   6  20
TORSDOF 2
ENDMDL
MODEL 5
REMARK VINA RESULT:      -7.2      2.004      6.110
REMARK  Name = 4848
REMARK  2 active torsions:
REMARK  status: ('A' for Active; 'I' for Inactive)
REMARK    1  A    between atoms: C_6  and  C_20
REMARK    2  A    between atoms: C_20  and  N_21
REMARK                            x       y       z     vdW  Elec       q    Type
REMARK                         _______ _______ _______ _____ _____    ______ ____
ROOT
ATOM      1  O   UNL     1      33.698 -25.152 -13.800  0.00  0.00    -0.276 OA
ATOM      2  O   UNL     1      33.821 -23.551 -19.756  0.00  0.00    -0.270 OA
ATOM      3  N   UNL     1      33.964 -23.777 -15.685  0.00  0.00    -0.223 N 
ATOM      4  N   UNL     1      32.325 -23.110 -18.094  0.00  0.00    -0.278 N 
ATOM      5  N   UNL     1      32.057 -23.177 -14.389  0.00  0.00    -0.227 NA
ATOM      6  C   UNL     1      34.366 -24.764 -14.763  0.00  0.00    +0.213 C 
ATOM      7  C   UNL     1      34.890 -22.996 -16.435  0.00  0.00    +0.064 C 
ATOM      8  C   UNL     1      32.628 -23.257 -15.627  0.00  0.00    +0.155 C 
ATOM      9  C   UNL     1      34.722 -22.699 -17.788  0.00  0.00    +0.068 C 
ATOM     10  C   UNL     1      31.894 -22.932 -16.770  0.00  0.00    +0.083 C 
ATOM     11  C   UNL     1      36.025 -22.476 -15.778  0.00  0.00    +0.015 C 
ATOM     12  C   UNL     1      33.600 -23.195 -18.599  0.00  0.00    +0.251 C 
ATOM     13  C   UNL     1      35.685 -21.933 -18.470  0.00  0.00    +0.006 C 
ATOM     14  C   UNL     1      30.558 -22.530 -16.612  0.00  0.00    +0.019 C 
ATOM     15  C   UNL     1      36.973 -21.708 -16.454  0.00  0.00    +0.001 C 
ATOM     16  C   UNL     1      36.805 -21.440 -17.805  0.00  0.00    +0.000 C 
ATOM     17  C   UNL     1      29.990 -22.422 -15.353  0.00  0.00    +0.022 C 
ATOM     18  C   UNL     1      30.779 -22.757 -14.278  0.00  0.00    +0.100 C 
ATOM     19  H   UNL     1      31.605 -23.186 -18.761  0.00  0.00    +0.155 HD
ENDROOT
BRANCH   6  20
ATOM     20  C   UNL     1      35.678 -25.469 -15.051  0.00  0.00    +0.011 C 
BRANCH  20  21
ATOM     21  N   UNL     1      36.722 -24.685 -14.395  0.00  0.00    +0.390 N 
ATOM     22  N   UNL     1      38.692 -24.238 -12.326  0.00  0.00    +0.383 N 
ATOM     23  C   UNL     1      36.324 -24.327 -13.028  0.00  0.00    -0.100 C 
ATOM     24  C   UNL     1      37.993 -25.418 -14.381  0.00  0.00    -0.100 C 
ATOM     25  C   UNL     1      37.418 -23.507 -12.338  0.00  0.00    -0.101 C 
ATOM     26  C   UNL     1      39.089 -24.597 -13.693  0.00  0.00    -0.101 C 
ATOM     27  C   UNL     1      39.736 -23.453 -11.671  0.00  0.00    -0.101 C 
ATOM     28  H   UNL     1      36.852 -23.826 -14.927  0.00  0.00    -0.079 HD
ATOM     29  H   UNL     1      38.563 -25.098 -11.792  0.00  0.00    -0.080 HD
ENDBRANCH  20  21
ENDBRANCH   6  20
TORSDOF 2
ENDMDL
MODEL 6
REMARK VINA RESULT:      -6.9     15.533     17.810
REMARK  Name = 4848
REMARK  2 active torsions:
REMARK  status: ('A' for Active; 'I' for Inactive)
REMARK    1  A    between atoms: C_6  and  C_20
REMARK    2  A    between atoms: C_20  and  N_21
REMARK                            x       y       z     vdW  Elec       q    Type
REMARK                         _______ _______ _______ _____ _____    ______ ____
ROOT
ATOM      1  O   UNL     1      31.963  -8.243 -25.190  0.00  0.00    -0.276 OA
ATOM      2  O   UNL     1      29.994 -11.551 -20.371  0.00  0.00    -0.270 OA
ATOM      3  N   UNL     1      32.010  -9.250 -23.069  0.00  0.00    -0.223 N 
ATOM      4  N   UNL     1      31.529 -11.998 -21.995  0.00  0.00    -0.278 N 
ATOM      5  N   UNL     1      33.547 -10.258 -24.584  0.00  0.00    -0.227 NA
ATOM      6  C   UNL     1      31.635  -8.260 -24.000  0.00  0.00    +0.213 C 
ATOM      7  C   UNL     1      32.075  -9.008 -21.667  0.00  0.00    +0.064 C 
ATOM      8  C   UNL     1      32.705 -10.421 -23.523  0.00  0.00    +0.155 C 
ATOM      9  C   UNL     1      31.607  -9.911 -20.712  0.00  0.00    +0.068 C 
ATOM     10  C   UNL     1      32.475 -11.689 -22.986  0.00  0.00    +0.083 C 
ATOM     11  C   UNL     1      32.658  -7.806 -21.213  0.00  0.00    +0.015 C 
ATOM     12  C   UNL     1      30.957 -11.188 -21.045  0.00  0.00    +0.251 C 
ATOM     13  C   UNL     1      31.691  -9.599 -19.342  0.00  0.00    +0.006 C 
ATOM     14  C   UNL     1      33.128 -12.788 -23.569  0.00  0.00    +0.019 C 
ATOM     15  C   UNL     1      32.748  -7.504 -19.855  0.00  0.00    +0.001 C 
ATOM     16  C   UNL     1      32.259  -8.402 -18.917  0.00  0.00    +0.000 C 
ATOM     17  C   UNL     1      34.005 -12.615 -24.627  0.00  0.00    +0.022 C 
ATOM     18  C   UNL     1      34.179 -11.335 -25.097  0.00  0.00    +0.100 C 
ATOM     19  H   UNL     1      31.230 -12.936 -21.981  0.00  0.00    +0.155 HD
ENDROOT
BRANCH   6  20
ATOM     20  C   UNL     1      30.668  -7.199 -23.511  0.00  0.00    +0.011 C 
BRANCH  20  21
ATOM     21  N   UNL     1      31.344  -5.914 -23.679  0.00  0.00    +0.390 N 
ATOM     22  N   UNL     1      31.380  -3.071 -24.203  0.00  0.00    +0.383 N 
ATOM     23  C   UNL     1      31.133  -5.386 -25.032  0.00  0.00    -0.100 C 
ATOM     24  C   UNL     1      30.882  -4.948 -22.675  0.00  0.00    -0.100 C 
ATOM     25  C   UNL     1      31.840  -4.038 -25.208  0.00  0.00    -0.101 C 
ATOM     26  C   UNL     1      31.590  -3.601 -22.849  0.00  0.00    -0.101 C 
ATOM     27  C   UNL     1      32.058  -1.787 -24.369  0.00  0.00    -0.101 C 
ATOM     28  H   UNL     1      32.343  -6.065 -23.544  0.00  0.00    -0.079 HD
ATOM     29  H   UNL     1      30.380  -2.919 -24.337  0.00  0.00    -0.080 HD
ENDBRANCH  20  21
ENDBRANCH   6  20
TORSDOF 2
ENDMDL
MODEL 7
REMARK VINA RESULT:      -6.8      8.802     11.824
REMARK  Name = 4848
REMARK  2 active torsions:
REMARK  status: ('A' for Active; 'I' for Inactive)
REMARK    1  A    between atoms: C_6  and  C_20
REMARK    2  A    between atoms: C_20  and  N_21
REMARK                            x       y       z     vdW  Elec       q    Type
REMARK                         _______ _______ _______ _____ _____    ______ ____
ROOT
ATOM      1  O   UNL     1      34.960 -17.557 -24.437  0.00  0.00    -0.276 OA
ATOM      2  O   UNL     1      34.449 -11.634 -22.795  0.00  0.00    -0.270 OA
ATOM      3  N   UNL     1      33.949 -15.593 -23.639  0.00  0.00    -0.223 N 
ATOM      4  N   UNL     1      33.683 -12.779 -24.610  0.00  0.00    -0.278 N 
ATOM      5  N   UNL     1      33.083 -16.262 -25.756  0.00  0.00    -0.227 NA
ATOM      6  C   UNL     1      34.765 -16.738 -23.535  0.00  0.00    +0.213 C 
ATOM      7  C   UNL     1      33.336 -14.975 -22.512  0.00  0.00    +0.064 C 
ATOM      8  C   UNL     1      33.395 -15.234 -24.914  0.00  0.00    +0.155 C 
ATOM      9  C   UNL     1      33.281 -13.592 -22.333  0.00  0.00    +0.068 C 
ATOM     10  C   UNL     1      33.263 -13.908 -25.331  0.00  0.00    +0.083 C 
ATOM     11  C   UNL     1      32.734 -15.794 -21.534  0.00  0.00    +0.015 C 
ATOM     12  C   UNL     1      33.887 -12.625 -23.261  0.00  0.00    +0.251 C 
ATOM     13  C   UNL     1      32.671 -13.050 -21.187  0.00  0.00    +0.006 C 
ATOM     14  C   UNL     1      32.807 -13.663 -26.637  0.00  0.00    +0.019 C 
ATOM     15  C   UNL     1      32.122 -15.253 -20.404  0.00  0.00    +0.001 C 
ATOM     16  C   UNL     1      32.094 -13.878 -20.228  0.00  0.00    +0.000 C 
ATOM     17  C   UNL     1      32.464 -14.708 -27.479  0.00  0.00    +0.022 C 
ATOM     18  C   UNL     1      32.620 -15.984 -26.993  0.00  0.00    +0.100 C 
ATOM     19  H   UNL     1      33.860 -11.978 -25.155  0.00  0.00    +0.155 HD
ENDROOT
BRANCH   6  20
ATOM     20  C   UNL     1      35.541 -16.903 -22.242  0.00  0.00    +0.011 C 
BRANCH  20  21
ATOM     21  N   UNL     1      35.413 -18.308 -21.859  0.00  0.00    +0.390 N 
ATOM     22  N   UNL     1      35.099 -20.431 -19.921  0.00  0.00    +0.383 N 
ATOM     23  C   UNL     1      36.522 -18.714 -20.988  0.00  0.00    -0.100 C 
ATOM     24  C   UNL     1      34.126 -18.550 -21.195  0.00  0.00    -0.100 C 
ATOM     25  C   UNL     1      36.387 -20.186 -20.583  0.00  0.00    -0.101 C 
ATOM     26  C   UNL     1      33.990 -20.022 -20.793  0.00  0.00    -0.101 C 
ATOM     27  C   UNL     1      34.970 -21.836 -19.540  0.00  0.00    -0.101 C 
ATOM     28  H   UNL     1      35.447 -18.870 -22.708  0.00  0.00    -0.079 HD
ATOM     29  H   UNL     1      35.064 -19.869 -19.070  0.00  0.00    -0.080 HD
ENDBRANCH  20  21
ENDBRANCH   6  20
TORSDOF 2
ENDMDL
MODEL 8
REMARK VINA RESULT:      -6.8      1.989      4.123
REMARK  Name = 4848
REMARK  2 active torsions:
REMARK  status: ('A' for Active; 'I' for Inactive)
REMARK    1  A    between atoms: C_6  and  C_20
REMARK    2  A    between atoms: C_20  and  N_21
REMARK                            x       y       z     vdW  Elec       q    Type
REMARK                         _______ _______ _______ _____ _____    ______ ____
ROOT
ATOM      1  O   UNL     1      33.561 -22.953 -16.224  0.00  0.00    -0.276 OA
ATOM      2  O   UNL     1      37.474 -27.022 -13.737  0.00  0.00    -0.270 OA
ATOM      3  N   UNL     1      35.148 -23.820 -14.725  0.00  0.00    -0.223 N 
ATOM      4  N   UNL     1      37.822 -25.134 -14.964  0.00  0.00    -0.278 N 
ATOM      5  N   UNL     1      36.038 -22.070 -16.074  0.00  0.00    -0.227 NA
ATOM      6  C   UNL     1      33.852 -23.665 -15.258  0.00  0.00    +0.213 C 
ATOM      7  C   UNL     1      35.388 -24.195 -13.372  0.00  0.00    +0.064 C 
ATOM      8  C   UNL     1      36.268 -23.239 -15.409  0.00  0.00    +0.155 C 
ATOM      9  C   UNL     1      36.364 -25.118 -12.994  0.00  0.00    +0.068 C 
ATOM     10  C   UNL     1      37.513 -23.867 -15.485  0.00  0.00    +0.083 C 
ATOM     11  C   UNL     1      34.618 -23.591 -12.355  0.00  0.00    +0.015 C 
ATOM     12  C   UNL     1      37.219 -25.837 -13.950  0.00  0.00    +0.251 C 
ATOM     13  C   UNL     1      36.536 -25.452 -11.638  0.00  0.00    +0.006 C 
ATOM     14  C   UNL     1      38.515 -23.268 -16.266  0.00  0.00    +0.019 C 
ATOM     15  C   UNL     1      34.798 -23.917 -11.011  0.00  0.00    +0.001 C 
ATOM     16  C   UNL     1      35.756 -24.853 -10.653  0.00  0.00    +0.000 C 
ATOM     17  C   UNL     1      38.288 -22.066 -16.916  0.00  0.00    +0.022 C 
ATOM     18  C   UNL     1      37.036 -21.510 -16.790  0.00  0.00    +0.100 C 
ATOM     19  H   UNL     1      38.585 -25.587 -15.392  0.00  0.00    +0.155 HD
ENDROOT
BRANCH   6  20
ATOM     20  C   UNL     1      32.762 -24.529 -14.655  0.00  0.00    +0.011 C 
BRANCH  20  21
ATOM     21  N   UNL     1      31.506 -24.100 -15.269  0.00  0.00    +0.390 N 
ATOM     22  N   UNL     1      28.731 -23.297 -15.167  0.00  0.00    +0.383 N 
ATOM     23  C   UNL     1      30.440 -25.076 -15.012  0.00  0.00    -0.100 C 
ATOM     24  C   UNL     1      31.115 -22.773 -14.781  0.00  0.00    -0.100 C 
ATOM     25  C   UNL     1      29.123 -24.626 -15.653  0.00  0.00    -0.101 C 
ATOM     26  C   UNL     1      29.799 -22.322 -15.423  0.00  0.00    -0.101 C 
ATOM     27  C   UNL     1      27.477 -22.867 -15.783  0.00  0.00    -0.101 C 
ATOM     28  H   UNL     1      31.653 -24.042 -16.276  0.00  0.00    -0.079 HD
ATOM     29  H   UNL     1      28.584 -23.354 -14.159  0.00  0.00    -0.080 HD
ENDBRANCH  20  21
ENDBRANCH   6  20
TORSDOF 2
ENDMDL
MODEL 9
REMARK VINA RESULT:      -6.5     12.477     14.994
REMARK  Name = 4848
REMARK  2 active torsions:
REMARK  status: ('A' for Active; 'I' for Inactive)
REMARK    1  A    between atoms: C_6  and  C_20
REMARK    2  A    between atoms: C_20  and  N_21
REMARK                            x       y       z     vdW  Elec       q    Type
REMARK                         _______ _______ _______ _____ _____    ______ ____
ROOT
ATOM      1  O   UNL     1      31.902 -13.513 -22.255  0.00  0.00    -0.276 OA
ATOM      2  O   UNL     1      31.177  -7.718 -24.239  0.00  0.00    -0.270 OA
ATOM      3  N   UNL     1      32.457 -11.277 -22.712  0.00  0.00    -0.223 N 
ATOM      4  N   UNL     1      31.232  -8.610 -22.143  0.00  0.00    -0.278 N 
ATOM      5  N   UNL     1      32.279 -11.706 -20.375  0.00  0.00    -0.227 NA
ATOM      6  C   UNL     1      32.246 -12.630 -23.046  0.00  0.00    +0.213 C 
ATOM      7  C   UNL     1      33.314 -10.420 -23.460  0.00  0.00    +0.064 C 
ATOM      8  C   UNL     1      32.122 -10.813 -21.396  0.00  0.00    +0.155 C 
ATOM      9  C   UNL     1      32.989  -9.102 -23.780  0.00  0.00    +0.068 C 
ATOM     10  C   UNL     1      31.571  -9.552 -21.158  0.00  0.00    +0.083 C 
ATOM     11  C   UNL     1      34.565 -10.916 -23.885  0.00  0.00    +0.015 C 
ATOM     12  C   UNL     1      31.712  -8.466 -23.422  0.00  0.00    +0.251 C 
ATOM     13  C   UNL     1      33.879  -8.316 -24.536  0.00  0.00    +0.006 C 
ATOM     14  C   UNL     1      31.180  -9.232 -19.848  0.00  0.00    +0.019 C 
ATOM     15  C   UNL     1      35.449 -10.132 -24.625  0.00  0.00    +0.001 C 
ATOM     16  C   UNL     1      35.103  -8.830 -24.955  0.00  0.00    +0.000 C 
ATOM     17  C   UNL     1      31.368 -10.129 -18.809  0.00  0.00    +0.022 C 
ATOM     18  C   UNL     1      31.919 -11.349 -19.125  0.00  0.00    +0.100 C 
ATOM     19  H   UNL     1      30.546  -7.956 -21.877  0.00  0.00    +0.155 HD
ENDROOT
BRANCH   6  20
ATOM     20  C   UNL     1      32.350 -12.991 -24.516  0.00  0.00    +0.011 C 
BRANCH  20  21
ATOM     21  N   UNL     1      32.717 -14.405 -24.570  0.00  0.00    +0.390 N 
ATOM     22  N   UNL     1      34.508 -16.577 -25.226  0.00  0.00    +0.383 N 
ATOM     23  C   UNL     1      32.909 -14.841 -25.958  0.00  0.00    -0.100 C 
ATOM     24  C   UNL     1      33.930 -14.658 -23.782  0.00  0.00    -0.100 C 
ATOM     25  C   UNL     1      33.297 -16.323 -26.015  0.00  0.00    -0.101 C 
ATOM     26  C   UNL     1      34.316 -16.139 -23.837  0.00  0.00    -0.101 C 
ATOM     27  C   UNL     1      34.875 -17.991 -25.278  0.00  0.00    -0.101 C 
ATOM     28  H   UNL     1      31.953 -14.944 -24.165  0.00  0.00    -0.079 HD
ATOM     29  H   UNL     1      35.275 -16.038 -25.630  0.00  0.00    -0.080 HD
ENDBRANCH  20  21
ENDBRANCH   6  20
TORSDOF 2
ENDMDL
