MODEL 1
REMARK VINA RESULT:      -8.6      0.000      0.000
REMARK  Name = 9578243
REMARK  6 active torsions:
REMARK  status: ('A' for Active; 'I' for Inactive)
REMARK    1  A    between atoms: C_1  and  O_18
REMARK    2  A    between atoms: C_2  and  O_16
REMARK    3  A    between atoms: C_4  and  C_8
REMARK    4  A    between atoms: N_7  and  O_10
REMARK    5  A    between atoms: O_10  and  C_13
REMARK    6  A    between atoms: O_18  and  C_19
REMARK                            x       y       z     vdW  Elec       q    Type
REMARK                         _______ _______ _______ _____ _____    ______ ____
ROOT
ATOM      1  C   UNL     1      33.551 -23.398 -16.394  0.00  0.00    +0.172 C 
ATOM      2  C   UNL     1      33.892 -22.738 -17.568  0.00  0.00    +0.172 C 
ATOM      3  C   UNL     1      34.515 -23.665 -15.427  0.00  0.00    +0.041 C 
ATOM      4  C   UNL     1      35.835 -23.265 -15.636  0.00  0.00    +0.020 C 
ATOM      5  C   UNL     1      35.211 -22.337 -17.779  0.00  0.00    +0.040 C 
ATOM      6  C   UNL     1      36.183 -22.600 -16.813  0.00  0.00    +0.005 C 
ENDROOT
BRANCH   4   8
ATOM      7  N   UNL     1      38.045 -23.943 -14.999  0.00  0.00    -0.076 NA
ATOM      8  C   UNL     1      36.847 -23.540 -14.630  0.00  0.00    +0.098 C 
ATOM      9  C   UNL     1      36.500 -23.368 -13.148  0.00  0.00    +0.056 C 
BRANCH   7  10
ATOM     10  O   UNL     1      38.892 -24.191 -13.912  0.00  0.00    -0.299 OA
BRANCH  10  13
ATOM     11  O   UNL     1      40.947 -24.998 -14.588  0.00  0.00    -0.224 OA
ATOM     12  N   UNL     1      39.173 -26.403 -14.191  0.00  0.00    -0.293 N 
ATOM     13  C   UNL     1      39.777 -25.171 -14.259  0.00  0.00    +0.423 C 
ATOM     14  H   UNL     1      38.229 -26.473 -13.920  0.00  0.00    +0.148 HD
ATOM     15  H   UNL     1      39.684 -27.215 -14.412  0.00  0.00    +0.148 HD
ENDBRANCH  10  13
ENDBRANCH   7  10
ENDBRANCH   4   8
BRANCH   2  16
ATOM     16  O   UNL     1      32.952 -22.473 -18.519  0.00  0.00    -0.468 OA
ATOM     17  C   UNL     1      33.294 -21.515 -19.518  0.00  0.00    +0.253 C 
ENDBRANCH   2  16
BRANCH   1  18
ATOM     18  O   UNL     1      32.258 -23.797 -16.176  0.00  0.00    -0.476 OA
BRANCH  18  19
ATOM     19  C   UNL     1      31.726 -23.567 -14.877  0.00  0.00    +0.166 C 
ATOM     20  C   UNL     1      31.395 -24.899 -14.223  0.00  0.00    +0.044 C 
ATOM     21  C   UNL     1      30.371 -22.885 -14.973  0.00  0.00    +0.044 C 
ATOM     22  C   UNL     1      30.053 -25.303 -14.832  0.00  0.00    +0.004 C 
ATOM     23  C   UNL     1      29.410 -24.013 -15.342  0.00  0.00    +0.004 C 
ENDBRANCH  18  19
ENDBRANCH   1  18
TORSDOF 6
ENDMDL
MODEL 2
REMARK VINA RESULT:      -8.5      1.881      2.477
REMARK  Name = 9578243
REMARK  6 active torsions:
REMARK  status: ('A' for Active; 'I' for Inactive)
REMARK    1  A    between atoms: C_1  and  O_18
REMARK    2  A    between atoms: C_2  and  O_16
REMARK    3  A    between atoms: C_4  and  C_8
REMARK    4  A    between atoms: N_7  and  O_10
REMARK    5  A    between atoms: O_10  and  C_13
REMARK    6  A    between atoms: O_18  and  C_19
REMARK                            x       y       z     vdW  Elec       q    Type
REMARK                         _______ _______ _______ _____ _____    ______ ____
ROOT
ATOM      1  C   UNL     1      33.020 -23.342 -16.697  0.00  0.00    +0.172 C 
ATOM      2  C   UNL     1      33.549 -22.636 -17.770  0.00  0.00    +0.172 C 
ATOM      3  C   UNL     1      33.845 -23.795 -15.672  0.00  0.00    +0.041 C 
ATOM      4  C   UNL     1      35.214 -23.538 -15.721  0.00  0.00    +0.020 C 
ATOM      5  C   UNL     1      34.919 -22.377 -17.820  0.00  0.00    +0.040 C 
ATOM      6  C   UNL     1      35.752 -22.827 -16.796  0.00  0.00    +0.005 C 
ENDROOT
BRANCH   4   8
ATOM      7  N   UNL     1      35.556 -24.504 -13.554  0.00  0.00    -0.076 NA
ATOM      8  C   UNL     1      36.082 -24.008 -14.654  0.00  0.00    +0.098 C 
ATOM      9  C   UNL     1      37.601 -23.909 -14.822  0.00  0.00    +0.056 C 
BRANCH   7  10
ATOM     10  O   UNL     1      36.524 -24.886 -12.616  0.00  0.00    -0.299 OA
BRANCH  10  13
ATOM     11  O   UNL     1      35.262 -24.999 -10.685  0.00  0.00    -0.224 OA
ATOM     12  N   UNL     1      36.833 -23.352 -11.003  0.00  0.00    -0.293 N 
ATOM     13  C   UNL     1      36.125 -24.468 -11.378  0.00  0.00    +0.423 C 
ATOM     14  H   UNL     1      37.513 -22.976 -11.607  0.00  0.00    +0.148 HD
ATOM     15  H   UNL     1      36.660 -22.930 -10.131  0.00  0.00    +0.148 HD
ENDBRANCH  10  13
ENDBRANCH   7  10
ENDBRANCH   4   8
BRANCH   2  16
ATOM     16  O   UNL     1      32.746 -22.188 -18.776  0.00  0.00    -0.468 OA
ATOM     17  C   UNL     1      33.300 -21.222 -19.666  0.00  0.00    +0.253 C 
ENDBRANCH   2  16
BRANCH   1  18
ATOM     18  O   UNL     1      31.675 -23.603 -16.637  0.00  0.00    -0.476 OA
BRANCH  18  19
ATOM     19  C   UNL     1      31.143 -23.934 -15.360  0.00  0.00    +0.166 C 
ATOM     20  C   UNL     1      30.057 -24.987 -15.524  0.00  0.00    +0.044 C 
ATOM     21  C   UNL     1      30.389 -22.750 -14.777  0.00  0.00    +0.044 C 
ATOM     22  C   UNL     1      28.824 -24.200 -15.967  0.00  0.00    +0.004 C 
ATOM     23  C   UNL     1      29.052 -22.758 -15.515  0.00  0.00    +0.004 C 
ENDBRANCH  18  19
ENDBRANCH   1  18
TORSDOF 6
ENDMDL
MODEL 3
REMARK VINA RESULT:      -8.4      3.500      7.087
REMARK  Name = 9578243
REMARK  6 active torsions:
REMARK  status: ('A' for Active; 'I' for Inactive)
REMARK    1  A    between atoms: C_1  and  O_18
REMARK    2  A    between atoms: C_2  and  O_16
REMARK    3  A    between atoms: C_4  and  C_8
REMARK    4  A    between atoms: N_7  and  O_10
REMARK    5  A    between atoms: O_10  and  C_13
REMARK    6  A    between atoms: O_18  and  C_19
REMARK                            x       y       z     vdW  Elec       q    Type
REMARK                         _______ _______ _______ _____ _____    ______ ____
ROOT
ATOM      1  C   UNL     1      34.868 -23.370 -14.808  0.00  0.00    +0.172 C 
ATOM      2  C   UNL     1      35.240 -23.132 -16.126  0.00  0.00    +0.172 C 
ATOM      3  C   UNL     1      33.532 -23.565 -14.474  0.00  0.00    +0.041 C 
ATOM      4  C   UNL     1      32.556 -23.522 -15.469  0.00  0.00    +0.020 C 
ATOM      5  C   UNL     1      34.264 -23.088 -17.122  0.00  0.00    +0.040 C 
ATOM      6  C   UNL     1      32.923 -23.284 -16.794  0.00  0.00    +0.005 C 
ENDROOT
BRANCH   4   8
ATOM      7  N   UNL     1      30.303 -24.094 -16.057  0.00  0.00    -0.076 NA
ATOM      8  C   UNL     1      31.158 -23.724 -15.126  0.00  0.00    +0.098 C 
ATOM      9  C   UNL     1      30.696 -23.490 -13.684  0.00  0.00    +0.056 C 
BRANCH   7  10
ATOM     10  O   UNL     1      28.995 -24.218 -15.571  0.00  0.00    -0.299 OA
BRANCH  10  13
ATOM     11  O   UNL     1      27.790 -24.013 -17.530  0.00  0.00    -0.224 OA
ATOM     12  N   UNL     1      27.728 -22.392 -15.902  0.00  0.00    -0.293 N 
ATOM     13  C   UNL     1      28.144 -23.589 -16.434  0.00  0.00    +0.423 C 
ATOM     14  H   UNL     1      28.051 -22.110 -15.016  0.00  0.00    +0.148 HD
ATOM     15  H   UNL     1      27.108 -21.818 -16.407  0.00  0.00    +0.148 HD
ENDBRANCH  10  13
ENDBRANCH   7  10
ENDBRANCH   4   8
BRANCH   2  16
ATOM     16  O   UNL     1      36.547 -22.941 -16.460  0.00  0.00    -0.468 OA
ATOM     17  C   UNL     1      36.894 -21.680 -17.028  0.00  0.00    +0.253 C 
ENDBRANCH   2  16
BRANCH   1  18
ATOM     18  O   UNL     1      35.818 -23.415 -13.820  0.00  0.00    -0.476 OA
BRANCH  18  19
ATOM     19  C   UNL     1      35.885 -24.609 -13.050  0.00  0.00    +0.166 C 
ATOM     20  C   UNL     1      36.511 -24.303 -11.698  0.00  0.00    +0.044 C 
ATOM     21  C   UNL     1      36.872 -25.585 -13.672  0.00  0.00    +0.044 C 
ATOM     22  C   UNL     1      38.013 -24.252 -11.973  0.00  0.00    +0.004 C 
ATOM     23  C   UNL     1      38.241 -25.049 -13.257  0.00  0.00    +0.004 C 
ENDBRANCH  18  19
ENDBRANCH   1  18
TORSDOF 6
ENDMDL
MODEL 4
REMARK VINA RESULT:      -8.4      6.190      9.317
REMARK  Name = 9578243
REMARK  6 active torsions:
REMARK  status: ('A' for Active; 'I' for Inactive)
REMARK    1  A    between atoms: C_1  and  O_18
REMARK    2  A    between atoms: C_2  and  O_16
REMARK    3  A    between atoms: C_4  and  C_8
REMARK    4  A    between atoms: N_7  and  O_10
REMARK    5  A    between atoms: O_10  and  C_13
REMARK    6  A    between atoms: O_18  and  C_19
REMARK                            x       y       z     vdW  Elec       q    Type
REMARK                         _______ _______ _______ _____ _____    ______ ____
ROOT
ATOM      1  C   UNL     1      34.567 -16.633 -22.122  0.00  0.00    +0.172 C 
ATOM      2  C   UNL     1      34.830 -16.856 -23.469  0.00  0.00    +0.172 C 
ATOM      3  C   UNL     1      34.767 -17.643 -21.186  0.00  0.00    +0.041 C 
ATOM      4  C   UNL     1      35.236 -18.889 -21.600  0.00  0.00    +0.020 C 
ATOM      5  C   UNL     1      35.299 -18.102 -23.885  0.00  0.00    +0.040 C 
ATOM      6  C   UNL     1      35.503 -19.119 -22.951  0.00  0.00    +0.005 C 
ENDROOT
BRANCH   4   8
ATOM      7  N   UNL     1      34.419 -20.636 -20.176  0.00  0.00    -0.076 NA
ATOM      8  C   UNL     1      35.447 -19.947 -20.628  0.00  0.00    +0.098 C 
ATOM      9  C   UNL     1      36.866 -20.241 -20.130  0.00  0.00    +0.056 C 
BRANCH   7  10
ATOM     10  O   UNL     1      34.787 -21.598 -19.226  0.00  0.00    -0.299 OA
BRANCH  10  13
ATOM     11  O   UNL     1      33.992 -23.747 -19.517  0.00  0.00    -0.224 OA
ATOM     12  N   UNL     1      32.639 -22.055 -18.749  0.00  0.00    -0.293 N 
ATOM     13  C   UNL     1      33.831 -22.573 -19.196  0.00  0.00    +0.423 C 
ATOM     14  H   UNL     1      32.577 -21.103 -18.508  0.00  0.00    +0.148 HD
ATOM     15  H   UNL     1      31.848 -22.637 -18.670  0.00  0.00    +0.148 HD
ENDBRANCH  10  13
ENDBRANCH   7  10
ENDBRANCH   4   8
BRANCH   2  16
ATOM     16  O   UNL     1      34.637 -15.872 -24.390  0.00  0.00    -0.468 OA
ATOM     17  C   UNL     1      33.766 -16.165 -25.480  0.00  0.00    +0.253 C 
ENDBRANCH   2  16
BRANCH   1  18
ATOM     18  O   UNL     1      34.105 -15.413 -21.701  0.00  0.00    -0.476 OA
BRANCH  18  19
ATOM     19  C   UNL     1      32.694 -15.239 -21.669  0.00  0.00    +0.166 C 
ATOM     20  C   UNL     1      32.313 -14.051 -22.539  0.00  0.00    +0.044 C 
ATOM     21  C   UNL     1      32.246 -14.807 -20.282  0.00  0.00    +0.044 C 
ATOM     22  C   UNL     1      32.605 -12.829 -21.669  0.00  0.00    +0.004 C 
ATOM     23  C   UNL     1      32.592 -13.321 -20.222  0.00  0.00    +0.004 C 
ENDBRANCH  18  19
ENDBRANCH   1  18
TORSDOF 6
ENDMDL
MODEL 5
REMARK VINA RESULT:      -8.3     11.330     14.589
REMARK  Name = 9578243
REMARK  6 active torsions:
REMARK  status: ('A' for Active; 'I' for Inactive)
REMARK    1  A    between atoms: C_1  and  O_18
REMARK    2  A    between atoms: C_2  and  O_16
REMARK    3  A    between atoms: C_4  and  C_8
REMARK    4  A    between atoms: N_7  and  O_10
REMARK    5  A    between atoms: O_10  and  C_13
REMARK    6  A    between atoms: O_18  and  C_19
REMARK                            x       y       z     vdW  Elec       q    Type
REMARK                         _______ _______ _______ _____ _____    ______ ____
ROOT
ATOM      1  C   UNL     1      32.738 -13.251 -23.214  0.00  0.00    +0.172 C 
ATOM      2  C   UNL     1      33.331 -13.438 -24.457  0.00  0.00    +0.172 C 
ATOM      3  C   UNL     1      32.595 -11.974 -22.683  0.00  0.00    +0.041 C 
ATOM      4  C   UNL     1      33.050 -10.870 -23.403  0.00  0.00    +0.020 C 
ATOM      5  C   UNL     1      33.787 -12.334 -25.178  0.00  0.00    +0.040 C 
ATOM      6  C   UNL     1      33.646 -11.050 -24.652  0.00  0.00    +0.005 C 
ENDROOT
BRANCH   4   8
ATOM      7  N   UNL     1      32.141  -9.337 -21.798  0.00  0.00    -0.076 NA
ATOM      8  C   UNL     1      32.905  -9.532 -22.853  0.00  0.00    +0.098 C 
ATOM      9  C   UNL     1      33.635  -8.362 -23.519  0.00  0.00    +0.056 C 
BRANCH   7  10
ATOM     10  O   UNL     1      32.085  -7.992 -21.411  0.00  0.00    -0.299 OA
BRANCH  10  13
ATOM     11  O   UNL     1      32.934  -6.930 -19.545  0.00  0.00    -0.224 OA
ATOM     12  N   UNL     1      32.093  -9.065 -19.437  0.00  0.00    -0.293 N 
ATOM     13  C   UNL     1      32.419  -7.901 -20.090  0.00  0.00    +0.423 C 
ATOM     14  H   UNL     1      31.681  -9.809 -19.933  0.00  0.00    +0.148 HD
ATOM     15  H   UNL     1      32.272  -9.156 -18.473  0.00  0.00    +0.148 HD
ENDBRANCH  10  13
ENDBRANCH   7  10
ENDBRANCH   4   8
BRANCH   2  16
ATOM     16  O   UNL     1      33.473 -14.686 -24.984  0.00  0.00    -0.468 OA
ATOM     17  C   UNL     1      33.034 -14.877 -26.327  0.00  0.00    +0.253 C 
ENDBRANCH   2  16
BRANCH   1  18
ATOM     18  O   UNL     1      32.287 -14.328 -22.496  0.00  0.00    -0.476 OA
BRANCH  18  19
ATOM     19  C   UNL     1      32.757 -14.449 -21.159  0.00  0.00    +0.166 C 
ATOM     20  C   UNL     1      34.277 -14.496 -21.162  0.00  0.00    +0.044 C 
ATOM     21  C   UNL     1      32.373 -15.803 -20.583  0.00  0.00    +0.044 C 
ATOM     22  C   UNL     1      34.617 -15.937 -21.539  0.00  0.00    +0.004 C 
ATOM     23  C   UNL     1      33.383 -16.771 -21.197  0.00  0.00    +0.004 C 
ENDBRANCH  18  19
ENDBRANCH   1  18
TORSDOF 6
ENDMDL
MODEL 6
REMARK VINA RESULT:      -8.3      1.449      4.012
REMARK  Name = 9578243
REMARK  6 active torsions:
REMARK  status: ('A' for Active; 'I' for Inactive)
REMARK    1  A    between atoms: C_1  and  O_18
REMARK    2  A    between atoms: C_2  and  O_16
REMARK    3  A    between atoms: C_4  and  C_8
REMARK    4  A    between atoms: N_7  and  O_10
REMARK    5  A    between atoms: O_10  and  C_13
REMARK    6  A    between atoms: O_18  and  C_19
REMARK                            x       y       z     vdW  Elec       q    Type
REMARK                         _______ _______ _______ _____ _____    ______ ____
ROOT
ATOM      1  C   UNL     1      35.038 -22.759 -16.591  0.00  0.00    +0.172 C 
ATOM      2  C   UNL     1      33.893 -23.401 -16.133  0.00  0.00    +0.172 C 
ATOM      3  C   UNL     1      36.273 -23.008 -16.002  0.00  0.00    +0.041 C 
ATOM      4  C   UNL     1      36.365 -23.911 -14.943  0.00  0.00    +0.020 C 
ATOM      5  C   UNL     1      33.984 -24.304 -15.074  0.00  0.00    +0.040 C 
ATOM      6  C   UNL     1      35.220 -24.560 -14.479  0.00  0.00    +0.005 C 
ENDROOT
BRANCH   4   8
ATOM      7  N   UNL     1      38.718 -24.355 -15.076  0.00  0.00    -0.076 NA
ATOM      8  C   UNL     1      37.652 -24.176 -14.323  0.00  0.00    +0.098 C 
ATOM      9  C   UNL     1      37.749 -24.255 -12.796  0.00  0.00    +0.056 C 
BRANCH   7  10
ATOM     10  O   UNL     1      39.870 -24.626 -14.327  0.00  0.00    -0.299 OA
BRANCH  10  13
ATOM     11  O   UNL     1      40.597 -26.060 -15.985  0.00  0.00    -0.224 OA
ATOM     12  N   UNL     1      40.831 -26.576 -13.758  0.00  0.00    -0.293 N 
ATOM     13  C   UNL     1      40.442 -25.772 -14.802  0.00  0.00    +0.423 C 
ATOM     14  H   UNL     1      40.678 -26.285 -12.830  0.00  0.00    +0.148 HD
ATOM     15  H   UNL     1      41.263 -27.443 -13.938  0.00  0.00    +0.148 HD
ENDBRANCH  10  13
ENDBRANCH   7  10
ENDBRANCH   4   8
BRANCH   2  16
ATOM     16  O   UNL     1      32.681 -23.162 -16.707  0.00  0.00    -0.468 OA
ATOM     17  C   UNL     1      31.550 -23.124 -15.840  0.00  0.00    +0.253 C 
ENDBRANCH   2  16
BRANCH   1  18
ATOM     18  O   UNL     1      34.961 -21.869 -17.631  0.00  0.00    -0.476 OA
BRANCH  18  19
ATOM     19  C   UNL     1      34.906 -22.418 -18.942  0.00  0.00    +0.166 C 
ATOM     20  C   UNL     1      35.943 -21.733 -19.820  0.00  0.00    +0.044 C 
ATOM     21  C   UNL     1      33.592 -22.055 -19.614  0.00  0.00    +0.044 C 
ATOM     22  C   UNL     1      35.293 -20.409 -20.218  0.00  0.00    +0.004 C 
ATOM     23  C   UNL     1      33.786 -20.605 -20.056  0.00  0.00    +0.004 C 
ENDBRANCH  18  19
ENDBRANCH   1  18
TORSDOF 6
ENDMDL
MODEL 7
REMARK VINA RESULT:      -8.1      5.921      8.973
REMARK  Name = 9578243
REMARK  6 active torsions:
REMARK  status: ('A' for Active; 'I' for Inactive)
REMARK    1  A    between atoms: C_1  and  O_18
REMARK    2  A    between atoms: C_2  and  O_16
REMARK    3  A    between atoms: C_4  and  C_8
REMARK    4  A    between atoms: N_7  and  O_10
REMARK    5  A    between atoms: O_10  and  C_13
REMARK    6  A    between atoms: O_18  and  C_19
REMARK                            x       y       z     vdW  Elec       q    Type
REMARK                         _______ _______ _______ _____ _____    ______ ____
ROOT
ATOM      1  C   UNL     1      34.425 -16.876 -22.185  0.00  0.00    +0.172 C 
ATOM      2  C   UNL     1      34.901 -17.139 -23.464  0.00  0.00    +0.172 C 
ATOM      3  C   UNL     1      34.328 -17.895 -21.243  0.00  0.00    +0.041 C 
ATOM      4  C   UNL     1      34.713 -19.192 -21.583  0.00  0.00    +0.020 C 
ATOM      5  C   UNL     1      35.286 -18.435 -23.806  0.00  0.00    +0.040 C 
ATOM      6  C   UNL     1      35.193 -19.462 -22.866  0.00  0.00    +0.005 C 
ENDROOT
BRANCH   4   8
ATOM      7  N   UNL     1      35.697 -20.913 -20.234  0.00  0.00    -0.076 NA
ATOM      8  C   UNL     1      34.614 -20.261 -20.604  0.00  0.00    +0.098 C 
ATOM      9  C   UNL     1      33.243 -20.624 -20.023  0.00  0.00    +0.056 C 
BRANCH   7  10
ATOM     10  O   UNL     1      35.427 -21.928 -19.308  0.00  0.00    -0.299 OA
BRANCH  10  13
ATOM     11  O   UNL     1      36.998 -20.822 -18.027  0.00  0.00    -0.224 OA
ATOM     12  N   UNL     1      35.702 -22.507 -17.154  0.00  0.00    -0.293 N 
ATOM     13  C   UNL     1      36.122 -21.671 -18.160  0.00  0.00    +0.423 C 
ATOM     14  H   UNL     1      34.993 -23.168 -17.327  0.00  0.00    +0.148 HD
ATOM     15  H   UNL     1      36.109 -22.444 -16.260  0.00  0.00    +0.148 HD
ENDBRANCH  10  13
ENDBRANCH   7  10
ENDBRANCH   4   8
BRANCH   2  16
ATOM     16  O   UNL     1      35.000 -16.145 -24.391  0.00  0.00    -0.468 OA
ATOM     17  C   UNL     1      33.971 -16.073 -25.376  0.00  0.00    +0.253 C 
ENDBRANCH   2  16
BRANCH   1  18
ATOM     18  O   UNL     1      34.043 -15.606 -21.837  0.00  0.00    -0.476 OA
BRANCH  18  19
ATOM     19  C   UNL     1      32.648 -15.329 -21.856  0.00  0.00    +0.166 C 
ATOM     20  C   UNL     1      32.397 -14.058 -22.652  0.00  0.00    +0.044 C 
ATOM     21  C   UNL     1      32.162 -14.964 -20.463  0.00  0.00    +0.044 C 
ATOM     22  C   UNL     1      32.731 -12.925 -21.682  0.00  0.00    +0.004 C 
ATOM     23  C   UNL     1      32.610 -13.516 -20.277  0.00  0.00    +0.004 C 
ENDBRANCH  18  19
ENDBRANCH   1  18
TORSDOF 6
ENDMDL
MODEL 8
REMARK VINA RESULT:      -8.1      9.557     13.030
REMARK  Name = 9578243
REMARK  6 active torsions:
REMARK  status: ('A' for Active; 'I' for Inactive)
REMARK    1  A    between atoms: C_1  and  O_18
REMARK    2  A    between atoms: C_2  and  O_16
REMARK    3  A    between atoms: C_4  and  C_8
REMARK    4  A    between atoms: N_7  and  O_10
REMARK    5  A    between atoms: O_10  and  C_13
REMARK    6  A    between atoms: O_18  and  C_19
REMARK                            x       y       z     vdW  Elec       q    Type
REMARK                         _______ _______ _______ _____ _____    ______ ____
ROOT
ATOM      1  C   UNL     1      34.697 -16.305 -23.749  0.00  0.00    +0.172 C 
ATOM      2  C   UNL     1      34.335 -16.623 -25.052  0.00  0.00    +0.172 C 
ATOM      3  C   UNL     1      34.314 -15.094 -23.183  0.00  0.00    +0.041 C 
ATOM      4  C   UNL     1      33.558 -14.190 -23.929  0.00  0.00    +0.020 C 
ATOM      5  C   UNL     1      33.579 -15.719 -25.800  0.00  0.00    +0.040 C 
ATOM      6  C   UNL     1      33.190 -14.503 -25.238  0.00  0.00    +0.005 C 
ENDROOT
BRANCH   4   8
ATOM      7  N   UNL     1      33.535 -11.792 -23.904  0.00  0.00    -0.076 NA
ATOM      8  C   UNL     1      33.155 -12.922 -23.344  0.00  0.00    +0.098 C 
ATOM      9  C   UNL     1      32.299 -12.919 -22.073  0.00  0.00    +0.056 C 
BRANCH   7  10
ATOM     10  O   UNL     1      33.087 -10.664 -23.204  0.00  0.00    -0.299 OA
BRANCH  10  13
ATOM     11  O   UNL     1      34.982  -9.581 -23.958  0.00  0.00    -0.224 OA
ATOM     12  N   UNL     1      33.009  -8.455 -23.611  0.00  0.00    -0.293 N 
ATOM     13  C   UNL     1      33.802  -9.577 -23.620  0.00  0.00    +0.423 C 
ATOM     14  H   UNL     1      32.068  -8.521 -23.329  0.00  0.00    +0.148 HD
ATOM     15  H   UNL     1      33.381  -7.587 -23.887  0.00  0.00    +0.148 HD
ENDBRANCH  10  13
ENDBRANCH   7  10
ENDBRANCH   4   8
BRANCH   2  16
ATOM     16  O   UNL     1      34.706 -17.809 -25.612  0.00  0.00    -0.468 OA
ATOM     17  C   UNL     1      34.046 -18.982 -25.142  0.00  0.00    +0.253 C 
ENDBRANCH   2  16
BRANCH   1  18
ATOM     18  O   UNL     1      35.440 -17.185 -23.004  0.00  0.00    -0.476 OA
BRANCH  18  19
ATOM     19  C   UNL     1      35.159 -17.242 -21.612  0.00  0.00    +0.166 C 
ATOM     20  C   UNL     1      36.055 -18.284 -20.959  0.00  0.00    +0.044 C 
ATOM     21  C   UNL     1      33.763 -17.795 -21.376  0.00  0.00    +0.044 C 
ATOM     22  C   UNL     1      35.383 -19.619 -21.272  0.00  0.00    +0.004 C 
ATOM     23  C   UNL     1      33.918 -19.302 -21.570  0.00  0.00    +0.004 C 
ENDBRANCH  18  19
ENDBRANCH   1  18
TORSDOF 6
ENDMDL
MODEL 9
REMARK VINA RESULT:      -8.1     11.992     14.785
REMARK  Name = 9578243
REMARK  6 active torsions:
REMARK  status: ('A' for Active; 'I' for Inactive)
REMARK    1  A    between atoms: C_1  and  O_18
REMARK    2  A    between atoms: C_2  and  O_16
REMARK    3  A    between atoms: C_4  and  C_8
REMARK    4  A    between atoms: N_7  and  O_10
REMARK    5  A    between atoms: O_10  and  C_13
REMARK    6  A    between atoms: O_18  and  C_19
REMARK                            x       y       z     vdW  Elec       q    Type
REMARK                         _______ _______ _______ _____ _____    ______ ____
ROOT
ATOM      1  C   UNL     1      31.666 -11.095 -22.147  0.00  0.00    +0.172 C 
ATOM      2  C   UNL     1      31.569 -11.707 -20.903  0.00  0.00    +0.172 C 
ATOM      3  C   UNL     1      32.192 -11.784 -23.236  0.00  0.00    +0.041 C 
ATOM      4  C   UNL     1      32.624 -13.101 -23.078  0.00  0.00    +0.020 C 
ATOM      5  C   UNL     1      32.002 -13.024 -20.744  0.00  0.00    +0.040 C 
ATOM      6  C   UNL     1      32.528 -13.721 -21.832  0.00  0.00    +0.005 C 
ENDROOT
BRANCH   4   8
ATOM      7  N   UNL     1      33.479 -15.101 -24.086  0.00  0.00    -0.076 NA
ATOM      8  C   UNL     1      33.175 -13.826 -24.211  0.00  0.00    +0.098 C 
ATOM      9  C   UNL     1      33.405 -13.090 -25.535  0.00  0.00    +0.056 C 
BRANCH   7  10
ATOM     10  O   UNL     1      34.023 -15.645 -25.257  0.00  0.00    -0.299 OA
BRANCH  10  13
ATOM     11  O   UNL     1      34.535 -17.880 -25.531  0.00  0.00    -0.224 OA
ATOM     12  N   UNL     1      35.491 -16.621 -23.864  0.00  0.00    -0.293 N 
ATOM     13  C   UNL     1      34.664 -16.810 -24.945  0.00  0.00    +0.423 C 
ATOM     14  H   UNL     1      35.549 -15.735 -23.438  0.00  0.00    +0.148 HD
ATOM     15  H   UNL     1      36.025 -17.371 -23.516  0.00  0.00    +0.148 HD
ENDBRANCH  10  13
ENDBRANCH   7  10
ENDBRANCH   4   8
BRANCH   2  16
ATOM     16  O   UNL     1      31.054 -11.038 -19.834  0.00  0.00    -0.468 OA
ATOM     17  C   UNL     1      31.947 -10.203 -19.100  0.00  0.00    +0.253 C 
ENDBRANCH   2  16
BRANCH   1  18
ATOM     18  O   UNL     1      31.245  -9.802 -22.315  0.00  0.00    -0.476 OA
BRANCH  18  19
ATOM     19  C   UNL     1      32.017  -8.985 -23.187  0.00  0.00    +0.166 C 
ATOM     20  C   UNL     1      33.119  -8.300 -22.392  0.00  0.00    +0.044 C 
ATOM     21  C   UNL     1      31.185  -7.819 -23.696  0.00  0.00    +0.044 C 
ATOM     22  C   UNL     1      32.424  -7.123 -21.709  0.00  0.00    +0.004 C 
ATOM     23  C   UNL     1      31.166  -6.834 -22.528  0.00  0.00    +0.004 C 
ENDBRANCH  18  19
ENDBRANCH   1  18
TORSDOF 6
ENDMDL
