MODEL 1
REMARK VINA RESULT:     -12.2      0.000      0.000
REMARK  Name = 9896504
REMARK  6 active torsions:
REMARK  status: ('A' for Active; 'I' for Inactive)
REMARK    1  A    between atoms: N_4  and  C_22
REMARK    2  A    between atoms: C_11  and  C_13
REMARK    3  A    between atoms: C_13  and  O_14
REMARK    4  A    between atoms: O_14  and  C_15
REMARK    5  A    between atoms: C_15  and  C_16
REMARK    6  A    between atoms: C_22  and  C_23
REMARK                            x       y       z     vdW  Elec       q    Type
REMARK                         _______ _______ _______ _____ _____    ______ ____
ROOT
ATOM      1  S   UNL     1      32.609 -13.880 -23.540  0.00  0.00    -0.064 S 
ATOM      2  O   UNL     1      35.004 -16.357 -20.037  0.00  0.00    -0.251 OA
ATOM      3  O   UNL     1      35.284 -18.097 -24.377  0.00  0.00    -0.269 OA
ATOM      4  N   UNL     1      35.192 -17.274 -22.185  0.00  0.00    -0.206 N 
ATOM      5  N   UNL     1      33.939 -15.317 -21.803  0.00  0.00    -0.214 N 
ATOM      6  C   UNL     1      33.616 -15.244 -23.139  0.00  0.00    +0.094 C 
ATOM      7  C   UNL     1      34.733 -16.315 -21.239  0.00  0.00    +0.321 C 
ATOM      8  C   UNL     1      34.895 -17.263 -23.560  0.00  0.00    +0.258 C 
ATOM      9  C   UNL     1      34.042 -16.143 -24.027  0.00  0.00    +0.080 C 
ATOM     10  C   UNL     1      33.367 -14.269 -21.119  0.00  0.00    +0.087 C 
ATOM     11  C   UNL     1      32.649 -13.440 -21.878  0.00  0.00    +0.122 C 
ENDROOT
BRANCH  11  13
ATOM     12  O   UNL     1      31.748 -12.025 -20.203  0.00  0.00    -0.244 OA
ATOM     13  C   UNL     1      31.949 -12.264 -21.391  0.00  0.00    +0.349 C 
BRANCH  13  14
ATOM     14  O   UNL     1      31.569 -11.499 -22.451  0.00  0.00    -0.440 OA
BRANCH  14  15
ATOM     15  C   UNL     1      31.459 -10.095 -22.199  0.00  0.00    +0.235 C 
BRANCH  15  16
ATOM     16  C   UNL     1      32.662  -9.400 -22.769  0.00  0.00    +0.021 C 
ATOM     17  C   UNL     1      32.959  -8.101 -22.373  0.00  0.00    -0.001 C 
ATOM     18  C   UNL     1      33.468 -10.062 -23.688  0.00  0.00    -0.001 C 
ATOM     19  C   UNL     1      34.076  -7.456 -22.903  0.00  0.00    -0.000 C 
ATOM     20  C   UNL     1      34.586  -9.417 -24.217  0.00  0.00    -0.000 C 
ATOM     21  C   UNL     1      34.889  -8.114 -23.824  0.00  0.00    -0.000 C 
ENDBRANCH  15  16
ENDBRANCH  14  15
ENDBRANCH  13  14
ENDBRANCH  11  13
BRANCH   4  22
ATOM     22  C   UNL     1      36.034 -18.366 -21.711  0.00  0.00    +0.129 C 
BRANCH  22  23
ATOM     23  C   UNL     1      35.237 -19.427 -21.010  0.00  0.00    -0.002 C 
ATOM     24  C   UNL     1      35.891 -20.390 -20.252  0.00  0.00    -0.003 C 
ATOM     25  C   UNL     1      33.851 -19.433 -21.124  0.00  0.00    -0.003 C 
ATOM     26  C   UNL     1      35.150 -21.377 -19.600  0.00  0.00    -0.000 C 
ATOM     27  C   UNL     1      33.110 -20.419 -20.472  0.00  0.00    -0.000 C 
ATOM     28  C   UNL     1      33.760 -21.390 -19.710  0.00  0.00    -0.000 C 
ENDBRANCH  22  23
ENDBRANCH   4  22
TORSDOF 6
ENDMDL
MODEL 2
REMARK VINA RESULT:     -11.8      1.172      1.848
REMARK  Name = 9896504
REMARK  6 active torsions:
REMARK  status: ('A' for Active; 'I' for Inactive)
REMARK    1  A    between atoms: N_4  and  C_22
REMARK    2  A    between atoms: C_11  and  C_13
REMARK    3  A    between atoms: C_13  and  O_14
REMARK    4  A    between atoms: O_14  and  C_15
REMARK    5  A    between atoms: C_15  and  C_16
REMARK    6  A    between atoms: C_22  and  C_23
REMARK                            x       y       z     vdW  Elec       q    Type
REMARK                         _______ _______ _______ _____ _____    ______ ____
ROOT
ATOM      1  S   UNL     1      33.518 -15.036 -24.633  0.00  0.00    -0.064 S 
ATOM      2  O   UNL     1      35.383 -16.632 -20.376  0.00  0.00    -0.251 OA
ATOM      3  O   UNL     1      35.507 -19.644 -23.961  0.00  0.00    -0.269 OA
ATOM      4  N   UNL     1      35.485 -18.182 -22.130  0.00  0.00    -0.206 N 
ATOM      5  N   UNL     1      34.550 -16.044 -22.448  0.00  0.00    -0.214 N 
ATOM      6  C   UNL     1      34.282 -16.341 -23.766  0.00  0.00    +0.094 C 
ATOM      7  C   UNL     1      35.158 -16.923 -21.553  0.00  0.00    +0.321 C 
ATOM      8  C   UNL     1      35.233 -18.553 -23.464  0.00  0.00    +0.258 C 
ATOM      9  C   UNL     1      34.584 -17.520 -24.309  0.00  0.00    +0.080 C 
ATOM     10  C   UNL     1      34.133 -14.766 -22.156  0.00  0.00    +0.087 C 
ATOM     11  C   UNL     1      33.580 -14.116 -23.181  0.00  0.00    +0.122 C 
ENDROOT
BRANCH  11  13
ATOM     12  O   UNL     1      31.950 -12.465 -22.697  0.00  0.00    -0.244 OA
ATOM     13  C   UNL     1      33.063 -12.760 -23.123  0.00  0.00    +0.349 C 
BRANCH  13  14
ATOM     14  O   UNL     1      34.002 -11.903 -23.610  0.00  0.00    -0.440 OA
BRANCH  14  15
ATOM     15  C   UNL     1      33.553 -10.993 -24.619  0.00  0.00    +0.235 C 
BRANCH  15  16
ATOM     16  C   UNL     1      33.550  -9.602 -24.056  0.00  0.00    +0.021 C 
ATOM     17  C   UNL     1      32.361  -9.046 -23.598  0.00  0.00    -0.001 C 
ATOM     18  C   UNL     1      34.737  -8.880 -23.999  0.00  0.00    -0.001 C 
ATOM     19  C   UNL     1      32.359  -7.753 -23.074  0.00  0.00    -0.000 C 
ATOM     20  C   UNL     1      34.735  -7.587 -23.475  0.00  0.00    -0.000 C 
ATOM     21  C   UNL     1      33.545  -7.024 -23.013  0.00  0.00    -0.000 C 
ENDBRANCH  15  16
ENDBRANCH  14  15
ENDBRANCH  13  14
ENDBRANCH  11  13
BRANCH   4  22
ATOM     22  C   UNL     1      36.127 -19.184 -21.287  0.00  0.00    +0.129 C 
BRANCH  22  23
ATOM     23  C   UNL     1      35.125 -20.060 -20.593  0.00  0.00    -0.002 C 
ATOM     24  C   UNL     1      33.768 -19.795 -20.732  0.00  0.00    -0.003 C 
ATOM     25  C   UNL     1      35.564 -21.127 -19.819  0.00  0.00    -0.003 C 
ATOM     26  C   UNL     1      32.835 -20.608 -20.087  0.00  0.00    -0.000 C 
ATOM     27  C   UNL     1      34.632 -21.942 -19.175  0.00  0.00    -0.000 C 
ATOM     28  C   UNL     1      33.268 -21.682 -19.308  0.00  0.00    -0.000 C 
ENDBRANCH  22  23
ENDBRANCH   4  22
TORSDOF 6
ENDMDL
MODEL 3
REMARK VINA RESULT:     -11.8      1.461      2.051
REMARK  Name = 9896504
REMARK  6 active torsions:
REMARK  status: ('A' for Active; 'I' for Inactive)
REMARK    1  A    between atoms: N_4  and  C_22
REMARK    2  A    between atoms: C_11  and  C_13
REMARK    3  A    between atoms: C_13  and  O_14
REMARK    4  A    between atoms: O_14  and  C_15
REMARK    5  A    between atoms: C_15  and  C_16
REMARK    6  A    between atoms: C_22  and  C_23
REMARK                            x       y       z     vdW  Elec       q    Type
REMARK                         _______ _______ _______ _____ _____    ______ ____
ROOT
ATOM      1  S   UNL     1      33.492 -14.769 -24.708  0.00  0.00    -0.064 S 
ATOM      2  O   UNL     1      35.289 -16.359 -20.420  0.00  0.00    -0.251 OA
ATOM      3  O   UNL     1      35.496 -19.367 -24.005  0.00  0.00    -0.269 OA
ATOM      4  N   UNL     1      35.432 -17.906 -22.173  0.00  0.00    -0.206 N 
ATOM      5  N   UNL     1      34.490 -15.774 -22.506  0.00  0.00    -0.214 N 
ATOM      6  C   UNL     1      34.248 -16.071 -23.828  0.00  0.00    +0.094 C 
ATOM      7  C   UNL     1      35.087 -16.650 -21.601  0.00  0.00    +0.321 C 
ATOM      8  C   UNL     1      35.207 -18.277 -23.512  0.00  0.00    +0.258 C 
ATOM      9  C   UNL     1      34.567 -17.247 -24.367  0.00  0.00    +0.080 C 
ATOM     10  C   UNL     1      34.060 -14.499 -22.220  0.00  0.00    +0.087 C 
ATOM     11  C   UNL     1      33.522 -13.851 -23.253  0.00  0.00    +0.122 C 
ENDROOT
BRANCH  11  13
ATOM     12  O   UNL     1      33.243 -11.633 -24.040  0.00  0.00    -0.244 OA
ATOM     13  C   UNL     1      32.996 -12.498 -23.204  0.00  0.00    +0.349 C 
BRANCH  13  14
ATOM     14  O   UNL     1      32.207 -12.365 -22.103  0.00  0.00    -0.440 OA
BRANCH  14  15
ATOM     15  C   UNL     1      31.161 -11.393 -22.199  0.00  0.00    +0.235 C 
BRANCH  15  16
ATOM     16  C   UNL     1      31.592 -10.139 -21.496  0.00  0.00    +0.021 C 
ATOM     17  C   UNL     1      31.902  -9.006 -22.239  0.00  0.00    -0.001 C 
ATOM     18  C   UNL     1      31.677 -10.122 -20.108  0.00  0.00    -0.001 C 
ATOM     19  C   UNL     1      32.302  -7.840 -21.585  0.00  0.00    -0.000 C 
ATOM     20  C   UNL     1      32.077  -8.956 -19.455  0.00  0.00    -0.000 C 
ATOM     21  C   UNL     1      32.390  -7.815 -20.194  0.00  0.00    -0.000 C 
ENDBRANCH  15  16
ENDBRANCH  14  15
ENDBRANCH  13  14
ENDBRANCH  11  13
BRANCH   4  22
ATOM     22  C   UNL     1      36.065 -18.906 -21.320  0.00  0.00    +0.129 C 
BRANCH  22  23
ATOM     23  C   UNL     1      35.058 -19.822 -20.687  0.00  0.00    -0.002 C 
ATOM     24  C   UNL     1      35.494 -20.918 -19.952  0.00  0.00    -0.003 C 
ATOM     25  C   UNL     1      33.701 -19.563 -20.839  0.00  0.00    -0.003 C 
ATOM     26  C   UNL     1      34.559 -21.770 -19.362  0.00  0.00    -0.000 C 
ATOM     27  C   UNL     1      32.767 -20.414 -20.248  0.00  0.00    -0.000 C 
ATOM     28  C   UNL     1      33.196 -21.518 -19.511  0.00  0.00    -0.000 C 
ENDBRANCH  22  23
ENDBRANCH   4  22
TORSDOF 6
ENDMDL
MODEL 4
REMARK VINA RESULT:     -11.3      1.464      9.459
REMARK  Name = 9896504
REMARK  6 active torsions:
REMARK  status: ('A' for Active; 'I' for Inactive)
REMARK    1  A    between atoms: N_4  and  C_22
REMARK    2  A    between atoms: C_11  and  C_13
REMARK    3  A    between atoms: C_13  and  O_14
REMARK    4  A    between atoms: O_14  and  C_15
REMARK    5  A    between atoms: C_15  and  C_16
REMARK    6  A    between atoms: C_22  and  C_23
REMARK                            x       y       z     vdW  Elec       q    Type
REMARK                         _______ _______ _______ _____ _____    ______ ____
ROOT
ATOM      1  S   UNL     1      33.840 -15.673 -20.602  0.00  0.00    -0.064 S 
ATOM      2  O   UNL     1      33.354 -12.729 -24.507  0.00  0.00    -0.251 OA
ATOM      3  O   UNL     1      31.236 -11.330 -20.570  0.00  0.00    -0.269 OA
ATOM      4  N   UNL     1      32.280 -11.968 -22.569  0.00  0.00    -0.206 N 
ATOM      5  N   UNL     1      33.482 -13.993 -22.578  0.00  0.00    -0.214 N 
ATOM      6  C   UNL     1      33.174 -14.199 -21.252  0.00  0.00    +0.094 C 
ATOM      7  C   UNL     1      33.066 -12.887 -23.318  0.00  0.00    +0.321 C 
ATOM      8  C   UNL     1      31.924 -12.119 -21.216  0.00  0.00    +0.258 C 
ATOM      9  C   UNL     1      32.435 -13.341 -20.548  0.00  0.00    +0.080 C 
ATOM     10  C   UNL     1      34.251 -15.030 -23.053  0.00  0.00    +0.087 C 
ATOM     11  C   UNL     1      34.521 -15.976 -22.153  0.00  0.00    +0.122 C 
ENDROOT
BRANCH  11  13
ATOM     12  O   UNL     1      35.611 -17.565 -23.533  0.00  0.00    -0.244 OA
ATOM     13  C   UNL     1      35.311 -17.167 -22.411  0.00  0.00    +0.349 C 
BRANCH  13  14
ATOM     14  O   UNL     1      35.648 -17.745 -21.225  0.00  0.00    -0.440 OA
BRANCH  14  15
ATOM     15  C   UNL     1      36.189 -19.067 -21.307  0.00  0.00    +0.235 C 
BRANCH  15  16
ATOM     16  C   UNL     1      35.267 -20.019 -20.603  0.00  0.00    +0.021 C 
ATOM     17  C   UNL     1      35.795 -21.050 -19.835  0.00  0.00    -0.001 C 
ATOM     18  C   UNL     1      33.890 -19.861 -20.726  0.00  0.00    -0.001 C 
ATOM     19  C   UNL     1      34.937 -21.934 -19.180  0.00  0.00    -0.000 C 
ATOM     20  C   UNL     1      33.032 -20.745 -20.071  0.00  0.00    -0.000 C 
ATOM     21  C   UNL     1      33.557 -21.780 -19.298  0.00  0.00    -0.000 C 
ENDBRANCH  15  16
ENDBRANCH  14  15
ENDBRANCH  13  14
ENDBRANCH  11  13
BRANCH   4  22
ATOM     22  C   UNL     1      31.789 -10.769 -23.239  0.00  0.00    +0.129 C 
BRANCH  22  23
ATOM     23  C   UNL     1      32.792  -9.654 -23.202  0.00  0.00    -0.002 C 
ATOM     24  C   UNL     1      33.879  -9.678 -24.068  0.00  0.00    -0.003 C 
ATOM     25  C   UNL     1      32.624  -8.607 -22.303  0.00  0.00    -0.003 C 
ATOM     26  C   UNL     1      34.812  -8.641 -24.034  0.00  0.00    -0.000 C 
ATOM     27  C   UNL     1      33.556  -7.570 -22.269  0.00  0.00    -0.000 C 
ATOM     28  C   UNL     1      34.650  -7.587 -23.135  0.00  0.00    -0.000 C 
ENDBRANCH  22  23
ENDBRANCH   4  22
TORSDOF 6
ENDMDL
MODEL 5
REMARK VINA RESULT:     -10.7      2.350      9.408
REMARK  Name = 9896504
REMARK  6 active torsions:
REMARK  status: ('A' for Active; 'I' for Inactive)
REMARK    1  A    between atoms: N_4  and  C_22
REMARK    2  A    between atoms: C_11  and  C_13
REMARK    3  A    between atoms: C_13  and  O_14
REMARK    4  A    between atoms: O_14  and  C_15
REMARK    5  A    between atoms: C_15  and  C_16
REMARK    6  A    between atoms: C_22  and  C_23
REMARK                            x       y       z     vdW  Elec       q    Type
REMARK                         _______ _______ _______ _____ _____    ______ ____
ROOT
ATOM      1  S   UNL     1      35.288 -18.283 -24.006  0.00  0.00    -0.064 S 
ATOM      2  O   UNL     1      33.808 -13.989 -22.128  0.00  0.00    -0.251 OA
ATOM      3  O   UNL     1      32.857 -14.718 -26.657  0.00  0.00    -0.269 OA
ATOM      4  N   UNL     1      33.294 -14.295 -24.393  0.00  0.00    -0.206 N 
ATOM      5  N   UNL     1      34.432 -15.954 -23.170  0.00  0.00    -0.214 N 
ATOM      6  C   UNL     1      34.490 -16.759 -24.285  0.00  0.00    +0.094 C 
ATOM      7  C   UNL     1      33.843 -14.691 -23.142  0.00  0.00    +0.321 C 
ATOM      8  C   UNL     1      33.323 -15.063 -25.572  0.00  0.00    +0.258 C 
ATOM      9  C   UNL     1      33.979 -16.390 -25.460  0.00  0.00    +0.080 C 
ATOM     10  C   UNL     1      35.035 -16.579 -22.103  0.00  0.00    +0.087 C 
ATOM     11  C   UNL     1      35.527 -17.788 -22.375  0.00  0.00    +0.122 C 
ENDROOT
BRANCH  11  13
ATOM     12  O   UNL     1      37.414 -18.869 -21.433  0.00  0.00    -0.244 OA
ATOM     13  C   UNL     1      36.207 -18.644 -21.419  0.00  0.00    +0.349 C 
BRANCH  13  14
ATOM     14  O   UNL     1      35.298 -19.135 -20.533  0.00  0.00    -0.440 OA
BRANCH  14  15
ATOM     15  C   UNL     1      34.783 -20.437 -20.825  0.00  0.00    +0.235 C 
BRANCH  15  16
ATOM     16  C   UNL     1      34.849 -21.280 -19.585  0.00  0.00    +0.021 C 
ATOM     17  C   UNL     1      33.721 -21.972 -19.161  0.00  0.00    -0.001 C 
ATOM     18  C   UNL     1      36.039 -21.360 -18.870  0.00  0.00    -0.001 C 
ATOM     19  C   UNL     1      33.783 -22.756 -18.009  0.00  0.00    -0.000 C 
ATOM     20  C   UNL     1      36.101 -22.144 -17.718  0.00  0.00    -0.000 C 
ATOM     21  C   UNL     1      34.973 -22.841 -17.288  0.00  0.00    -0.000 C 
ENDBRANCH  15  16
ENDBRANCH  14  15
ENDBRANCH  13  14
ENDBRANCH  11  13
BRANCH   4  22
ATOM     22  C   UNL     1      32.649 -12.990 -24.485  0.00  0.00    +0.129 C 
BRANCH  22  23
ATOM     23  C   UNL     1      33.631 -11.899 -24.798  0.00  0.00    -0.002 C 
ATOM     24  C   UNL     1      34.302 -11.907 -26.015  0.00  0.00    -0.003 C 
ATOM     25  C   UNL     1      33.857 -10.890 -23.869  0.00  0.00    -0.003 C 
ATOM     26  C   UNL     1      35.215 -10.893 -26.307  0.00  0.00    -0.000 C 
ATOM     27  C   UNL     1      34.769  -9.875 -24.161  0.00  0.00    -0.000 C 
ATOM     28  C   UNL     1      35.448  -9.877 -25.380  0.00  0.00    -0.000 C 
ENDBRANCH  22  23
ENDBRANCH   4  22
TORSDOF 6
ENDMDL
MODEL 6
REMARK VINA RESULT:     -10.7      2.861     10.012
REMARK  Name = 9896504
REMARK  6 active torsions:
REMARK  status: ('A' for Active; 'I' for Inactive)
REMARK    1  A    between atoms: N_4  and  C_22
REMARK    2  A    between atoms: C_11  and  C_13
REMARK    3  A    between atoms: C_13  and  O_14
REMARK    4  A    between atoms: O_14  and  C_15
REMARK    5  A    between atoms: C_15  and  C_16
REMARK    6  A    between atoms: C_22  and  C_23
REMARK                            x       y       z     vdW  Elec       q    Type
REMARK                         _______ _______ _______ _____ _____    ______ ____
ROOT
ATOM      1  S   UNL     1      32.052 -12.828 -23.059  0.00  0.00    -0.064 S 
ATOM      2  O   UNL     1      35.223  -9.532 -24.859  0.00  0.00    -0.251 OA
ATOM      3  O   UNL     1      32.380  -8.037 -21.449  0.00  0.00    -0.269 OA
ATOM      4  N   UNL     1      33.837  -8.724 -23.151  0.00  0.00    -0.206 N 
ATOM      5  N   UNL     1      33.673 -10.951 -23.900  0.00  0.00    -0.214 N 
ATOM      6  C   UNL     1      32.662 -11.196 -22.999  0.00  0.00    +0.094 C 
ATOM      7  C   UNL     1      34.321  -9.725 -24.040  0.00  0.00    +0.321 C 
ATOM      8  C   UNL     1      32.805  -8.904 -22.212  0.00  0.00    +0.258 C 
ATOM      9  C   UNL     1      32.204 -10.260 -22.166  0.00  0.00    +0.080 C 
ATOM     10  C   UNL     1      33.942 -12.085 -24.630  0.00  0.00    +0.087 C 
ATOM     11  C   UNL     1      33.189 -13.139 -24.313  0.00  0.00    +0.122 C 
ENDROOT
BRANCH  11  13
ATOM     12  O   UNL     1      33.225 -14.634 -26.152  0.00  0.00    -0.244 OA
ATOM     13  C   UNL     1      33.282 -14.446 -24.940  0.00  0.00    +0.349 C 
BRANCH  13  14
ATOM     14  O   UNL     1      33.438 -15.394 -23.975  0.00  0.00    -0.440 OA
BRANCH  14  15
ATOM     15  C   UNL     1      34.781 -15.624 -23.539  0.00  0.00    +0.235 C 
BRANCH  15  16
ATOM     16  C   UNL     1      34.881 -17.009 -22.970  0.00  0.00    +0.021 C 
ATOM     17  C   UNL     1      35.018 -17.181 -21.598  0.00  0.00    -0.001 C 
ATOM     18  C   UNL     1      34.836 -18.108 -23.821  0.00  0.00    -0.001 C 
ATOM     19  C   UNL     1      35.110 -18.469 -21.068  0.00  0.00    -0.000 C 
ATOM     20  C   UNL     1      34.927 -19.395 -23.292  0.00  0.00    -0.000 C 
ATOM     21  C   UNL     1      35.064 -19.575 -21.916  0.00  0.00    -0.000 C 
ENDBRANCH  15  16
ENDBRANCH  14  15
ENDBRANCH  13  14
ENDBRANCH  11  13
BRANCH   4  22
ATOM     22  C   UNL     1      34.443  -7.398 -23.205  0.00  0.00    +0.129 C 
BRANCH  22  23
ATOM     23  C   UNL     1      33.840  -6.550 -24.286  0.00  0.00    -0.002 C 
ATOM     24  C   UNL     1      32.535  -6.090 -24.152  0.00  0.00    -0.003 C 
ATOM     25  C   UNL     1      34.593  -6.230 -25.409  0.00  0.00    -0.003 C 
ATOM     26  C   UNL     1      31.974  -5.301 -25.157  0.00  0.00    -0.000 C 
ATOM     27  C   UNL     1      34.033  -5.440 -26.414  0.00  0.00    -0.000 C 
ATOM     28  C   UNL     1      32.723  -4.976 -26.287  0.00  0.00    -0.000 C 
ENDBRANCH  22  23
ENDBRANCH   4  22
TORSDOF 6
ENDMDL
MODEL 7
REMARK VINA RESULT:     -10.6      4.545     10.602
REMARK  Name = 9896504
REMARK  6 active torsions:
REMARK  status: ('A' for Active; 'I' for Inactive)
REMARK    1  A    between atoms: N_4  and  C_22
REMARK    2  A    between atoms: C_11  and  C_13
REMARK    3  A    between atoms: C_13  and  O_14
REMARK    4  A    between atoms: O_14  and  C_15
REMARK    5  A    between atoms: C_15  and  C_16
REMARK    6  A    between atoms: C_22  and  C_23
REMARK                            x       y       z     vdW  Elec       q    Type
REMARK                         _______ _______ _______ _____ _____    ______ ____
ROOT
ATOM      1  S   UNL     1      36.498 -21.801 -18.156  0.00  0.00    -0.064 S 
ATOM      2  O   UNL     1      32.898 -20.222 -21.106  0.00  0.00    -0.251 OA
ATOM      3  O   UNL     1      37.181 -18.528 -21.960  0.00  0.00    -0.269 OA
ATOM      4  N   UNL     1      35.015 -19.345 -21.592  0.00  0.00    -0.206 N 
ATOM      5  N   UNL     1      34.704 -20.860 -19.816  0.00  0.00    -0.214 N 
ATOM      6  C   UNL     1      36.045 -20.800 -19.510  0.00  0.00    +0.094 C 
ATOM      7  C   UNL     1      34.103 -20.152 -20.856  0.00  0.00    +0.321 C 
ATOM      8  C   UNL     1      36.393 -19.233 -21.330  0.00  0.00    +0.258 C 
ATOM      9  C   UNL     1      36.902 -20.043 -20.196  0.00  0.00    +0.080 C 
ATOM     10  C   UNL     1      34.058 -21.712 -18.951  0.00  0.00    +0.087 C 
ATOM     11  C   UNL     1      34.848 -22.276 -18.036  0.00  0.00    +0.122 C 
ENDROOT
BRANCH  11  13
ATOM     12  O   UNL     1      35.153 -23.956 -16.392  0.00  0.00    -0.244 OA
ATOM     13  C   UNL     1      34.404 -23.209 -17.015  0.00  0.00    +0.349 C 
BRANCH  13  14
ATOM     14  O   UNL     1      33.053 -23.109 -16.876  0.00  0.00    -0.440 OA
BRANCH  14  15
ATOM     15  C   UNL     1      32.529 -23.480 -15.598  0.00  0.00    +0.235 C 
BRANCH  15  16
ATOM     16  C   UNL     1      31.035 -23.592 -15.695  0.00  0.00    +0.021 C 
ATOM     17  C   UNL     1      30.324 -22.672 -16.457  0.00  0.00    -0.001 C 
ATOM     18  C   UNL     1      30.376 -24.615 -15.023  0.00  0.00    -0.001 C 
ATOM     19  C   UNL     1      28.936 -22.776 -16.548  0.00  0.00    -0.000 C 
ATOM     20  C   UNL     1      28.987 -24.719 -15.114  0.00  0.00    -0.000 C 
ATOM     21  C   UNL     1      28.268 -23.799 -15.877  0.00  0.00    -0.000 C 
ENDBRANCH  15  16
ENDBRANCH  14  15
ENDBRANCH  13  14
ENDBRANCH  11  13
BRANCH   4  22
ATOM     22  C   UNL     1      34.500 -18.559 -22.707  0.00  0.00    +0.129 C 
BRANCH  22  23
ATOM     23  C   UNL     1      34.421 -17.098 -22.375  0.00  0.00    -0.002 C 
ATOM     24  C   UNL     1      34.598 -16.154 -23.380  0.00  0.00    -0.003 C 
ATOM     25  C   UNL     1      34.170 -16.702 -21.066  0.00  0.00    -0.003 C 
ATOM     26  C   UNL     1      34.524 -14.795 -23.072  0.00  0.00    -0.000 C 
ATOM     27  C   UNL     1      34.095 -15.344 -20.758  0.00  0.00    -0.000 C 
ATOM     28  C   UNL     1      34.273 -14.391 -21.761  0.00  0.00    -0.000 C 
ENDBRANCH  22  23
ENDBRANCH   4  22
TORSDOF 6
ENDMDL
MODEL 8
REMARK VINA RESULT:     -10.4      4.830     11.347
REMARK  Name = 9896504
REMARK  6 active torsions:
REMARK  status: ('A' for Active; 'I' for Inactive)
REMARK    1  A    between atoms: N_4  and  C_22
REMARK    2  A    between atoms: C_11  and  C_13
REMARK    3  A    between atoms: C_13  and  O_14
REMARK    4  A    between atoms: O_14  and  C_15
REMARK    5  A    between atoms: C_15  and  C_16
REMARK    6  A    between atoms: C_22  and  C_23
REMARK                            x       y       z     vdW  Elec       q    Type
REMARK                         _______ _______ _______ _____ _____    ______ ____
ROOT
ATOM      1  S   UNL     1      36.067 -21.976 -18.154  0.00  0.00    -0.064 S 
ATOM      2  O   UNL     1      32.838 -20.046 -21.316  0.00  0.00    -0.251 OA
ATOM      3  O   UNL     1      37.292 -18.676 -21.794  0.00  0.00    -0.269 OA
ATOM      4  N   UNL     1      35.049 -19.328 -21.615  0.00  0.00    -0.206 N 
ATOM      5  N   UNL     1      34.485 -20.856 -19.914  0.00  0.00    -0.214 N 
ATOM      6  C   UNL     1      35.799 -20.910 -19.507  0.00  0.00    +0.094 C 
ATOM      7  C   UNL     1      34.023 -20.078 -20.974  0.00  0.00    +0.321 C 
ATOM      8  C   UNL     1      36.407 -19.332 -21.247  0.00  0.00    +0.258 C 
ATOM      9  C   UNL     1      36.762 -20.207 -20.103  0.00  0.00    +0.080 C 
ATOM     10  C   UNL     1      33.711 -21.675 -19.126  0.00  0.00    +0.087 C 
ATOM     11  C   UNL     1      34.382 -22.322 -18.172  0.00  0.00    +0.122 C 
ENDROOT
BRANCH  11  13
ATOM     12  O   UNL     1      32.580 -23.380 -17.054  0.00  0.00    -0.244 OA
ATOM     13  C   UNL     1      33.789 -23.241 -17.216  0.00  0.00    +0.349 C 
BRANCH  13  14
ATOM     14  O   UNL     1      34.781 -23.899 -16.555  0.00  0.00    -0.440 OA
BRANCH  14  15
ATOM     15  C   UNL     1      34.752 -23.798 -15.128  0.00  0.00    +0.235 C 
BRANCH  15  16
ATOM     16  C   UNL     1      35.910 -24.566 -14.560  0.00  0.00    +0.021 C 
ATOM     17  C   UNL     1      36.207 -25.831 -15.056  0.00  0.00    -0.001 C 
ATOM     18  C   UNL     1      36.675 -24.007 -13.543  0.00  0.00    -0.001 C 
ATOM     19  C   UNL     1      37.283 -26.545 -14.528  0.00  0.00    -0.000 C 
ATOM     20  C   UNL     1      37.751 -24.721 -13.016  0.00  0.00    -0.000 C 
ATOM     21  C   UNL     1      38.054 -25.989 -13.509  0.00  0.00    -0.000 C 
ENDBRANCH  15  16
ENDBRANCH  14  15
ENDBRANCH  13  14
ENDBRANCH  11  13
BRANCH   4  22
ATOM     22  C   UNL     1      34.683 -18.476 -22.741  0.00  0.00    +0.129 C 
BRANCH  22  23
ATOM     23  C   UNL     1      34.558 -17.036 -22.339  0.00  0.00    -0.002 C 
ATOM     24  C   UNL     1      34.584 -16.045 -23.313  0.00  0.00    -0.003 C 
ATOM     25  C   UNL     1      34.414 -16.707 -20.996  0.00  0.00    -0.003 C 
ATOM     26  C   UNL     1      34.468 -14.705 -22.940  0.00  0.00    -0.000 C 
ATOM     27  C   UNL     1      34.296 -15.368 -20.622  0.00  0.00    -0.000 C 
ATOM     28  C   UNL     1      34.324 -14.368 -21.594  0.00  0.00    -0.000 C 
ENDBRANCH  22  23
ENDBRANCH   4  22
TORSDOF 6
ENDMDL
MODEL 9
REMARK VINA RESULT:     -10.4      1.809      9.344
REMARK  Name = 9896504
REMARK  6 active torsions:
REMARK  status: ('A' for Active; 'I' for Inactive)
REMARK    1  A    between atoms: N_4  and  C_22
REMARK    2  A    between atoms: C_11  and  C_13
REMARK    3  A    between atoms: C_13  and  O_14
REMARK    4  A    between atoms: O_14  and  C_15
REMARK    5  A    between atoms: C_15  and  C_16
REMARK    6  A    between atoms: C_22  and  C_23
REMARK                            x       y       z     vdW  Elec       q    Type
REMARK                         _______ _______ _______ _____ _____    ______ ____
ROOT
ATOM      1  S   UNL     1      34.869 -15.277 -23.129  0.00  0.00    -0.064 S 
ATOM      2  O   UNL     1      31.428 -12.778 -20.667  0.00  0.00    -0.251 OA
ATOM      3  O   UNL     1      32.904 -10.876 -24.685  0.00  0.00    -0.269 OA
ATOM      4  N   UNL     1      32.115 -11.779 -22.671  0.00  0.00    -0.206 N 
ATOM      5  N   UNL     1      33.040 -13.821 -21.950  0.00  0.00    -0.214 N 
ATOM      6  C   UNL     1      33.846 -13.867 -23.066  0.00  0.00    +0.094 C 
ATOM      7  C   UNL     1      32.136 -12.796 -21.676  0.00  0.00    +0.321 C 
ATOM      8  C   UNL     1      32.914 -11.760 -23.829  0.00  0.00    +0.258 C 
ATOM      9  C   UNL     1      33.831 -12.915 -23.998  0.00  0.00    +0.080 C 
ATOM     10  C   UNL     1      33.261 -14.924 -21.160  0.00  0.00    +0.087 C 
ATOM     11  C   UNL     1      34.177 -15.770 -21.633  0.00  0.00    +0.122 C 
ENDROOT
BRANCH  11  13
ATOM     12  O   UNL     1      35.559 -17.100 -20.241  0.00  0.00    -0.244 OA
ATOM     13  C   UNL     1      34.585 -17.003 -20.982  0.00  0.00    +0.349 C 
BRANCH  13  14
ATOM     14  O   UNL     1      33.724 -17.998 -21.330  0.00  0.00    -0.440 OA
BRANCH  14  15
ATOM     15  C   UNL     1      34.322 -19.181 -21.868  0.00  0.00    +0.235 C 
BRANCH  15  16
ATOM     16  C   UNL     1      34.412 -20.219 -20.787  0.00  0.00    +0.021 C 
ATOM     17  C   UNL     1      33.249 -20.706 -20.202  0.00  0.00    -0.001 C 
ATOM     18  C   UNL     1      35.657 -20.684 -20.381  0.00  0.00    -0.001 C 
ATOM     19  C   UNL     1      33.332 -21.671 -19.198  0.00  0.00    -0.000 C 
ATOM     20  C   UNL     1      35.741 -21.649 -19.376  0.00  0.00    -0.000 C 
ATOM     21  C   UNL     1      34.578 -22.142 -18.786  0.00  0.00    -0.000 C 
ENDBRANCH  15  16
ENDBRANCH  14  15
ENDBRANCH  13  14
ENDBRANCH  11  13
BRANCH   4  22
ATOM     22  C   UNL     1      31.205 -10.653 -22.493  0.00  0.00    +0.129 C 
BRANCH  22  23
ATOM     23  C   UNL     1      31.852  -9.519 -21.753  0.00  0.00    -0.002 C 
ATOM     24  C   UNL     1      32.529  -8.534 -22.463  0.00  0.00    -0.003 C 
ATOM     25  C   UNL     1      31.766  -9.463 -20.367  0.00  0.00    -0.003 C 
ATOM     26  C   UNL     1      33.131  -7.478 -21.776  0.00  0.00    -0.000 C 
ATOM     27  C   UNL     1      32.367  -8.408 -19.681  0.00  0.00    -0.000 C 
ATOM     28  C   UNL     1      33.049  -7.416 -20.385  0.00  0.00    -0.000 C 
ENDBRANCH  22  23
ENDBRANCH   4  22
TORSDOF 6
ENDMDL
