MODEL 1
REMARK VINA RESULT:      -6.4      0.000      0.000
REMARK  Name = 11840929
REMARK  4 active torsions:
REMARK  status: ('A' for Active; 'I' for Inactive)
REMARK    1  A    between atoms: C_2  and  C_9
REMARK    2  A    between atoms: C_9  and  C_10
REMARK    3  A    between atoms: C_10  and  C_11
REMARK    4  A    between atoms: C_11  and  C_13
REMARK                            x       y       z     vdW  Elec       q    Type
REMARK                         _______ _______ _______ _____ _____    ______ ____
ROOT
ATOM      1  N   UNL     1      35.550 -16.633 -23.662  0.00  0.00    +0.384 N 
ATOM      2  C   UNL     1      34.407 -18.693 -21.908  0.00  0.00    -0.004 C 
ATOM      3  C   UNL     1      35.019 -17.396 -21.363  0.00  0.00    -0.023 C 
ATOM      4  C   UNL     1      35.016 -19.023 -23.276  0.00  0.00    -0.023 C 
ATOM      5  C   UNL     1      34.925 -16.266 -22.389  0.00  0.00    -0.082 C 
ATOM      6  C   UNL     1      34.922 -17.830 -24.227  0.00  0.00    -0.082 C 
ATOM      7  H   UNL     1      36.541 -16.817 -23.506  0.00  0.00    -0.085 HD
ATOM      8  H   UNL     1      35.428 -15.862 -24.318  0.00  0.00    -0.085 HD
ENDROOT
BRANCH   2   9
ATOM      9  C   UNL     1      34.602 -19.845 -20.927  0.00  0.00    +0.000 C 
BRANCH   9  10
ATOM     10  C   UNL     1      33.274 -20.285 -20.317  0.00  0.00    +0.008 C 
BRANCH  10  11
ATOM     11  C   UNL     1      33.442 -21.556 -19.493  0.00  0.00    +0.072 C 
BRANCH  11  13
ATOM     12  O   UNL     1      35.345 -22.423 -18.259  0.00  0.00    -0.288 OA
ATOM     13  C   UNL     1      34.891 -21.926 -19.284  0.00  0.00    +0.207 C 
ENDBRANCH  11  13
ENDBRANCH  10  11
ENDBRANCH   9  10
ENDBRANCH   2   9
TORSDOF 4
ENDMDL
MODEL 2
REMARK VINA RESULT:      -6.2      3.681      5.508
REMARK  Name = 11840929
REMARK  4 active torsions:
REMARK  status: ('A' for Active; 'I' for Inactive)
REMARK    1  A    between atoms: C_2  and  C_9
REMARK    2  A    between atoms: C_9  and  C_10
REMARK    3  A    between atoms: C_10  and  C_11
REMARK    4  A    between atoms: C_11  and  C_13
REMARK                            x       y       z     vdW  Elec       q    Type
REMARK                         _______ _______ _______ _____ _____    ______ ____
ROOT
ATOM      1  N   UNL     1      34.351 -22.126 -19.536  0.00  0.00    +0.384 N 
ATOM      2  C   UNL     1      34.380 -19.450 -20.746  0.00  0.00    -0.004 C 
ATOM      3  C   UNL     1      33.102 -20.293 -20.644  0.00  0.00    -0.023 C 
ATOM      4  C   UNL     1      35.611 -20.366 -20.746  0.00  0.00    -0.023 C 
ATOM      5  C   UNL     1      33.171 -21.261 -19.463  0.00  0.00    -0.082 C 
ATOM      6  C   UNL     1      35.582 -21.331 -19.562  0.00  0.00    -0.082 C 
ATOM      7  H   UNL     1      34.300 -22.689 -20.386  0.00  0.00    -0.085 HD
ATOM      8  H   UNL     1      34.368 -22.725 -18.711  0.00  0.00    -0.085 HD
ENDROOT
BRANCH   2   9
ATOM      9  C   UNL     1      34.355 -18.565 -21.989  0.00  0.00    +0.000 C 
BRANCH   9  10
ATOM     10  C   UNL     1      35.050 -19.243 -23.167  0.00  0.00    +0.008 C 
BRANCH  10  11
ATOM     11  C   UNL     1      34.472 -18.766 -24.495  0.00  0.00    +0.072 C 
BRANCH  11  13
ATOM     12  O   UNL     1      34.739 -16.805 -25.902  0.00  0.00    -0.288 OA
ATOM     13  C   UNL     1      34.821 -17.328 -24.796  0.00  0.00    +0.207 C 
ENDBRANCH  11  13
ENDBRANCH  10  11
ENDBRANCH   9  10
ENDBRANCH   2   9
TORSDOF 4
ENDMDL
MODEL 3
REMARK VINA RESULT:      -6.2      1.267      2.139
REMARK  Name = 11840929
REMARK  4 active torsions:
REMARK  status: ('A' for Active; 'I' for Inactive)
REMARK    1  A    between atoms: C_2  and  C_9
REMARK    2  A    between atoms: C_9  and  C_10
REMARK    3  A    between atoms: C_10  and  C_11
REMARK    4  A    between atoms: C_11  and  C_13
REMARK                            x       y       z     vdW  Elec       q    Type
REMARK                         _______ _______ _______ _____ _____    ______ ____
ROOT
ATOM      1  N   UNL     1      34.229 -16.090 -24.559  0.00  0.00    +0.384 N 
ATOM      2  C   UNL     1      35.214 -18.361 -22.977  0.00  0.00    -0.004 C 
ATOM      3  C   UNL     1      34.506 -18.543 -24.326  0.00  0.00    -0.023 C 
ATOM      4  C   UNL     1      34.780 -17.037 -22.334  0.00  0.00    -0.023 C 
ATOM      5  C   UNL     1      34.689 -17.315 -25.218  0.00  0.00    -0.082 C 
ATOM      6  C   UNL     1      34.952 -15.868 -23.304  0.00  0.00    -0.082 C 
ATOM      7  H   UNL     1      33.232 -16.173 -24.360  0.00  0.00    -0.085 HD
ATOM      8  H   UNL     1      34.406 -15.301 -25.180  0.00  0.00    -0.085 HD
ENDROOT
BRANCH   2   9
ATOM      9  C   UNL     1      34.937 -19.538 -22.048  0.00  0.00    +0.000 C 
BRANCH   9  10
ATOM     10  C   UNL     1      33.979 -19.147 -20.927  0.00  0.00    +0.008 C 
BRANCH  10  11
ATOM     11  C   UNL     1      32.979 -20.262 -20.643  0.00  0.00    +0.072 C 
BRANCH  11  13
ATOM     12  O   UNL     1      32.874 -22.243 -19.243  0.00  0.00    -0.288 OA
ATOM     13  C   UNL     1      33.496 -21.263 -19.638  0.00  0.00    +0.207 C 
ENDBRANCH  11  13
ENDBRANCH  10  11
ENDBRANCH   9  10
ENDBRANCH   2   9
TORSDOF 4
ENDMDL
MODEL 4
REMARK VINA RESULT:      -5.8      3.210      5.205
REMARK  Name = 11840929
REMARK  4 active torsions:
REMARK  status: ('A' for Active; 'I' for Inactive)
REMARK    1  A    between atoms: C_2  and  C_9
REMARK    2  A    between atoms: C_9  and  C_10
REMARK    3  A    between atoms: C_10  and  C_11
REMARK    4  A    between atoms: C_11  and  C_13
REMARK                            x       y       z     vdW  Elec       q    Type
REMARK                         _______ _______ _______ _____ _____    ______ ____
ROOT
ATOM      1  N   UNL     1      35.179 -22.060 -18.761  0.00  0.00    +0.384 N 
ATOM      2  C   UNL     1      34.333 -20.180 -20.853  0.00  0.00    -0.004 C 
ATOM      3  C   UNL     1      35.755 -20.185 -20.279  0.00  0.00    -0.023 C 
ATOM      4  C   UNL     1      33.353 -20.764 -19.827  0.00  0.00    -0.023 C 
ATOM      5  C   UNL     1      36.135 -21.571 -19.757  0.00  0.00    -0.082 C 
ATOM      6  C   UNL     1      33.827 -22.127 -19.323  0.00  0.00    -0.082 C 
ATOM      7  H   UNL     1      35.176 -21.426 -17.961  0.00  0.00    -0.085 HD
ATOM      8  H   UNL     1      35.458 -22.997 -18.473  0.00  0.00    -0.085 HD
ENDROOT
BRANCH   2   9
ATOM      9  C   UNL     1      33.915 -18.773 -21.270  0.00  0.00    +0.000 C 
BRANCH   9  10
ATOM     10  C   UNL     1      34.700 -18.301 -22.491  0.00  0.00    +0.008 C 
BRANCH  10  11
ATOM     11  C   UNL     1      35.134 -16.847 -22.338  0.00  0.00    +0.072 C 
BRANCH  11  13
ATOM     12  O   UNL     1      34.945 -15.606 -20.260  0.00  0.00    -0.288 OA
ATOM     13  C   UNL     1      34.404 -16.139 -21.222  0.00  0.00    +0.207 C 
ENDBRANCH  11  13
ENDBRANCH  10  11
ENDBRANCH   9  10
ENDBRANCH   2   9
TORSDOF 4
ENDMDL
MODEL 5
REMARK VINA RESULT:      -5.7      2.848      4.246
REMARK  Name = 11840929
REMARK  4 active torsions:
REMARK  status: ('A' for Active; 'I' for Inactive)
REMARK    1  A    between atoms: C_2  and  C_9
REMARK    2  A    between atoms: C_9  and  C_10
REMARK    3  A    between atoms: C_10  and  C_11
REMARK    4  A    between atoms: C_11  and  C_13
REMARK                            x       y       z     vdW  Elec       q    Type
REMARK                         _______ _______ _______ _____ _____    ______ ____
ROOT
ATOM      1  N   UNL     1      32.131 -13.323 -22.797  0.00  0.00    +0.384 N 
ATOM      2  C   UNL     1      34.189 -14.728 -21.243  0.00  0.00    -0.004 C 
ATOM      3  C   UNL     1      34.135 -14.784 -22.775  0.00  0.00    -0.023 C 
ATOM      4  C   UNL     1      32.793 -14.433 -20.681  0.00  0.00    -0.023 C 
ATOM      5  C   UNL     1      33.471 -13.533 -23.350  0.00  0.00    -0.082 C 
ATOM      6  C   UNL     1      32.182 -13.196 -21.338  0.00  0.00    -0.082 C 
ATOM      7  H   UNL     1      31.541 -14.118 -23.043  0.00  0.00    -0.085 HD
ATOM      8  H   UNL     1      31.750 -12.461 -23.186  0.00  0.00    -0.085 HD
ENDROOT
BRANCH   2   9
ATOM      9  C   UNL     1      34.750 -16.025 -20.666  0.00  0.00    +0.000 C 
BRANCH   9  10
ATOM     10  C   UNL     1      34.926 -17.083 -21.752  0.00  0.00    +0.008 C 
BRANCH  10  11
ATOM     11  C   UNL     1      34.432 -18.445 -21.277  0.00  0.00    +0.072 C 
BRANCH  11  13
ATOM     12  O   UNL     1      36.470 -19.310 -20.279  0.00  0.00    -0.288 OA
ATOM     13  C   UNL     1      35.555 -19.436 -21.086  0.00  0.00    +0.207 C 
ENDBRANCH  11  13
ENDBRANCH  10  11
ENDBRANCH   9  10
ENDBRANCH   2   9
TORSDOF 4
ENDMDL
MODEL 6
REMARK VINA RESULT:      -5.6      2.645      4.119
REMARK  Name = 11840929
REMARK  4 active torsions:
REMARK  status: ('A' for Active; 'I' for Inactive)
REMARK    1  A    between atoms: C_2  and  C_9
REMARK    2  A    between atoms: C_9  and  C_10
REMARK    3  A    between atoms: C_10  and  C_11
REMARK    4  A    between atoms: C_11  and  C_13
REMARK                            x       y       z     vdW  Elec       q    Type
REMARK                         _______ _______ _______ _____ _____    ______ ____
ROOT
ATOM      1  N   UNL     1      32.959 -13.911 -24.460  0.00  0.00    +0.384 N 
ATOM      2  C   UNL     1      34.513 -16.369 -24.866  0.00  0.00    -0.004 C 
ATOM      3  C   UNL     1      33.366 -15.959 -25.798  0.00  0.00    -0.023 C 
ATOM      4  C   UNL     1      34.310 -15.745 -23.480  0.00  0.00    -0.023 C 
ATOM      5  C   UNL     1      33.178 -14.442 -25.808  0.00  0.00    -0.082 C 
ATOM      6  C   UNL     1      34.084 -14.236 -23.580  0.00  0.00    -0.082 C 
ATOM      7  H   UNL     1      32.106 -14.318 -24.076  0.00  0.00    -0.085 HD
ATOM      8  H   UNL     1      32.875 -12.896 -24.519  0.00  0.00    -0.085 HD
ENDROOT
BRANCH   2   9
ATOM      9  C   UNL     1      34.626 -17.888 -24.772  0.00  0.00    +0.000 C 
BRANCH   9  10
ATOM     10  C   UNL     1      35.469 -18.308 -23.570  0.00  0.00    +0.008 C 
BRANCH  10  11
ATOM     11  C   UNL     1      34.729 -19.323 -22.707  0.00  0.00    +0.072 C 
BRANCH  11  13
ATOM     12  O   UNL     1      35.727 -18.278 -20.755  0.00  0.00    -0.288 OA
ATOM     13  C   UNL     1      35.045 -19.177 -21.238  0.00  0.00    +0.207 C 
ENDBRANCH  11  13
ENDBRANCH  10  11
ENDBRANCH   9  10
ENDBRANCH   2   9
TORSDOF 4
ENDMDL
MODEL 7
REMARK VINA RESULT:      -5.6      1.904      2.524
REMARK  Name = 11840929
REMARK  4 active torsions:
REMARK  status: ('A' for Active; 'I' for Inactive)
REMARK    1  A    between atoms: C_2  and  C_9
REMARK    2  A    between atoms: C_9  and  C_10
REMARK    3  A    between atoms: C_10  and  C_11
REMARK    4  A    between atoms: C_11  and  C_13
REMARK                            x       y       z     vdW  Elec       q    Type
REMARK                         _______ _______ _______ _____ _____    ______ ____
ROOT
ATOM      1  N   UNL     1      34.167 -14.127 -22.397  0.00  0.00    +0.384 N 
ATOM      2  C   UNL     1      34.633 -16.998 -21.987  0.00  0.00    -0.004 C 
ATOM      3  C   UNL     1      34.706 -15.981 -20.841  0.00  0.00    -0.023 C 
ATOM      4  C   UNL     1      34.920 -16.301 -23.323  0.00  0.00    -0.023 C 
ATOM      5  C   UNL     1      33.824 -14.765 -21.123  0.00  0.00    -0.082 C 
ATOM      6  C   UNL     1      34.030 -15.072 -23.508  0.00  0.00    -0.082 C 
ATOM      7  H   UNL     1      35.132 -13.798 -22.356  0.00  0.00    -0.085 HD
ATOM      8  H   UNL     1      33.529 -13.347 -22.552  0.00  0.00    -0.085 HD
ENDROOT
BRANCH   2   9
ATOM      9  C   UNL     1      35.597 -18.157 -21.755  0.00  0.00    +0.000 C 
BRANCH   9  10
ATOM     10  C   UNL     1      34.993 -19.204 -20.823  0.00  0.00    +0.008 C 
BRANCH  10  11
ATOM     11  C   UNL     1      33.495 -19.355 -21.065  0.00  0.00    +0.072 C 
BRANCH  11  13
ATOM     12  O   UNL     1      32.726 -20.869 -19.328  0.00  0.00    -0.288 OA
ATOM     13  C   UNL     1      32.946 -20.650 -20.515  0.00  0.00    +0.207 C 
ENDBRANCH  11  13
ENDBRANCH  10  11
ENDBRANCH   9  10
ENDBRANCH   2   9
TORSDOF 4
ENDMDL
MODEL 8
REMARK VINA RESULT:      -5.5      3.800      5.405
REMARK  Name = 11840929
REMARK  4 active torsions:
REMARK  status: ('A' for Active; 'I' for Inactive)
REMARK    1  A    between atoms: C_2  and  C_9
REMARK    2  A    between atoms: C_9  and  C_10
REMARK    3  A    between atoms: C_10  and  C_11
REMARK    4  A    between atoms: C_11  and  C_13
REMARK                            x       y       z     vdW  Elec       q    Type
REMARK                         _______ _______ _______ _____ _____    ______ ____
ROOT
ATOM      1  N   UNL     1      35.316 -18.882 -23.725  0.00  0.00    +0.384 N 
ATOM      2  C   UNL     1      34.371 -17.004 -21.674  0.00  0.00    -0.004 C 
ATOM      3  C   UNL     1      35.028 -16.535 -22.979  0.00  0.00    -0.023 C 
ATOM      4  C   UNL     1      34.840 -18.425 -21.335  0.00  0.00    -0.023 C 
ATOM      5  C   UNL     1      34.822 -17.555 -24.099  0.00  0.00    -0.082 C 
ATOM      6  C   UNL     1      34.642 -19.371 -22.519  0.00  0.00    -0.082 C 
ATOM      7  H   UNL     1      36.319 -18.828 -23.547  0.00  0.00    -0.085 HD
ATOM      8  H   UNL     1      35.123 -19.529 -24.490  0.00  0.00    -0.085 HD
ENDROOT
BRANCH   2   9
ATOM      9  C   UNL     1      34.673 -16.040 -20.531  0.00  0.00    +0.000 C 
BRANCH   9  10
ATOM     10  C   UNL     1      34.332 -14.602 -20.914  0.00  0.00    +0.008 C 
BRANCH  10  11
ATOM     11  C   UNL     1      32.833 -14.346 -20.811  0.00  0.00    +0.072 C 
BRANCH  11  13
ATOM     12  O   UNL     1      32.917 -13.395 -23.044  0.00  0.00    -0.288 OA
ATOM     13  C   UNL     1      32.281 -13.634 -22.023  0.00  0.00    +0.207 C 
ENDBRANCH  11  13
ENDBRANCH  10  11
ENDBRANCH   9  10
ENDBRANCH   2   9
TORSDOF 4
ENDMDL
MODEL 9
REMARK VINA RESULT:      -5.4      7.656      8.868
REMARK  Name = 11840929
REMARK  4 active torsions:
REMARK  status: ('A' for Active; 'I' for Inactive)
REMARK    1  A    between atoms: C_2  and  C_9
REMARK    2  A    between atoms: C_9  and  C_10
REMARK    3  A    between atoms: C_10  and  C_11
REMARK    4  A    between atoms: C_11  and  C_13
REMARK                            x       y       z     vdW  Elec       q    Type
REMARK                         _______ _______ _______ _____ _____    ______ ____
ROOT
ATOM      1  N   UNL     1      34.759 -24.421 -15.404  0.00  0.00    +0.384 N 
ATOM      2  C   UNL     1      32.272 -23.006 -14.739  0.00  0.00    -0.004 C 
ATOM      3  C   UNL     1      32.905 -24.041 -13.800  0.00  0.00    -0.023 C 
ATOM      4  C   UNL     1      32.699 -23.284 -16.186  0.00  0.00    -0.023 C 
ATOM      5  C   UNL     1      34.418 -24.125 -14.010  0.00  0.00    -0.082 C 
ATOM      6  C   UNL     1      34.218 -23.398 -16.303  0.00  0.00    -0.082 C 
ATOM      7  H   UNL     1      34.367 -25.329 -15.658  0.00  0.00    -0.085 HD
ATOM      8  H   UNL     1      35.774 -24.432 -15.495  0.00  0.00    -0.085 HD
ENDROOT
BRANCH   2   9
ATOM      9  C   UNL     1      30.752 -23.004 -14.607  0.00  0.00    +0.000 C 
BRANCH   9  10
ATOM     10  C   UNL     1      30.076 -23.096 -15.973  0.00  0.00    +0.008 C 
BRANCH  10  11
ATOM     11  C   UNL     1      28.655 -22.546 -15.921  0.00  0.00    +0.072 C 
BRANCH  11  13
ATOM     12  O   UNL     1      27.647 -23.965 -17.614  0.00  0.00    -0.288 OA
ATOM     13  C   UNL     1      27.873 -22.841 -17.178  0.00  0.00    +0.207 C 
ENDBRANCH  11  13
ENDBRANCH  10  11
ENDBRANCH   9  10
ENDBRANCH   2   9
TORSDOF 4
ENDMDL
