MODEL 1
REMARK VINA RESULT:      -7.5      0.000      0.000
REMARK  Name = 10624
REMARK  7 active torsions:
REMARK  status: ('A' for Active; 'I' for Inactive)
REMARK    1  A    between atoms: C_2  and  C_18
REMARK    2  A    between atoms: C_6  and  O_11
REMARK    3  A    between atoms: O_11  and  P_12
REMARK    4  A    between atoms: P_12  and  O_14
REMARK    5  A    between atoms: P_12  and  O_16
REMARK    6  A    between atoms: C_18  and  C_19
REMARK    7  A    between atoms: C_19  and  N_20
REMARK                            x       y       z     vdW  Elec       q    Type
REMARK                         _______ _______ _______ _____ _____    ______ ____
ROOT
ATOM      1  N   UNL     1      36.845 -21.383 -17.696  0.00  0.00    -0.312 N 
ATOM      2  C   UNL     1      36.688 -22.543 -15.809  0.00  0.00    -0.006 C 
ATOM      3  C   UNL     1      35.499 -22.756 -16.563  0.00  0.00    +0.045 C 
ATOM      4  C   UNL     1      35.623 -22.018 -17.741  0.00  0.00    +0.051 C 
ATOM      5  C   UNL     1      37.495 -21.694 -16.531  0.00  0.00    +0.058 C 
ATOM      6  C   UNL     1      34.327 -23.509 -16.355  0.00  0.00    +0.150 C 
ATOM      7  C   UNL     1      34.630 -21.994 -18.727  0.00  0.00    +0.015 C 
ATOM      8  C   UNL     1      33.324 -23.496 -17.331  0.00  0.00    +0.037 C 
ATOM      9  C   UNL     1      33.475 -22.749 -18.498  0.00  0.00    +0.004 C 
ATOM     10  H   UNL     1      37.199 -20.792 -18.397  0.00  0.00    +0.152 HD
ENDROOT
BRANCH   6  11
ATOM     11  O   UNL     1      34.142 -24.256 -15.220  0.00  0.00    -0.403 OA
BRANCH  11  12
ATOM     12  P   UNL     1      33.026 -23.963 -14.092  0.00  0.00    +0.528 P 
ATOM     13  O   UNL     1      32.068 -22.852 -14.407  0.00  0.00    -0.216 OA
BRANCH  12  14
ATOM     14  O   UNL     1      32.355 -25.409 -13.813  0.00  0.00    -0.293 OA
ATOM     15  H   UNL     1      32.553 -26.005 -14.552  0.00  0.00    +0.223 HD
ENDBRANCH  12  14
BRANCH  12  16
ATOM     16  O   UNL     1      33.923 -23.719 -12.767  0.00  0.00    -0.293 OA
ATOM     17  H   UNL     1      34.333 -24.555 -12.496  0.00  0.00    +0.223 HD
ENDBRANCH  12  16
ENDBRANCH  11  12
ENDBRANCH   6  11
BRANCH   2  18
ATOM     18  C   UNL     1      37.012 -23.117 -14.487  0.00  0.00    +0.005 C 
BRANCH  18  19
ATOM     19  C   UNL     1      37.684 -24.499 -14.581  0.00  0.00    -0.073 C 
BRANCH  19  20
ATOM     20  N   UNL     1      36.780 -25.572 -14.184  0.00  0.00    +0.384 N 
ATOM     21  C   UNL     1      37.183 -26.136 -12.895  0.00  0.00    -0.101 C 
ATOM     22  C   UNL     1      36.742 -26.618 -15.207  0.00  0.00    -0.101 C 
ATOM     23  H   UNL     1      35.843 -25.181 -14.088  0.00  0.00    -0.080 HD
ENDBRANCH  19  20
ENDBRANCH  18  19
ENDBRANCH   2  18
TORSDOF 7
ENDMDL
MODEL 2
REMARK VINA RESULT:      -7.3      3.245      4.390
REMARK  Name = 10624
REMARK  7 active torsions:
REMARK  status: ('A' for Active; 'I' for Inactive)
REMARK    1  A    between atoms: C_2  and  C_18
REMARK    2  A    between atoms: C_6  and  O_11
REMARK    3  A    between atoms: O_11  and  P_12
REMARK    4  A    between atoms: P_12  and  O_14
REMARK    5  A    between atoms: P_12  and  O_16
REMARK    6  A    between atoms: C_18  and  C_19
REMARK    7  A    between atoms: C_19  and  N_20
REMARK                            x       y       z     vdW  Elec       q    Type
REMARK                         _______ _______ _______ _____ _____    ______ ____
ROOT
ATOM      1  N   UNL     1      32.985 -22.749 -18.429  0.00  0.00    -0.312 N 
ATOM      2  C   UNL     1      33.516 -23.236 -16.329  0.00  0.00    -0.006 C 
ATOM      3  C   UNL     1      34.670 -22.697 -16.967  0.00  0.00    +0.045 C 
ATOM      4  C   UNL     1      34.310 -22.401 -18.283  0.00  0.00    +0.051 C 
ATOM      5  C   UNL     1      32.498 -23.255 -17.254  0.00  0.00    +0.058 C 
ATOM      6  C   UNL     1      35.989 -22.433 -16.549  0.00  0.00    +0.150 C 
ATOM      7  C   UNL     1      35.206 -21.850 -19.206  0.00  0.00    +0.015 C 
ATOM      8  C   UNL     1      36.897 -21.883 -17.460  0.00  0.00    +0.037 C 
ATOM      9  C   UNL     1      36.509 -21.597 -18.768  0.00  0.00    +0.004 C 
ATOM     10  H   UNL     1      32.465 -22.649 -19.258  0.00  0.00    +0.152 HD
ENDROOT
BRANCH   6  11
ATOM     11  O   UNL     1      36.406 -22.701 -15.271  0.00  0.00    -0.403 OA
BRANCH  11  12
ATOM     12  P   UNL     1      37.299 -23.973 -14.837  0.00  0.00    +0.528 P 
ATOM     13  O   UNL     1      37.456 -24.176 -13.359  0.00  0.00    -0.216 OA
BRANCH  12  14
ATOM     14  O   UNL     1      36.647 -25.211 -15.650  0.00  0.00    -0.293 OA
ATOM     15  H   UNL     1      35.715 -25.305 -15.401  0.00  0.00    +0.223 HD
ENDBRANCH  12  14
BRANCH  12  16
ATOM     16  O   UNL     1      38.687 -23.712 -15.628  0.00  0.00    -0.293 OA
ATOM     17  H   UNL     1      39.293 -24.452 -15.470  0.00  0.00    +0.223 HD
ENDBRANCH  12  16
ENDBRANCH  11  12
ENDBRANCH   6  11
BRANCH   2  18
ATOM     18  C   UNL     1      33.413 -23.698 -14.931  0.00  0.00    +0.005 C 
BRANCH  18  19
ATOM     19  C   UNL     1      32.362 -22.922 -14.116  0.00  0.00    -0.073 C 
BRANCH  19  20
ATOM     20  N   UNL     1      31.242 -23.770 -13.724  0.00  0.00    +0.384 N 
ATOM     21  C   UNL     1      31.619 -25.183 -13.787  0.00  0.00    -0.101 C 
ATOM     22  C   UNL     1      30.079 -23.516 -14.576  0.00  0.00    -0.101 C 
ATOM     23  H   UNL     1      30.992 -23.544 -12.761  0.00  0.00    -0.080 HD
ENDBRANCH  19  20
ENDBRANCH  18  19
ENDBRANCH   2  18
TORSDOF 7
ENDMDL
MODEL 3
REMARK VINA RESULT:      -7.3      3.093      4.796
REMARK  Name = 10624
REMARK  7 active torsions:
REMARK  status: ('A' for Active; 'I' for Inactive)
REMARK    1  A    between atoms: C_2  and  C_18
REMARK    2  A    between atoms: C_6  and  O_11
REMARK    3  A    between atoms: O_11  and  P_12
REMARK    4  A    between atoms: P_12  and  O_14
REMARK    5  A    between atoms: P_12  and  O_16
REMARK    6  A    between atoms: C_18  and  C_19
REMARK    7  A    between atoms: C_19  and  N_20
REMARK                            x       y       z     vdW  Elec       q    Type
REMARK                         _______ _______ _______ _____ _____    ______ ____
ROOT
ATOM      1  N   UNL     1      34.198 -22.972 -17.164  0.00  0.00    -0.312 N 
ATOM      2  C   UNL     1      33.479 -23.636 -15.171  0.00  0.00    -0.006 C 
ATOM      3  C   UNL     1      34.863 -23.322 -15.063  0.00  0.00    +0.045 C 
ATOM      4  C   UNL     1      35.290 -22.910 -16.326  0.00  0.00    +0.051 C 
ATOM      5  C   UNL     1      33.100 -23.411 -16.474  0.00  0.00    +0.058 C 
ATOM      6  C   UNL     1      35.797 -23.351 -14.008  0.00  0.00    +0.150 C 
ATOM      7  C   UNL     1      36.609 -22.522 -16.590  0.00  0.00    +0.015 C 
ATOM      8  C   UNL     1      37.119 -22.966 -14.255  0.00  0.00    +0.037 C 
ATOM      9  C   UNL     1      37.517 -22.558 -15.527  0.00  0.00    +0.004 C 
ATOM     10  H   UNL     1      34.207 -22.737 -18.119  0.00  0.00    +0.152 HD
ENDROOT
BRANCH   6  11
ATOM     11  O   UNL     1      35.443 -23.746 -12.744  0.00  0.00    -0.403 OA
BRANCH  11  12
ATOM     12  P   UNL     1      36.301 -24.746 -11.813  0.00  0.00    +0.528 P 
ATOM     13  O   UNL     1      37.619 -24.210 -11.336  0.00  0.00    -0.216 OA
BRANCH  12  14
ATOM     14  O   UNL     1      35.266 -25.197 -10.654  0.00  0.00    -0.293 OA
ATOM     15  H   UNL     1      35.477 -24.726  -9.833  0.00  0.00    +0.223 HD
ENDBRANCH  12  14
BRANCH  12  16
ATOM     16  O   UNL     1      36.412 -26.072 -12.734  0.00  0.00    -0.293 OA
ATOM     17  H   UNL     1      36.874 -26.769 -12.243  0.00  0.00    +0.223 HD
ENDBRANCH  12  16
ENDBRANCH  11  12
ENDBRANCH   6  11
BRANCH   2  18
ATOM     18  C   UNL     1      32.594 -24.118 -14.091  0.00  0.00    +0.005 C 
BRANCH  18  19
ATOM     19  C   UNL     1      31.402 -23.181 -13.826  0.00  0.00    -0.073 C 
BRANCH  19  20
ATOM     20  N   UNL     1      30.136 -23.782 -14.228  0.00  0.00    +0.384 N 
ATOM     21  C   UNL     1      30.315 -25.201 -14.540  0.00  0.00    -0.101 C 
ATOM     22  C   UNL     1      29.572 -23.075 -15.379  0.00  0.00    -0.101 C 
ATOM     23  H   UNL     1      29.483 -23.702 -13.448  0.00  0.00    -0.080 HD
ENDBRANCH  19  20
ENDBRANCH  18  19
ENDBRANCH   2  18
TORSDOF 7
ENDMDL
MODEL 4
REMARK VINA RESULT:      -7.3     10.362     12.491
REMARK  Name = 10624
REMARK  7 active torsions:
REMARK  status: ('A' for Active; 'I' for Inactive)
REMARK    1  A    between atoms: C_2  and  C_18
REMARK    2  A    between atoms: C_6  and  O_11
REMARK    3  A    between atoms: O_11  and  P_12
REMARK    4  A    between atoms: P_12  and  O_14
REMARK    5  A    between atoms: P_12  and  O_16
REMARK    6  A    between atoms: C_18  and  C_19
REMARK    7  A    between atoms: C_19  and  N_20
REMARK                            x       y       z     vdW  Elec       q    Type
REMARK                         _______ _______ _______ _____ _____    ______ ____
ROOT
ATOM      1  N   UNL     1      34.801 -17.521 -20.986  0.00  0.00    -0.312 N 
ATOM      2  C   UNL     1      34.488 -15.596 -22.047  0.00  0.00    -0.006 C 
ATOM      3  C   UNL     1      34.573 -16.632 -23.020  0.00  0.00    +0.045 C 
ATOM      4  C   UNL     1      34.770 -17.829 -22.328  0.00  0.00    +0.051 C 
ATOM      5  C   UNL     1      34.632 -16.174 -20.807  0.00  0.00    +0.058 C 
ATOM      6  C   UNL     1      34.502 -16.665 -24.427  0.00  0.00    +0.150 C 
ATOM      7  C   UNL     1      34.899 -19.063 -22.975  0.00  0.00    +0.015 C 
ATOM      8  C   UNL     1      34.629 -17.892 -25.088  0.00  0.00    +0.037 C 
ATOM      9  C   UNL     1      34.825 -19.071 -24.371  0.00  0.00    +0.004 C 
ATOM     10  H   UNL     1      34.926 -18.174 -20.261  0.00  0.00    +0.152 HD
ENDROOT
BRANCH   6  11
ATOM     11  O   UNL     1      34.311 -15.527 -25.165  0.00  0.00    -0.403 OA
BRANCH  11  12
ATOM     12  P   UNL     1      33.104 -15.295 -26.211  0.00  0.00    +0.528 P 
ATOM     13  O   UNL     1      32.414 -16.541 -26.684  0.00  0.00    -0.216 OA
BRANCH  12  14
ATOM     14  O   UNL     1      32.156 -14.200 -25.489  0.00  0.00    -0.293 OA
ATOM     15  H   UNL     1      32.676 -13.407 -25.288  0.00  0.00    +0.223 HD
ENDBRANCH  12  14
BRANCH  12  16
ATOM     16  O   UNL     1      33.817 -14.438 -27.384  0.00  0.00    -0.293 OA
ATOM     17  H   UNL     1      34.581 -14.930 -27.725  0.00  0.00    +0.223 HD
ENDBRANCH  12  16
ENDBRANCH  11  12
ENDBRANCH   6  11
BRANCH   2  18
ATOM     18  C   UNL     1      34.285 -14.156 -22.303  0.00  0.00    +0.005 C 
BRANCH  18  19
ATOM     19  C   UNL     1      32.832 -13.702 -22.070  0.00  0.00    -0.073 C 
BRANCH  19  20
ATOM     20  N   UNL     1      32.466 -12.582 -22.929  0.00  0.00    +0.384 N 
ATOM     21  C   UNL     1      33.650 -12.034 -23.592  0.00  0.00    -0.101 C 
ATOM     22  C   UNL     1      31.788 -11.540 -22.156  0.00  0.00    -0.101 C 
ATOM     23  H   UNL     1      31.823 -12.924 -23.644  0.00  0.00    -0.080 HD
ENDBRANCH  19  20
ENDBRANCH  18  19
ENDBRANCH   2  18
TORSDOF 7
ENDMDL
MODEL 5
REMARK VINA RESULT:      -7.3      2.967      4.080
REMARK  Name = 10624
REMARK  7 active torsions:
REMARK  status: ('A' for Active; 'I' for Inactive)
REMARK    1  A    between atoms: C_2  and  C_18
REMARK    2  A    between atoms: C_6  and  O_11
REMARK    3  A    between atoms: O_11  and  P_12
REMARK    4  A    between atoms: P_12  and  O_14
REMARK    5  A    between atoms: P_12  and  O_16
REMARK    6  A    between atoms: C_18  and  C_19
REMARK    7  A    between atoms: C_19  and  N_20
REMARK                            x       y       z     vdW  Elec       q    Type
REMARK                         _______ _______ _______ _____ _____    ______ ____
ROOT
ATOM      1  N   UNL     1      33.843 -23.972 -13.145  0.00  0.00    -0.312 N 
ATOM      2  C   UNL     1      35.397 -23.628 -14.693  0.00  0.00    -0.006 C 
ATOM      3  C   UNL     1      34.120 -23.458 -15.298  0.00  0.00    +0.045 C 
ATOM      4  C   UNL     1      33.163 -23.679 -14.306  0.00  0.00    +0.051 C 
ATOM      5  C   UNL     1      35.194 -23.943 -13.369  0.00  0.00    +0.058 C 
ATOM      6  C   UNL     1      33.686 -23.136 -16.599  0.00  0.00    +0.150 C 
ATOM      7  C   UNL     1      31.788 -23.594 -14.550  0.00  0.00    +0.015 C 
ATOM      8  C   UNL     1      32.314 -23.047 -16.859  0.00  0.00    +0.037 C 
ATOM      9  C   UNL     1      31.381 -23.273 -15.848  0.00  0.00    +0.004 C 
ATOM     10  H   UNL     1      33.421 -24.172 -12.280  0.00  0.00    +0.152 HD
ENDROOT
BRANCH   6  11
ATOM     11  O   UNL     1      34.573 -22.906 -17.618  0.00  0.00    -0.403 OA
BRANCH  11  12
ATOM     12  P   UNL     1      34.165 -22.489 -19.123  0.00  0.00    +0.528 P 
ATOM     13  O   UNL     1      33.012 -21.536 -19.237  0.00  0.00    -0.216 OA
BRANCH  12  14
ATOM     14  O   UNL     1      35.554 -21.991 -19.787  0.00  0.00    -0.293 OA
ATOM     15  H   UNL     1      35.505 -21.039 -19.963  0.00  0.00    +0.223 HD
ENDBRANCH  12  14
BRANCH  12  16
ATOM     16  O   UNL     1      33.920 -23.924 -19.830  0.00  0.00    -0.293 OA
ATOM     17  H   UNL     1      33.923 -24.621 -19.156  0.00  0.00    +0.223 HD
ENDBRANCH  12  16
ENDBRANCH  11  12
ENDBRANCH   6  11
BRANCH   2  18
ATOM     18  C   UNL     1      36.713 -23.496 -15.351  0.00  0.00    +0.005 C 
BRANCH  18  19
ATOM     19  C   UNL     1      37.857 -24.130 -14.539  0.00  0.00    -0.073 C 
BRANCH  19  20
ATOM     20  N   UNL     1      38.368 -25.341 -15.171  0.00  0.00    +0.384 N 
ATOM     21  C   UNL     1      37.701 -26.525 -14.628  0.00  0.00    -0.101 C 
ATOM     22  C   UNL     1      39.817 -25.445 -14.989  0.00  0.00    -0.101 C 
ATOM     23  H   UNL     1      38.171 -25.287 -16.170  0.00  0.00    -0.080 HD
ENDBRANCH  19  20
ENDBRANCH  18  19
ENDBRANCH   2  18
TORSDOF 7
ENDMDL
MODEL 6
REMARK VINA RESULT:      -7.0      8.577     10.471
REMARK  Name = 10624
REMARK  7 active torsions:
REMARK  status: ('A' for Active; 'I' for Inactive)
REMARK    1  A    between atoms: C_2  and  C_18
REMARK    2  A    between atoms: C_6  and  O_11
REMARK    3  A    between atoms: O_11  and  P_12
REMARK    4  A    between atoms: P_12  and  O_14
REMARK    5  A    between atoms: P_12  and  O_16
REMARK    6  A    between atoms: C_18  and  C_19
REMARK    7  A    between atoms: C_19  and  N_20
REMARK                            x       y       z     vdW  Elec       q    Type
REMARK                         _______ _______ _______ _____ _____    ______ ____
ROOT
ATOM      1  N   UNL     1      34.403 -17.615 -25.502  0.00  0.00    -0.312 N 
ATOM      2  C   UNL     1      34.893 -17.101 -23.399  0.00  0.00    -0.006 C 
ATOM      3  C   UNL     1      34.232 -15.985 -23.987  0.00  0.00    +0.045 C 
ATOM      4  C   UNL     1      33.936 -16.334 -25.306  0.00  0.00    +0.051 C 
ATOM      5  C   UNL     1      34.984 -18.086 -24.355  0.00  0.00    +0.058 C 
ATOM      6  C   UNL     1      33.856 -14.710 -23.522  0.00  0.00    +0.150 C 
ATOM      7  C   UNL     1      33.279 -15.468 -26.188  0.00  0.00    +0.015 C 
ATOM      8  C   UNL     1      33.199 -13.832 -24.392  0.00  0.00    +0.037 C 
ATOM      9  C   UNL     1      32.916 -14.208 -25.704  0.00  0.00    +0.004 C 
ATOM     10  H   UNL     1      34.331 -18.118 -26.344  0.00  0.00    +0.152 HD
ENDROOT
BRANCH   6  11
ATOM     11  O   UNL     1      34.117 -14.306 -22.239  0.00  0.00    -0.403 OA
BRANCH  11  12
ATOM     12  P   UNL     1      33.091 -14.440 -21.001  0.00  0.00    +0.528 P 
ATOM     13  O   UNL     1      32.457 -13.157 -20.548  0.00  0.00    -0.216 OA
BRANCH  12  14
ATOM     14  O   UNL     1      32.065 -15.605 -21.459  0.00  0.00    -0.293 OA
ATOM     15  H   UNL     1      32.515 -16.463 -21.424  0.00  0.00    +0.223 HD
ENDBRANCH  12  14
BRANCH  12  16
ATOM     16  O   UNL     1      33.994 -15.174 -19.876  0.00  0.00    -0.293 OA
ATOM     17  H   UNL     1      34.326 -14.515 -19.248  0.00  0.00    +0.223 HD
ENDBRANCH  12  16
ENDBRANCH  11  12
ENDBRANCH   6  11
BRANCH   2  18
ATOM     18  C   UNL     1      35.400 -17.199 -22.015  0.00  0.00    +0.005 C 
BRANCH  18  19
ATOM     19  C   UNL     1      36.106 -18.537 -21.727  0.00  0.00    -0.073 C 
BRANCH  19  20
ATOM     20  N   UNL     1      35.503 -19.240 -20.600  0.00  0.00    +0.384 N 
ATOM     21  C   UNL     1      36.309 -20.403 -20.228  0.00  0.00    -0.101 C 
ATOM     22  C   UNL     1      34.135 -19.650 -20.922  0.00  0.00    -0.101 C 
ATOM     23  H   UNL     1      35.470 -18.600 -19.806  0.00  0.00    -0.080 HD
ENDBRANCH  19  20
ENDBRANCH  18  19
ENDBRANCH   2  18
TORSDOF 7
ENDMDL
MODEL 7
REMARK VINA RESULT:      -7.0     14.889     17.151
REMARK  Name = 10624
REMARK  7 active torsions:
REMARK  status: ('A' for Active; 'I' for Inactive)
REMARK    1  A    between atoms: C_2  and  C_18
REMARK    2  A    between atoms: C_6  and  O_11
REMARK    3  A    between atoms: O_11  and  P_12
REMARK    4  A    between atoms: P_12  and  O_14
REMARK    5  A    between atoms: P_12  and  O_16
REMARK    6  A    between atoms: C_18  and  C_19
REMARK    7  A    between atoms: C_19  and  N_20
REMARK                            x       y       z     vdW  Elec       q    Type
REMARK                         _______ _______ _______ _____ _____    ______ ____
ROOT
ATOM      1  N   UNL     1      32.075  -8.374 -19.559  0.00  0.00    -0.312 N 
ATOM      2  C   UNL     1      32.801  -8.016 -21.627  0.00  0.00    -0.006 C 
ATOM      3  C   UNL     1      32.319  -9.354 -21.549  0.00  0.00    +0.045 C 
ATOM      4  C   UNL     1      31.870  -9.552 -20.242  0.00  0.00    +0.051 C 
ATOM      5  C   UNL     1      32.639  -7.440 -20.388  0.00  0.00    +0.058 C 
ATOM      6  C   UNL     1      32.221 -10.416 -22.469  0.00  0.00    +0.150 C 
ATOM      7  C   UNL     1      31.325 -10.765 -19.806  0.00  0.00    +0.015 C 
ATOM      8  C   UNL     1      31.679 -11.636 -22.048  0.00  0.00    +0.037 C 
ATOM      9  C   UNL     1      31.239 -11.805 -20.736  0.00  0.00    +0.004 C 
ATOM     10  H   UNL     1      31.851  -8.224 -18.614  0.00  0.00    +0.152 HD
ENDROOT
BRANCH   6  11
ATOM     11  O   UNL     1      32.644 -10.287 -23.766  0.00  0.00    -0.403 OA
BRANCH  11  12
ATOM     12  P   UNL     1      33.942 -11.011 -24.392  0.00  0.00    +0.528 P 
ATOM     13  O   UNL     1      33.854 -11.341 -25.854  0.00  0.00    -0.216 OA
BRANCH  12  14
ATOM     14  O   UNL     1      35.176 -10.057 -23.962  0.00  0.00    -0.293 OA
ATOM     15  H   UNL     1      35.507 -10.329 -23.092  0.00  0.00    +0.223 HD
ENDBRANCH  12  14
BRANCH  12  16
ATOM     16  O   UNL     1      34.126 -12.297 -23.426  0.00  0.00    -0.293 OA
ATOM     17  H   UNL     1      34.643 -12.976 -23.887  0.00  0.00    +0.223 HD
ENDBRANCH  12  16
ENDBRANCH  11  12
ENDBRANCH   6  11
BRANCH   2  18
ATOM     18  C   UNL     1      33.378  -7.351 -22.813  0.00  0.00    +0.005 C 
BRANCH  18  19
ATOM     19  C   UNL     1      32.309  -6.841 -23.796  0.00  0.00    -0.073 C 
BRANCH  19  20
ATOM     20  N   UNL     1      32.106  -5.401 -23.682  0.00  0.00    +0.384 N 
ATOM     21  C   UNL     1      30.912  -5.111 -22.886  0.00  0.00    -0.101 C 
ATOM     22  C   UNL     1      31.995  -4.790 -25.007  0.00  0.00    -0.101 C 
ATOM     23  H   UNL     1      32.917  -5.002 -23.208  0.00  0.00    -0.080 HD
ENDBRANCH  19  20
ENDBRANCH  18  19
ENDBRANCH   2  18
TORSDOF 7
ENDMDL
MODEL 8
REMARK VINA RESULT:      -7.0      4.169      6.287
REMARK  Name = 10624
REMARK  7 active torsions:
REMARK  status: ('A' for Active; 'I' for Inactive)
REMARK    1  A    between atoms: C_2  and  C_18
REMARK    2  A    between atoms: C_6  and  O_11
REMARK    3  A    between atoms: O_11  and  P_12
REMARK    4  A    between atoms: P_12  and  O_14
REMARK    5  A    between atoms: P_12  and  O_16
REMARK    6  A    between atoms: C_18  and  C_19
REMARK    7  A    between atoms: C_19  and  N_20
REMARK                            x       y       z     vdW  Elec       q    Type
REMARK                         _______ _______ _______ _____ _____    ______ ____
ROOT
ATOM      1  N   UNL     1      32.934 -24.816 -13.577  0.00  0.00    -0.312 N 
ATOM      2  C   UNL     1      31.835 -23.786 -15.208  0.00  0.00    -0.006 C 
ATOM      3  C   UNL     1      33.229 -23.686 -15.478  0.00  0.00    +0.045 C 
ATOM      4  C   UNL     1      33.896 -24.340 -14.440  0.00  0.00    +0.051 C 
ATOM      5  C   UNL     1      31.686 -24.486 -14.033  0.00  0.00    +0.058 C 
ATOM      6  C   UNL     1      33.990 -23.100 -16.509  0.00  0.00    +0.150 C 
ATOM      7  C   UNL     1      35.290 -24.438 -14.380  0.00  0.00    +0.015 C 
ATOM      8  C   UNL     1      35.385 -23.190 -16.464  0.00  0.00    +0.037 C 
ATOM      9  C   UNL     1      36.024 -23.849 -15.415  0.00  0.00    +0.004 C 
ATOM     10  H   UNL     1      33.117 -25.320 -12.752  0.00  0.00    +0.152 HD
ENDROOT
BRANCH   6  11
ATOM     11  O   UNL     1      33.397 -22.444 -17.556  0.00  0.00    -0.403 OA
BRANCH  11  12
ATOM     12  P   UNL     1      33.841 -22.579 -19.102  0.00  0.00    +0.528 P 
ATOM     13  O   UNL     1      34.059 -23.982 -19.589  0.00  0.00    -0.216 OA
BRANCH  12  14
ATOM     14  O   UNL     1      32.733 -21.720 -19.910  0.00  0.00    -0.293 OA
ATOM     15  H   UNL     1      32.452 -20.967 -19.369  0.00  0.00    +0.223 HD
ENDBRANCH  12  14
BRANCH  12  16
ATOM     16  O   UNL     1      35.154 -21.635 -19.173  0.00  0.00    -0.293 OA
ATOM     17  H   UNL     1      35.278 -21.190 -18.320  0.00  0.00    +0.223 HD
ENDBRANCH  12  16
ENDBRANCH  11  12
ENDBRANCH   6  11
BRANCH   2  18
ATOM     18  C   UNL     1      30.734 -23.241 -16.027  0.00  0.00    +0.005 C 
BRANCH  18  19
ATOM     19  C   UNL     1      29.528 -22.784 -15.187  0.00  0.00    -0.073 C 
BRANCH  19  20
ATOM     20  N   UNL     1      28.280 -23.372 -15.659  0.00  0.00    +0.384 N 
ATOM     21  C   UNL     1      28.526 -24.254 -16.801  0.00  0.00    -0.101 C 
ATOM     22  C   UNL     1      27.322 -22.326 -16.021  0.00  0.00    -0.101 C 
ATOM     23  H   UNL     1      27.881 -23.927 -14.901  0.00  0.00    -0.080 HD
ENDBRANCH  19  20
ENDBRANCH  18  19
ENDBRANCH   2  18
TORSDOF 7
ENDMDL
MODEL 9
REMARK VINA RESULT:      -6.9     10.550     12.981
REMARK  Name = 10624
REMARK  7 active torsions:
REMARK  status: ('A' for Active; 'I' for Inactive)
REMARK    1  A    between atoms: C_2  and  C_18
REMARK    2  A    between atoms: C_6  and  O_11
REMARK    3  A    between atoms: O_11  and  P_12
REMARK    4  A    between atoms: P_12  and  O_14
REMARK    5  A    between atoms: P_12  and  O_16
REMARK    6  A    between atoms: C_18  and  C_19
REMARK    7  A    between atoms: C_19  and  N_20
REMARK                            x       y       z     vdW  Elec       q    Type
REMARK                         _______ _______ _______ _____ _____    ______ ____
ROOT
ATOM      1  N   UNL     1      33.070 -15.605 -26.526  0.00  0.00    -0.312 N 
ATOM      2  C   UNL     1      33.307 -14.150 -24.865  0.00  0.00    -0.006 C 
ATOM      3  C   UNL     1      33.895 -15.383 -24.464  0.00  0.00    +0.045 C 
ATOM      4  C   UNL     1      33.732 -16.278 -25.523  0.00  0.00    +0.051 C 
ATOM      5  C   UNL     1      32.809 -14.318 -26.136  0.00  0.00    +0.058 C 
ATOM      6  C   UNL     1      34.551 -15.825 -23.298  0.00  0.00    +0.150 C 
ATOM      7  C   UNL     1      34.195 -17.598 -25.475  0.00  0.00    +0.015 C 
ATOM      8  C   UNL     1      35.019 -17.142 -23.235  0.00  0.00    +0.037 C 
ATOM      9  C   UNL     1      34.843 -18.013 -24.308  0.00  0.00    +0.004 C 
ATOM     10  H   UNL     1      32.821 -15.991 -27.395  0.00  0.00    +0.152 HD
ENDROOT
BRANCH   6  11
ATOM     11  O   UNL     1      34.743 -14.997 -22.223  0.00  0.00    -0.403 OA
BRANCH  11  12
ATOM     12  P   UNL     1      33.854 -15.009 -20.876  0.00  0.00    +0.528 P 
ATOM     13  O   UNL     1      33.143 -13.725 -20.562  0.00  0.00    -0.216 OA
BRANCH  12  14
ATOM     14  O   UNL     1      32.910 -16.313 -21.035  0.00  0.00    -0.293 OA
ATOM     15  H   UNL     1      32.083 -16.174 -20.548  0.00  0.00    +0.223 HD
ENDBRANCH  12  14
BRANCH  12  16
ATOM     16  O   UNL     1      34.925 -15.473 -19.755  0.00  0.00    -0.293 OA
ATOM     17  H   UNL     1      34.550 -16.196 -19.229  0.00  0.00    +0.223 HD
ENDBRANCH  12  16
ENDBRANCH  11  12
ENDBRANCH   6  11
BRANCH   2  18
ATOM     18  C   UNL     1      33.234 -12.906 -24.073  0.00  0.00    +0.005 C 
BRANCH  18  19
ATOM     19  C   UNL     1      33.895 -11.706 -24.775  0.00  0.00    -0.073 C 
BRANCH  19  20
ATOM     20  N   UNL     1      34.187 -10.622 -23.844  0.00  0.00    +0.384 N 
ATOM     21  C   UNL     1      32.948 -10.011 -23.360  0.00  0.00    -0.101 C 
ATOM     22  C   UNL     1      35.039  -9.614 -24.476  0.00  0.00    -0.101 C 
ATOM     23  H   UNL     1      34.688 -11.014 -23.046  0.00  0.00    -0.080 HD
ENDBRANCH  19  20
ENDBRANCH  18  19
ENDBRANCH   2  18
TORSDOF 7
ENDMDL
