MODEL 1
REMARK VINA RESULT:      -9.7      0.000      0.000
REMARK  Name = 5289330
REMARK  7 active torsions:
REMARK  status: ('A' for Active; 'I' for Inactive)
REMARK    1  A    between atoms: C_1  and  C_8
REMARK    2  A    between atoms: C_2  and  O_15
REMARK    3  A    between atoms: C_8  and  C_9
REMARK    4  A    between atoms: O_15  and  C_16
REMARK    5  A    between atoms: C_16  and  C_17
REMARK    6  A    between atoms: C_17  and  N_19
REMARK    7  A    between atoms: N_19  and  O_21
REMARK                            x       y       z     vdW  Elec       q    Type
REMARK                         _______ _______ _______ _____ _____    ______ ____
ROOT
ATOM      1  C   UNL     1      33.682 -23.054 -17.439  0.00  0.00    +0.042 C 
ATOM      2  C   UNL     1      32.153 -23.217 -15.620  0.00  0.00    +0.139 C 
ATOM      3  C   UNL     1      32.383 -23.134 -16.993  0.00  0.00    +0.040 C 
ATOM      4  C   UNL     1      34.763 -23.051 -16.589  0.00  0.00    +0.003 C 
ATOM      5  C   UNL     1      33.228 -23.216 -14.731  0.00  0.00    +0.037 C 
ATOM      6  C   UNL     1      34.533 -23.133 -15.217  0.00  0.00    +0.003 C 
ENDROOT
BRANCH   1   8
ATOM      7  O   UNL     1      33.972 -24.032 -19.543  0.00  0.00    -0.287 OA
ATOM      8  C   UNL     1      33.929 -22.967 -18.910  0.00  0.00    +0.196 C 
BRANCH   8   9
ATOM      9  C   UNL     1      34.113 -21.698 -19.596  0.00  0.00    +0.039 C 
ATOM     10  C   UNL     1      33.004 -20.943 -19.979  0.00  0.00    +0.003 C 
ATOM     11  C   UNL     1      35.400 -21.234 -19.869  0.00  0.00    +0.003 C 
ATOM     12  C   UNL     1      33.182 -19.725 -20.635  0.00  0.00    +0.000 C 
ATOM     13  C   UNL     1      35.579 -20.017 -20.525  0.00  0.00    +0.000 C 
ATOM     14  C   UNL     1      34.470 -19.262 -20.908  0.00  0.00    +0.000 C 
ENDBRANCH   8   9
ENDBRANCH   1   8
BRANCH   2  15
ATOM     15  O   UNL     1      30.879 -23.298 -15.147  0.00  0.00    -0.474 OA
BRANCH  15  16
ATOM     16  C   UNL     1      30.132 -24.464 -15.493  0.00  0.00    +0.229 C 
BRANCH  16  17
ATOM     17  C   UNL     1      28.649 -24.169 -15.361  0.00  0.00    +0.171 C 
BRANCH  17  19
ATOM     18  O   UNL     1      27.513 -23.500 -17.932  0.00  0.00    -0.263 OA
ATOM     19  N   UNL     1      28.324 -22.860 -15.859  0.00  0.00    -0.161 N 
ATOM     20  C   UNL     1      27.788 -22.647 -17.096  0.00  0.00    +0.327 C 
BRANCH  19  21
ATOM     21  O   UNL     1      28.609 -21.821 -14.961  0.00  0.00    -0.291 OA
ATOM     22  H   UNL     1      29.412 -21.358 -15.246  0.00  0.00    +0.242 HD
ENDBRANCH  19  21
ENDBRANCH  17  19
ENDBRANCH  16  17
ENDBRANCH  15  16
ENDBRANCH   2  15
TORSDOF 7
ENDMDL
MODEL 2
REMARK VINA RESULT:      -9.7      4.262      6.454
REMARK  Name = 5289330
REMARK  7 active torsions:
REMARK  status: ('A' for Active; 'I' for Inactive)
REMARK    1  A    between atoms: C_1  and  C_8
REMARK    2  A    between atoms: C_2  and  O_15
REMARK    3  A    between atoms: C_8  and  C_9
REMARK    4  A    between atoms: O_15  and  C_16
REMARK    5  A    between atoms: C_16  and  C_17
REMARK    6  A    between atoms: C_17  and  N_19
REMARK    7  A    between atoms: N_19  and  O_21
REMARK                            x       y       z     vdW  Elec       q    Type
REMARK                         _______ _______ _______ _____ _____    ______ ____
ROOT
ATOM      1  C   UNL     1      35.045 -19.800 -20.884  0.00  0.00    +0.042 C 
ATOM      2  C   UNL     1      34.906 -21.522 -19.244  0.00  0.00    +0.139 C 
ATOM      3  C   UNL     1      35.682 -20.674 -20.033  0.00  0.00    +0.040 C 
ATOM      4  C   UNL     1      33.676 -19.728 -20.990  0.00  0.00    +0.003 C 
ATOM      5  C   UNL     1      33.514 -21.473 -19.327  0.00  0.00    +0.037 C 
ATOM      6  C   UNL     1      32.900 -20.576 -20.202  0.00  0.00    +0.003 C 
ENDROOT
BRANCH   1   8
ATOM      7  O   UNL     1      37.069 -18.758 -21.416  0.00  0.00    -0.287 OA
ATOM      8  C   UNL     1      35.877 -18.891 -21.728  0.00  0.00    +0.196 C 
BRANCH   8   9
ATOM      9  C   UNL     1      35.335 -18.179 -22.875  0.00  0.00    +0.039 C 
ATOM     10  C   UNL     1      35.199 -16.791 -22.835  0.00  0.00    +0.003 C 
ATOM     11  C   UNL     1      34.954 -18.885 -24.016  0.00  0.00    +0.003 C 
ATOM     12  C   UNL     1      34.680 -16.110 -23.936  0.00  0.00    +0.000 C 
ATOM     13  C   UNL     1      34.435 -18.204 -25.117  0.00  0.00    +0.000 C 
ATOM     14  C   UNL     1      34.299 -16.816 -25.077  0.00  0.00    +0.000 C 
ENDBRANCH   8   9
ENDBRANCH   1   8
BRANCH   2  15
ATOM     15  O   UNL     1      35.505 -22.397 -18.390  0.00  0.00    -0.474 OA
BRANCH  15  16
ATOM     16  C   UNL     1      36.685 -21.948 -17.725  0.00  0.00    +0.229 C 
BRANCH  16  17
ATOM     17  C   UNL     1      36.488 -22.056 -16.223  0.00  0.00    +0.171 C 
BRANCH  17  19
ATOM     18  O   UNL     1      38.366 -23.735 -14.807  0.00  0.00    -0.263 OA
ATOM     19  N   UNL     1      36.302 -23.421 -15.812  0.00  0.00    -0.161 N 
ATOM     20  C   UNL     1      37.257 -24.132 -15.144  0.00  0.00    +0.327 C 
BRANCH  19  21
ATOM     21  O   UNL     1      35.054 -23.957 -16.159  0.00  0.00    -0.291 OA
ATOM     22  H   UNL     1      35.011 -24.885 -15.881  0.00  0.00    +0.242 HD
ENDBRANCH  19  21
ENDBRANCH  17  19
ENDBRANCH  16  17
ENDBRANCH  15  16
ENDBRANCH   2  15
TORSDOF 7
ENDMDL
MODEL 3
REMARK VINA RESULT:      -9.6      6.346      9.642
REMARK  Name = 5289330
REMARK  7 active torsions:
REMARK  status: ('A' for Active; 'I' for Inactive)
REMARK    1  A    between atoms: C_1  and  C_8
REMARK    2  A    between atoms: C_2  and  O_15
REMARK    3  A    between atoms: C_8  and  C_9
REMARK    4  A    between atoms: O_15  and  C_16
REMARK    5  A    between atoms: C_16  and  C_17
REMARK    6  A    between atoms: C_17  and  N_19
REMARK    7  A    between atoms: N_19  and  O_21
REMARK                            x       y       z     vdW  Elec       q    Type
REMARK                         _______ _______ _______ _____ _____    ______ ____
ROOT
ATOM      1  C   UNL     1      35.465 -18.368 -22.521  0.00  0.00    +0.042 C 
ATOM      2  C   UNL     1      34.956 -16.243 -23.468  0.00  0.00    +0.139 C 
ATOM      3  C   UNL     1      35.413 -16.999 -22.390  0.00  0.00    +0.040 C 
ATOM      4  C   UNL     1      35.085 -19.022 -23.669  0.00  0.00    +0.003 C 
ATOM      5  C   UNL     1      34.563 -16.876 -24.648  0.00  0.00    +0.037 C 
ATOM      6  C   UNL     1      34.627 -18.266 -24.747  0.00  0.00    +0.003 C 
ENDROOT
BRANCH   1   8
ATOM      7  O   UNL     1      37.149 -19.051 -21.048  0.00  0.00    -0.287 OA
ATOM      8  C   UNL     1      35.957 -19.178 -21.365  0.00  0.00    +0.196 C 
BRANCH   8   9
ATOM      9  C   UNL     1      35.094 -20.086 -20.627  0.00  0.00    +0.039 C 
ATOM     10  C   UNL     1      33.712 -19.893 -20.630  0.00  0.00    +0.003 C 
ATOM     11  C   UNL     1      35.648 -21.150 -19.917  0.00  0.00    +0.003 C 
ATOM     12  C   UNL     1      32.885 -20.765 -19.922  0.00  0.00    +0.000 C 
ATOM     13  C   UNL     1      34.821 -22.022 -19.208  0.00  0.00    +0.000 C 
ATOM     14  C   UNL     1      33.439 -21.830 -19.211  0.00  0.00    +0.000 C 
ENDBRANCH   8   9
ENDBRANCH   1   8
BRANCH   2  15
ATOM     15  O   UNL     1      34.894 -14.886 -23.371  0.00  0.00    -0.474 OA
BRANCH  15  16
ATOM     16  C   UNL     1      33.808 -14.339 -22.625  0.00  0.00    +0.229 C 
BRANCH  16  17
ATOM     17  C   UNL     1      32.793 -13.737 -23.581  0.00  0.00    +0.171 C 
BRANCH  17  19
ATOM     18  O   UNL     1      32.510 -14.488 -26.357  0.00  0.00    -0.263 OA
ATOM     19  N   UNL     1      33.433 -13.135 -24.719  0.00  0.00    -0.161 N 
ATOM     20  C   UNL     1      33.233 -13.565 -25.999  0.00  0.00    +0.327 C 
BRANCH  19  21
ATOM     21  O   UNL     1      34.281 -12.065 -24.397  0.00  0.00    -0.291 OA
ATOM     22  H   UNL     1      35.073 -12.101 -24.956  0.00  0.00    +0.242 HD
ENDBRANCH  19  21
ENDBRANCH  17  19
ENDBRANCH  16  17
ENDBRANCH  15  16
ENDBRANCH   2  15
TORSDOF 7
ENDMDL
MODEL 4
REMARK VINA RESULT:      -9.6      3.456      5.485
REMARK  Name = 5289330
REMARK  7 active torsions:
REMARK  status: ('A' for Active; 'I' for Inactive)
REMARK    1  A    between atoms: C_1  and  C_8
REMARK    2  A    between atoms: C_2  and  O_15
REMARK    3  A    between atoms: C_8  and  C_9
REMARK    4  A    between atoms: O_15  and  C_16
REMARK    5  A    between atoms: C_16  and  C_17
REMARK    6  A    between atoms: C_17  and  N_19
REMARK    7  A    between atoms: N_19  and  O_21
REMARK                            x       y       z     vdW  Elec       q    Type
REMARK                         _______ _______ _______ _____ _____    ______ ____
ROOT
ATOM      1  C   UNL     1      33.551 -23.090 -17.439  0.00  0.00    +0.042 C 
ATOM      2  C   UNL     1      34.289 -23.215 -15.178  0.00  0.00    +0.139 C 
ATOM      3  C   UNL     1      34.589 -23.145 -16.538  0.00  0.00    +0.040 C 
ATOM      4  C   UNL     1      32.230 -23.101 -17.057  0.00  0.00    +0.003 C 
ATOM      5  C   UNL     1      32.959 -23.228 -14.756  0.00  0.00    +0.037 C 
ATOM      6  C   UNL     1      31.930 -23.172 -15.697  0.00  0.00    +0.003 C 
ENDROOT
BRANCH   1   8
ATOM      7  O   UNL     1      33.950 -24.084 -19.518  0.00  0.00    -0.287 OA
ATOM      8  C   UNL     1      33.872 -23.014 -18.896  0.00  0.00    +0.196 C 
BRANCH   8   9
ATOM      9  C   UNL     1      34.090 -21.750 -19.582  0.00  0.00    +0.039 C 
ATOM     10  C   UNL     1      35.389 -21.306 -19.834  0.00  0.00    +0.003 C 
ATOM     11  C   UNL     1      33.000 -20.982 -19.989  0.00  0.00    +0.003 C 
ATOM     12  C   UNL     1      35.596 -20.095 -20.492  0.00  0.00    +0.000 C 
ATOM     13  C   UNL     1      33.207 -19.770 -20.647  0.00  0.00    +0.000 C 
ATOM     14  C   UNL     1      34.505 -19.326 -20.899  0.00  0.00    +0.000 C 
ENDBRANCH   8   9
ENDBRANCH   1   8
BRANCH   2  15
ATOM     15  O   UNL     1      35.293 -23.269 -14.261  0.00  0.00    -0.474 OA
BRANCH  15  16
ATOM     16  C   UNL     1      36.628 -23.319 -14.763  0.00  0.00    +0.229 C 
BRANCH  16  17
ATOM     17  C   UNL     1      37.415 -24.367 -13.996  0.00  0.00    +0.171 C 
BRANCH  17  19
ATOM     18  O   UNL     1      38.345 -22.927 -11.669  0.00  0.00    -0.263 OA
ATOM     19  N   UNL     1      36.945 -24.495 -12.643  0.00  0.00    -0.161 N 
ATOM     20  C   UNL     1      37.453 -23.765 -11.607  0.00  0.00    +0.327 C 
BRANCH  19  21
ATOM     21  O   UNL     1      35.919 -25.437 -12.482  0.00  0.00    -0.291 OA
ATOM     22  H   UNL     1      35.326 -25.152 -11.770  0.00  0.00    +0.242 HD
ENDBRANCH  19  21
ENDBRANCH  17  19
ENDBRANCH  16  17
ENDBRANCH  15  16
ENDBRANCH   2  15
TORSDOF 7
ENDMDL
MODEL 5
REMARK VINA RESULT:      -9.6      6.117      9.356
REMARK  Name = 5289330
REMARK  7 active torsions:
REMARK  status: ('A' for Active; 'I' for Inactive)
REMARK    1  A    between atoms: C_1  and  C_8
REMARK    2  A    between atoms: C_2  and  O_15
REMARK    3  A    between atoms: C_8  and  C_9
REMARK    4  A    between atoms: O_15  and  C_16
REMARK    5  A    between atoms: C_16  and  C_17
REMARK    6  A    between atoms: C_17  and  N_19
REMARK    7  A    between atoms: N_19  and  O_21
REMARK                            x       y       z     vdW  Elec       q    Type
REMARK                         _______ _______ _______ _____ _____    ______ ____
ROOT
ATOM      1  C   UNL     1      35.327 -18.342 -22.654  0.00  0.00    +0.042 C 
ATOM      2  C   UNL     1      34.695 -16.285 -23.673  0.00  0.00    +0.139 C 
ATOM      3  C   UNL     1      35.181 -16.977 -22.565  0.00  0.00    +0.040 C 
ATOM      4  C   UNL     1      35.013 -19.053 -23.788  0.00  0.00    +0.003 C 
ATOM      5  C   UNL     1      34.367 -16.976 -24.840  0.00  0.00    +0.037 C 
ATOM      6  C   UNL     1      34.526 -18.361 -24.896  0.00  0.00    +0.003 C 
ENDROOT
BRANCH   1   8
ATOM      7  O   UNL     1      37.032 -18.889 -21.150  0.00  0.00    -0.287 OA
ATOM      8  C   UNL     1      35.849 -19.084 -21.466  0.00  0.00    +0.196 C 
BRANCH   8   9
ATOM      9  C   UNL     1      35.025 -20.002 -20.696  0.00  0.00    +0.039 C 
ATOM     10  C   UNL     1      35.617 -21.061 -20.007  0.00  0.00    +0.003 C 
ATOM     11  C   UNL     1      33.644 -19.822 -20.645  0.00  0.00    +0.003 C 
ATOM     12  C   UNL     1      34.826 -21.940 -19.267  0.00  0.00    +0.000 C 
ATOM     13  C   UNL     1      32.852 -20.701 -19.906  0.00  0.00    +0.000 C 
ATOM     14  C   UNL     1      33.443 -21.760 -19.217  0.00  0.00    +0.000 C 
ENDBRANCH   8   9
ENDBRANCH   1   8
BRANCH   2  15
ATOM     15  O   UNL     1      34.541 -14.933 -23.618  0.00  0.00    -0.474 OA
BRANCH  15  16
ATOM     16  C   UNL     1      33.347 -14.394 -24.184  0.00  0.00    +0.229 C 
BRANCH  16  17
ATOM     17  C   UNL     1      33.044 -13.054 -23.537  0.00  0.00    +0.171 C 
BRANCH  17  19
ATOM     18  O   UNL     1      31.779 -10.977 -21.976  0.00  0.00    -0.263 OA
ATOM     19  N   UNL     1      32.278 -13.211 -22.331  0.00  0.00    -0.161 N 
ATOM     20  C   UNL     1      31.718 -12.161 -21.663  0.00  0.00    +0.327 C 
BRANCH  19  21
ATOM     21  O   UNL     1      32.159 -14.541 -21.900  0.00  0.00    -0.291 OA
ATOM     22  H   UNL     1      31.978 -15.113 -22.661  0.00  0.00    +0.242 HD
ENDBRANCH  19  21
ENDBRANCH  17  19
ENDBRANCH  16  17
ENDBRANCH  15  16
ENDBRANCH   2  15
TORSDOF 7
ENDMDL
MODEL 6
REMARK VINA RESULT:      -9.4      3.449      5.410
REMARK  Name = 5289330
REMARK  7 active torsions:
REMARK  status: ('A' for Active; 'I' for Inactive)
REMARK    1  A    between atoms: C_1  and  C_8
REMARK    2  A    between atoms: C_2  and  O_15
REMARK    3  A    between atoms: C_8  and  C_9
REMARK    4  A    between atoms: O_15  and  C_16
REMARK    5  A    between atoms: C_16  and  C_17
REMARK    6  A    between atoms: C_17  and  N_19
REMARK    7  A    between atoms: N_19  and  O_21
REMARK                            x       y       z     vdW  Elec       q    Type
REMARK                         _______ _______ _______ _____ _____    ______ ____
ROOT
ATOM      1  C   UNL     1      33.572 -23.109 -17.418  0.00  0.00    +0.042 C 
ATOM      2  C   UNL     1      34.318 -23.210 -15.159  0.00  0.00    +0.139 C 
ATOM      3  C   UNL     1      34.613 -23.146 -16.520  0.00  0.00    +0.040 C 
ATOM      4  C   UNL     1      32.253 -23.132 -17.031  0.00  0.00    +0.003 C 
ATOM      5  C   UNL     1      32.990 -23.236 -14.733  0.00  0.00    +0.037 C 
ATOM      6  C   UNL     1      31.957 -23.197 -15.670  0.00  0.00    +0.003 C 
ENDROOT
BRANCH   1   8
ATOM      7  O   UNL     1      33.938 -24.110 -19.499  0.00  0.00    -0.287 OA
ATOM      8  C   UNL     1      33.888 -23.039 -18.877  0.00  0.00    +0.196 C 
BRANCH   8   9
ATOM      9  C   UNL     1      34.131 -21.780 -19.562  0.00  0.00    +0.039 C 
ATOM     10  C   UNL     1      33.057 -20.992 -19.978  0.00  0.00    +0.003 C 
ATOM     11  C   UNL     1      35.439 -21.358 -19.801  0.00  0.00    +0.003 C 
ATOM     12  C   UNL     1      33.292 -19.784 -20.634  0.00  0.00    +0.000 C 
ATOM     13  C   UNL     1      35.674 -20.150 -20.458  0.00  0.00    +0.000 C 
ATOM     14  C   UNL     1      34.600 -19.363 -20.874  0.00  0.00    +0.000 C 
ENDBRANCH   8   9
ENDBRANCH   1   8
BRANCH   2  15
ATOM     15  O   UNL     1      35.326 -23.247 -14.244  0.00  0.00    -0.474 OA
BRANCH  15  16
ATOM     16  C   UNL     1      35.640 -24.518 -13.677  0.00  0.00    +0.229 C 
BRANCH  16  17
ATOM     17  C   UNL     1      37.117 -24.562 -13.326  0.00  0.00    +0.171 C 
BRANCH  17  19
ATOM     18  O   UNL     1      38.296 -26.964 -14.415  0.00  0.00    -0.263 OA
ATOM     19  N   UNL     1      37.936 -24.678 -14.502  0.00  0.00    -0.161 N 
ATOM     20  C   UNL     1      38.449 -25.866 -14.936  0.00  0.00    +0.327 C 
BRANCH  19  21
ATOM     21  O   UNL     1      38.162 -23.461 -15.162  0.00  0.00    -0.291 OA
ATOM     22  H   UNL     1      38.771 -23.604 -15.903  0.00  0.00    +0.242 HD
ENDBRANCH  19  21
ENDBRANCH  17  19
ENDBRANCH  16  17
ENDBRANCH  15  16
ENDBRANCH   2  15
TORSDOF 7
ENDMDL
MODEL 7
REMARK VINA RESULT:      -9.4      7.209     10.356
REMARK  Name = 5289330
REMARK  7 active torsions:
REMARK  status: ('A' for Active; 'I' for Inactive)
REMARK    1  A    between atoms: C_1  and  C_8
REMARK    2  A    between atoms: C_2  and  O_15
REMARK    3  A    between atoms: C_8  and  C_9
REMARK    4  A    between atoms: O_15  and  C_16
REMARK    5  A    between atoms: C_16  and  C_17
REMARK    6  A    between atoms: C_17  and  N_19
REMARK    7  A    between atoms: N_19  and  O_21
REMARK                            x       y       z     vdW  Elec       q    Type
REMARK                         _______ _______ _______ _____ _____    ______ ____
ROOT
ATOM      1  C   UNL     1      35.331 -17.809 -22.808  0.00  0.00    +0.042 C 
ATOM      2  C   UNL     1      34.582 -15.624 -23.386  0.00  0.00    +0.139 C 
ATOM      3  C   UNL     1      35.106 -16.503 -22.440  0.00  0.00    +0.040 C 
ATOM      4  C   UNL     1      35.061 -18.285 -24.069  0.00  0.00    +0.003 C 
ATOM      5  C   UNL     1      34.296 -16.075 -24.675  0.00  0.00    +0.037 C 
ATOM      6  C   UNL     1      34.536 -17.407 -25.016  0.00  0.00    +0.003 C 
ENDROOT
BRANCH   1   8
ATOM      7  O   UNL     1      37.124 -18.738 -21.627  0.00  0.00    -0.287 OA
ATOM      8  C   UNL     1      35.895 -18.751 -21.793  0.00  0.00    +0.196 C 
BRANCH   8   9
ATOM      9  C   UNL     1      35.059 -19.654 -21.019  0.00  0.00    +0.039 C 
ATOM     10  C   UNL     1      33.674 -19.483 -21.003  0.00  0.00    +0.003 C 
ATOM     11  C   UNL     1      35.641 -20.693 -20.295  0.00  0.00    +0.003 C 
ATOM     12  C   UNL     1      32.873 -20.350 -20.261  0.00  0.00    +0.000 C 
ATOM     13  C   UNL     1      34.841 -21.561 -19.552  0.00  0.00    +0.000 C 
ATOM     14  C   UNL     1      33.456 -21.390 -19.536  0.00  0.00    +0.000 C 
ENDBRANCH   8   9
ENDBRANCH   1   8
BRANCH   2  15
ATOM     15  O   UNL     1      34.349 -14.324 -23.054  0.00  0.00    -0.474 OA
BRANCH  15  16
ATOM     16  C   UNL     1      33.786 -13.488 -24.064  0.00  0.00    +0.229 C 
BRANCH  16  17
ATOM     17  C   UNL     1      33.085 -12.311 -23.409  0.00  0.00    +0.171 C 
BRANCH  17  19
ATOM     18  O   UNL     1      31.950  -9.683 -23.013  0.00  0.00    -0.263 OA
ATOM     19  N   UNL     1      33.592 -11.057 -23.897  0.00  0.00    -0.161 N 
ATOM     20  C   UNL     1      32.979  -9.862 -23.655  0.00  0.00    +0.327 C 
BRANCH  19  21
ATOM     21  O   UNL     1      34.773 -11.171 -24.646  0.00  0.00    -0.291 OA
ATOM     22  H   UNL     1      34.927 -12.102 -24.867  0.00  0.00    +0.242 HD
ENDBRANCH  19  21
ENDBRANCH  17  19
ENDBRANCH  16  17
ENDBRANCH  15  16
ENDBRANCH   2  15
TORSDOF 7
ENDMDL
MODEL 8
REMARK VINA RESULT:      -9.3      3.931      5.371
REMARK  Name = 5289330
REMARK  7 active torsions:
REMARK  status: ('A' for Active; 'I' for Inactive)
REMARK    1  A    between atoms: C_1  and  C_8
REMARK    2  A    between atoms: C_2  and  O_15
REMARK    3  A    between atoms: C_8  and  C_9
REMARK    4  A    between atoms: O_15  and  C_16
REMARK    5  A    between atoms: C_16  and  C_17
REMARK    6  A    between atoms: C_17  and  N_19
REMARK    7  A    between atoms: N_19  and  O_21
REMARK                            x       y       z     vdW  Elec       q    Type
REMARK                         _______ _______ _______ _____ _____    ______ ____
ROOT
ATOM      1  C   UNL     1      35.377 -22.386 -17.749  0.00  0.00    +0.042 C 
ATOM      2  C   UNL     1      35.705 -23.008 -15.473  0.00  0.00    +0.139 C 
ATOM      3  C   UNL     1      34.903 -23.002 -16.614  0.00  0.00    +0.040 C 
ATOM      4  C   UNL     1      36.607 -21.774 -17.806  0.00  0.00    +0.003 C 
ATOM      5  C   UNL     1      36.958 -22.396 -15.498  0.00  0.00    +0.037 C 
ATOM      6  C   UNL     1      37.409 -21.779 -16.666  0.00  0.00    +0.003 C 
ENDROOT
BRANCH   1   8
ATOM      7  O   UNL     1      33.973 -23.449 -19.287  0.00  0.00    -0.287 OA
ATOM      8  C   UNL     1      34.518 -22.381 -18.972  0.00  0.00    +0.196 C 
BRANCH   8   9
ATOM      9  C   UNL     1      34.315 -21.187 -19.777  0.00  0.00    +0.039 C 
ATOM     10  C   UNL     1      35.401 -20.568 -20.395  0.00  0.00    +0.003 C 
ATOM     11  C   UNL     1      33.032 -20.664 -19.933  0.00  0.00    +0.003 C 
ATOM     12  C   UNL     1      35.205 -19.424 -21.167  0.00  0.00    +0.000 C 
ATOM     13  C   UNL     1      32.834 -19.519 -20.705  0.00  0.00    +0.000 C 
ATOM     14  C   UNL     1      33.921 -18.899 -21.323  0.00  0.00    +0.000 C 
ENDBRANCH   8   9
ENDBRANCH   1   8
BRANCH   2  15
ATOM     15  O   UNL     1      35.265 -23.610 -14.335  0.00  0.00    -0.474 OA
BRANCH  15  16
ATOM     16  C   UNL     1      35.745 -24.928 -14.071  0.00  0.00    +0.229 C 
BRANCH  16  17
ATOM     17  C   UNL     1      36.426 -24.954 -12.715  0.00  0.00    +0.171 C 
BRANCH  17  19
ATOM     18  O   UNL     1      38.281 -22.987 -11.693  0.00  0.00    -0.263 OA
ATOM     19  N   UNL     1      36.118 -23.778 -11.947  0.00  0.00    -0.161 N 
ATOM     20  C   UNL     1      37.072 -22.905 -11.508  0.00  0.00    +0.327 C 
BRANCH  19  21
ATOM     21  O   UNL     1      34.751 -23.606 -11.688  0.00  0.00    -0.291 OA
ATOM     22  H   UNL     1      34.622 -22.827 -11.126  0.00  0.00    +0.242 HD
ENDBRANCH  19  21
ENDBRANCH  17  19
ENDBRANCH  16  17
ENDBRANCH  15  16
ENDBRANCH   2  15
TORSDOF 7
ENDMDL
MODEL 9
REMARK VINA RESULT:      -9.2      7.384     10.621
REMARK  Name = 5289330
REMARK  7 active torsions:
REMARK  status: ('A' for Active; 'I' for Inactive)
REMARK    1  A    between atoms: C_1  and  C_8
REMARK    2  A    between atoms: C_2  and  O_15
REMARK    3  A    between atoms: C_8  and  C_9
REMARK    4  A    between atoms: O_15  and  C_16
REMARK    5  A    between atoms: C_16  and  C_17
REMARK    6  A    between atoms: C_17  and  N_19
REMARK    7  A    between atoms: N_19  and  O_21
REMARK                            x       y       z     vdW  Elec       q    Type
REMARK                         _______ _______ _______ _____ _____    ______ ____
ROOT
ATOM      1  C   UNL     1      34.664 -17.106 -22.074  0.00  0.00    +0.042 C 
ATOM      2  C   UNL     1      34.393 -14.893 -22.912  0.00  0.00    +0.139 C 
ATOM      3  C   UNL     1      34.536 -16.259 -23.151  0.00  0.00    +0.040 C 
ATOM      4  C   UNL     1      34.658 -16.662 -20.773  0.00  0.00    +0.003 C 
ATOM      5  C   UNL     1      34.382 -14.410 -21.603  0.00  0.00    +0.037 C 
ATOM      6  C   UNL     1      34.516 -15.296 -20.533  0.00  0.00    +0.003 C 
ENDROOT
BRANCH   1   8
ATOM      7  O   UNL     1      35.219 -18.912 -23.452  0.00  0.00    -0.287 OA
ATOM      8  C   UNL     1      34.816 -18.570 -22.330  0.00  0.00    +0.196 C 
BRANCH   8   9
ATOM      9  C   UNL     1      34.511 -19.573 -21.322  0.00  0.00    +0.039 C 
ATOM     10  C   UNL     1      35.545 -20.264 -20.689  0.00  0.00    +0.003 C 
ATOM     11  C   UNL     1      33.185 -19.843 -20.988  0.00  0.00    +0.003 C 
ATOM     12  C   UNL     1      35.251 -21.225 -19.722  0.00  0.00    +0.000 C 
ATOM     13  C   UNL     1      32.890 -20.804 -20.021  0.00  0.00    +0.000 C 
ATOM     14  C   UNL     1      33.924 -21.495 -19.388  0.00  0.00    +0.000 C 
ENDBRANCH   8   9
ENDBRANCH   1   8
BRANCH   2  15
ATOM     15  O   UNL     1      34.262 -14.029 -23.956  0.00  0.00    -0.474 OA
BRANCH  15  16
ATOM     16  C   UNL     1      33.105 -13.194 -23.966  0.00  0.00    +0.229 C 
BRANCH  16  17
ATOM     17  C   UNL     1      33.529 -11.746 -23.796  0.00  0.00    +0.171 C 
BRANCH  17  19
ATOM     18  O   UNL     1      35.249  -9.433 -24.002  0.00  0.00    -0.263 OA
ATOM     19  N   UNL     1      34.183 -11.245 -24.974  0.00  0.00    -0.161 N 
ATOM     20  C   UNL     1      34.981 -10.138 -24.968  0.00  0.00    +0.327 C 
BRANCH  19  21
ATOM     21  O   UNL     1      33.929 -11.997 -26.131  0.00  0.00    -0.291 OA
ATOM     22  H   UNL     1      33.220 -11.576 -26.641  0.00  0.00    +0.242 HD
ENDBRANCH  19  21
ENDBRANCH  17  19
ENDBRANCH  16  17
ENDBRANCH  15  16
ENDBRANCH   2  15
TORSDOF 7
ENDMDL
