MODEL 1
REMARK VINA RESULT:      -9.6      0.000      0.000
REMARK  Name = 24801862
REMARK  2 active torsions:
REMARK  status: ('A' for Active; 'I' for Inactive)
REMARK    1  A    between atoms: N_1  and  C_18
REMARK    2  A    between atoms: C_6  and  C_11
REMARK                            x       y       z     vdW  Elec       q    Type
REMARK                         _______ _______ _______ _____ _____    ______ ____
ROOT
ATOM      1  N   UNL     1      34.581 -17.590 -24.143  0.00  0.00    -0.243 N 
ATOM      2  N   UNL     1      33.633 -15.533 -23.575  0.00  0.00    -0.336 NA
ATOM      3  N   UNL     1      33.926 -16.173 -25.880  0.00  0.00    -0.170 NA
ATOM      4  C   UNL     1      35.016 -18.573 -25.134  0.00  0.00    +0.124 C 
ATOM      5  C   UNL     1      34.019 -16.375 -24.552  0.00  0.00    +0.148 C 
ATOM      6  C   UNL     1      33.098 -14.371 -24.005  0.00  0.00    +0.161 C 
ATOM      7  C   UNL     1      33.382 -14.991 -26.239  0.00  0.00    +0.114 C 
ATOM      8  C   UNL     1      32.946 -14.043 -25.337  0.00  0.00    +0.056 C 
ENDROOT
BRANCH   6  11
ATOM      9  N   UNL     1      32.737 -12.106 -23.029  0.00  0.00    -0.246 N 
ATOM     10  N   UNL     1      31.904 -12.603 -21.014  0.00  0.00    -0.227 NA
ATOM     11  C   UNL     1      32.685 -13.475 -22.959  0.00  0.00    +0.107 C 
ATOM     12  C   UNL     1      32.251 -11.620 -21.820  0.00  0.00    +0.139 C 
ATOM     13  C   UNL     1      32.170 -13.753 -21.714  0.00  0.00    +0.118 C 
ATOM     14  C   UNL     1      33.176 -11.289 -24.068  0.00  0.00    +0.071 C 
ATOM     15  C   UNL     1      32.210 -10.203 -21.660  0.00  0.00    +0.035 C 
ATOM     16  C   UNL     1      33.134  -9.956 -23.910  0.00  0.00    +0.017 C 
ATOM     17  C   UNL     1      32.633  -9.407 -22.660  0.00  0.00    +0.004 C 
ENDBRANCH   6  11
BRANCH   1  18
ATOM     18  C   UNL     1      34.730 -17.914 -22.741  0.00  0.00    +0.084 C 
ATOM     19  C   UNL     1      33.775 -19.050 -22.369  0.00  0.00    +0.021 C 
ATOM     20  C   UNL     1      36.185 -18.294 -22.460  0.00  0.00    +0.021 C 
ATOM     21  C   UNL     1      33.969 -19.492 -20.921  0.00  0.00    +0.002 C 
ATOM     22  C   UNL     1      36.377 -18.739 -21.012  0.00  0.00    +0.002 C 
ATOM     23  C   UNL     1      35.421 -19.868 -20.639  0.00  0.00    +0.000 C 
ENDBRANCH   1  18
TORSDOF 2
ENDMDL
MODEL 2
REMARK VINA RESULT:      -9.6      6.874     10.724
REMARK  Name = 24801862
REMARK  2 active torsions:
REMARK  status: ('A' for Active; 'I' for Inactive)
REMARK    1  A    between atoms: N_1  and  C_18
REMARK    2  A    between atoms: C_6  and  C_11
REMARK                            x       y       z     vdW  Elec       q    Type
REMARK                         _______ _______ _______ _____ _____    ______ ____
ROOT
ATOM      1  N   UNL     1      34.494 -23.961 -14.333  0.00  0.00    -0.243 N 
ATOM      2  N   UNL     1      34.680 -22.934 -16.421  0.00  0.00    -0.336 NA
ATOM      3  N   UNL     1      32.557 -23.745 -15.620  0.00  0.00    -0.170 NA
ATOM      4  C   UNL     1      33.703 -24.602 -13.284  0.00  0.00    +0.124 C 
ATOM      5  C   UNL     1      33.881 -23.525 -15.513  0.00  0.00    +0.148 C 
ATOM      6  C   UNL     1      34.058 -22.527 -17.547  0.00  0.00    +0.161 C 
ATOM      7  C   UNL     1      31.999 -23.313 -16.771  0.00  0.00    +0.114 C 
ATOM      8  C   UNL     1      32.708 -22.692 -17.779  0.00  0.00    +0.056 C 
ENDROOT
BRANCH   6  11
ATOM      9  N   UNL     1      34.483 -21.095 -19.543  0.00  0.00    -0.246 N 
ATOM     10  N   UNL     1      36.712 -21.186 -19.704  0.00  0.00    -0.227 NA
ATOM     11  C   UNL     1      34.914 -21.894 -18.514  0.00  0.00    +0.107 C 
ATOM     12  C   UNL     1      35.616 -20.688 -20.240  0.00  0.00    +0.139 C 
ATOM     13  C   UNL     1      36.284 -21.933 -18.636  0.00  0.00    +0.118 C 
ATOM     14  C   UNL     1      33.188 -20.718 -19.888  0.00  0.00    +0.071 C 
ATOM     15  C   UNL     1      35.413 -19.837 -21.367  0.00  0.00    +0.035 C 
ATOM     16  C   UNL     1      33.005 -19.917 -20.950  0.00  0.00    +0.017 C 
ATOM     17  C   UNL     1      34.163 -19.469 -21.707  0.00  0.00    +0.004 C 
ENDBRANCH   6  11
BRANCH   1  18
ATOM     18  C   UNL     1      35.911 -23.777 -14.110  0.00  0.00    +0.084 C 
ATOM     19  C   UNL     1      36.164 -23.440 -12.639  0.00  0.00    +0.021 C 
ATOM     20  C   UNL     1      36.660 -25.045 -14.528  0.00  0.00    +0.021 C 
ATOM     21  C   UNL     1      37.657 -23.335 -12.338  0.00  0.00    +0.002 C 
ATOM     22  C   UNL     1      38.152 -24.940 -14.223  0.00  0.00    +0.002 C 
ATOM     23  C   UNL     1      38.404 -24.598 -12.758  0.00  0.00    +0.000 C 
ENDBRANCH   1  18
TORSDOF 2
ENDMDL
MODEL 3
REMARK VINA RESULT:      -9.5      3.650      8.474
REMARK  Name = 24801862
REMARK  2 active torsions:
REMARK  status: ('A' for Active; 'I' for Inactive)
REMARK    1  A    between atoms: N_1  and  C_18
REMARK    2  A    between atoms: C_6  and  C_11
REMARK                            x       y       z     vdW  Elec       q    Type
REMARK                         _______ _______ _______ _____ _____    ______ ____
ROOT
ATOM      1  N   UNL     1      32.230  -7.703 -21.418  0.00  0.00    -0.243 N 
ATOM      2  N   UNL     1      32.253 -10.030 -21.605  0.00  0.00    -0.336 NA
ATOM      3  N   UNL     1      31.735  -8.956 -19.511  0.00  0.00    -0.170 NA
ATOM      4  C   UNL     1      32.031  -6.479 -20.644  0.00  0.00    +0.124 C 
ATOM      5  C   UNL     1      32.064  -8.955 -20.817  0.00  0.00    +0.148 C 
ATOM      6  C   UNL     1      32.087 -11.221 -20.993  0.00  0.00    +0.161 C 
ATOM      7  C   UNL     1      31.584 -10.180 -18.963  0.00  0.00    +0.114 C 
ATOM      8  C   UNL     1      31.749 -11.358 -19.662  0.00  0.00    +0.056 C 
ENDROOT
BRANCH   6  11
ATOM      9  N   UNL     1      32.808 -12.326 -23.107  0.00  0.00    -0.246 N 
ATOM     10  N   UNL     1      32.364 -14.475 -22.675  0.00  0.00    -0.227 NA
ATOM     11  C   UNL     1      32.288 -12.367 -21.839  0.00  0.00    +0.107 C 
ATOM     12  C   UNL     1      32.834 -13.637 -23.575  0.00  0.00    +0.139 C 
ATOM     13  C   UNL     1      32.024 -13.695 -21.598  0.00  0.00    +0.118 C 
ATOM     14  C   UNL     1      33.247 -11.234 -23.850  0.00  0.00    +0.071 C 
ATOM     15  C   UNL     1      33.343 -13.845 -24.891  0.00  0.00    +0.035 C 
ATOM     16  C   UNL     1      33.725 -11.438 -25.089  0.00  0.00    +0.017 C 
ATOM     17  C   UNL     1      33.769 -12.792 -25.616  0.00  0.00    +0.004 C 
ENDBRANCH   6  11
BRANCH   1  18
ATOM     18  C   UNL     1      32.583  -7.582 -22.816  0.00  0.00    +0.084 C 
ATOM     19  C   UNL     1      31.944  -6.322 -23.404  0.00  0.00    +0.021 C 
ATOM     20  C   UNL     1      34.107  -7.549 -22.953  0.00  0.00    +0.021 C 
ATOM     21  C   UNL     1      32.371  -6.102 -24.853  0.00  0.00    +0.002 C 
ATOM     22  C   UNL     1      34.534  -7.325 -24.402  0.00  0.00    +0.002 C 
ATOM     23  C   UNL     1      33.891  -6.073 -24.991  0.00  0.00    +0.000 C 
ENDBRANCH   1  18
TORSDOF 2
ENDMDL
MODEL 4
REMARK VINA RESULT:      -9.5      2.375      8.458
REMARK  Name = 24801862
REMARK  2 active torsions:
REMARK  status: ('A' for Active; 'I' for Inactive)
REMARK    1  A    between atoms: N_1  and  C_18
REMARK    2  A    between atoms: C_6  and  C_11
REMARK                            x       y       z     vdW  Elec       q    Type
REMARK                         _______ _______ _______ _____ _____    ______ ____
ROOT
ATOM      1  N   UNL     1      32.095  -8.339 -21.583  0.00  0.00    -0.243 N 
ATOM      2  N   UNL     1      32.324 -10.624 -22.007  0.00  0.00    -0.336 NA
ATOM      3  N   UNL     1      31.523  -9.828 -19.877  0.00  0.00    -0.170 NA
ATOM      4  C   UNL     1      31.725  -7.226 -20.711  0.00  0.00    +0.124 C 
ATOM      5  C   UNL     1      31.974  -9.659 -21.135  0.00  0.00    +0.148 C 
ATOM      6  C   UNL     1      32.196 -11.884 -21.542  0.00  0.00    +0.161 C 
ATOM      7  C   UNL     1      31.420 -11.113 -19.478  0.00  0.00    +0.114 C 
ATOM      8  C   UNL     1      31.745 -12.192 -20.274  0.00  0.00    +0.056 C 
ENDROOT
BRANCH   6  11
ATOM      9  N   UNL     1      33.310 -14.024 -22.168  0.00  0.00    -0.246 N 
ATOM     10  N   UNL     1      32.837 -14.165 -24.349  0.00  0.00    -0.227 NA
ATOM     11  C   UNL     1      32.569 -12.912 -22.476  0.00  0.00    +0.107 C 
ATOM     12  C   UNL     1      33.446 -14.757 -23.343  0.00  0.00    +0.139 C 
ATOM     13  C   UNL     1      32.291 -13.023 -23.819  0.00  0.00    +0.118 C 
ATOM     14  C   UNL     1      33.854 -14.415 -20.947  0.00  0.00    +0.071 C 
ATOM     15  C   UNL     1      34.189 -15.973 -23.266  0.00  0.00    +0.035 C 
ATOM     16  C   UNL     1      34.552 -15.561 -20.883  0.00  0.00    +0.017 C 
ATOM     17  C   UNL     1      34.719 -16.357 -22.088  0.00  0.00    +0.004 C 
ENDBRANCH   6  11
BRANCH   1  18
ATOM     18  C   UNL     1      32.570  -8.040 -22.917  0.00  0.00    +0.084 C 
ATOM     19  C   UNL     1      31.749  -6.893 -23.512  0.00  0.00    +0.021 C 
ATOM     20  C   UNL     1      34.058  -7.689 -22.859  0.00  0.00    +0.021 C 
ATOM     21  C   UNL     1      32.280  -6.477 -24.881  0.00  0.00    +0.002 C 
ATOM     22  C   UNL     1      34.587  -7.269 -24.229  0.00  0.00    +0.002 C 
ATOM     23  C   UNL     1      33.766  -6.130 -24.825  0.00  0.00    +0.000 C 
ENDBRANCH   1  18
TORSDOF 2
ENDMDL
MODEL 5
REMARK VINA RESULT:      -9.3      8.866     12.449
REMARK  Name = 24801862
REMARK  2 active torsions:
REMARK  status: ('A' for Active; 'I' for Inactive)
REMARK    1  A    between atoms: N_1  and  C_18
REMARK    2  A    between atoms: C_6  and  C_11
REMARK                            x       y       z     vdW  Elec       q    Type
REMARK                         _______ _______ _______ _____ _____    ______ ____
ROOT
ATOM      1  N   UNL     1      35.685 -24.611 -12.961  0.00  0.00    -0.243 N 
ATOM      2  N   UNL     1      34.655 -23.816 -14.900  0.00  0.00    -0.336 NA
ATOM      3  N   UNL     1      33.415 -24.073 -12.849  0.00  0.00    -0.170 NA
ATOM      4  C   UNL     1      35.649 -24.978 -11.547  0.00  0.00    +0.124 C 
ATOM      5  C   UNL     1      34.531 -24.144 -13.600  0.00  0.00    +0.148 C 
ATOM      6  C   UNL     1      33.523 -23.371 -15.485  0.00  0.00    +0.161 C 
ATOM      7  C   UNL     1      32.322 -23.619 -13.496  0.00  0.00    +0.114 C 
ATOM      8  C   UNL     1      32.316 -23.250 -14.827  0.00  0.00    +0.056 C 
ENDROOT
BRANCH   6  11
ATOM      9  N   UNL     1      34.787 -22.482 -17.441  0.00  0.00    -0.246 N 
ATOM     10  N   UNL     1      33.282 -22.677 -19.084  0.00  0.00    -0.227 NA
ATOM     11  C   UNL     1      33.660 -23.020 -16.873  0.00  0.00    +0.107 C 
ATOM     12  C   UNL     1      34.507 -22.291 -18.790  0.00  0.00    +0.139 C 
ATOM     13  C   UNL     1      32.753 -23.129 -17.901  0.00  0.00    +0.118 C 
ATOM     14  C   UNL     1      36.008 -22.162 -16.854  0.00  0.00    +0.071 C 
ATOM     15  C   UNL     1      35.545 -21.735 -19.595  0.00  0.00    +0.035 C 
ATOM     16  C   UNL     1      36.980 -21.639 -17.618  0.00  0.00    +0.017 C 
ATOM     17  C   UNL     1      36.729 -21.423 -19.034  0.00  0.00    +0.004 C 
ENDBRANCH   6  11
BRANCH   1  18
ATOM     18  C   UNL     1      36.940 -24.729 -13.671  0.00  0.00    +0.084 C 
ATOM     19  C   UNL     1      38.099 -24.387 -12.731  0.00  0.00    +0.021 C 
ATOM     20  C   UNL     1      37.076 -26.147 -14.231  0.00  0.00    +0.021 C 
ATOM     21  C   UNL     1      39.450 -24.594 -13.411  0.00  0.00    +0.002 C 
ATOM     22  C   UNL     1      38.429 -26.354 -14.907  0.00  0.00    +0.002 C 
ATOM     23  C   UNL     1      39.585 -26.007 -13.973  0.00  0.00    +0.000 C 
ENDBRANCH   1  18
TORSDOF 2
ENDMDL
MODEL 6
REMARK VINA RESULT:      -9.2      8.992     12.301
REMARK  Name = 24801862
REMARK  2 active torsions:
REMARK  status: ('A' for Active; 'I' for Inactive)
REMARK    1  A    between atoms: N_1  and  C_18
REMARK    2  A    between atoms: C_6  and  C_11
REMARK                            x       y       z     vdW  Elec       q    Type
REMARK                         _______ _______ _______ _____ _____    ______ ____
ROOT
ATOM      1  N   UNL     1      31.722 -24.445 -14.070  0.00  0.00    -0.243 N 
ATOM      2  N   UNL     1      33.698 -23.610 -14.993  0.00  0.00    -0.336 NA
ATOM      3  N   UNL     1      33.653 -24.511 -12.758  0.00  0.00    -0.170 NA
ATOM      4  C   UNL     1      30.980 -25.071 -12.978  0.00  0.00    +0.124 C 
ATOM      5  C   UNL     1      33.089 -24.177 -13.934  0.00  0.00    +0.148 C 
ATOM      6  C   UNL     1      35.014 -23.365 -14.828  0.00  0.00    +0.161 C 
ATOM      7  C   UNL     1      34.971 -24.238 -12.661  0.00  0.00    +0.114 C 
ATOM      8  C   UNL     1      35.710 -23.660 -13.673  0.00  0.00    +0.056 C 
ENDROOT
BRANCH   6  11
ATOM      9  N   UNL     1      35.067 -22.528 -17.175  0.00  0.00    -0.246 N 
ATOM     10  N   UNL     1      37.173 -21.795 -17.352  0.00  0.00    -0.227 NA
ATOM     11  C   UNL     1      35.662 -22.762 -15.961  0.00  0.00    +0.107 C 
ATOM     12  C   UNL     1      36.029 -21.937 -17.989  0.00  0.00    +0.139 C 
ATOM     13  C   UNL     1      36.952 -22.304 -16.097  0.00  0.00    +0.118 C 
ATOM     14  C   UNL     1      33.765 -22.797 -17.589  0.00  0.00    +0.071 C 
ATOM     15  C   UNL     1      35.634 -21.598 -19.317  0.00  0.00    +0.035 C 
ATOM     16  C   UNL     1      33.401 -22.474 -18.841  0.00  0.00    +0.017 C 
ATOM     17  C   UNL     1      34.376 -21.856 -19.725  0.00  0.00    +0.004 C 
ENDBRANCH   6  11
BRANCH   1  18
ATOM     18  C   UNL     1      31.013 -24.128 -15.290  0.00  0.00    +0.084 C 
ATOM     19  C   UNL     1      29.821 -25.074 -15.456  0.00  0.00    +0.021 C 
ATOM     20  C   UNL     1      30.562 -22.666 -15.251  0.00  0.00    +0.021 C 
ATOM     21  C   UNL     1      28.985 -24.711 -16.681  0.00  0.00    +0.002 C 
ATOM     22  C   UNL     1      29.723 -22.305 -16.474  0.00  0.00    +0.002 C 
ATOM     23  C   UNL     1      28.539 -23.252 -16.643  0.00  0.00    +0.000 C 
ENDBRANCH   1  18
TORSDOF 2
ENDMDL
MODEL 7
REMARK VINA RESULT:      -9.1      1.925      3.107
REMARK  Name = 24801862
REMARK  2 active torsions:
REMARK  status: ('A' for Active; 'I' for Inactive)
REMARK    1  A    between atoms: N_1  and  C_18
REMARK    2  A    between atoms: C_6  and  C_11
REMARK                            x       y       z     vdW  Elec       q    Type
REMARK                         _______ _______ _______ _____ _____    ______ ____
ROOT
ATOM      1  N   UNL     1      33.977 -15.434 -24.481  0.00  0.00    -0.243 N 
ATOM      2  N   UNL     1      34.021 -13.101 -24.579  0.00  0.00    -0.336 NA
ATOM      3  N   UNL     1      33.545 -14.420 -26.540  0.00  0.00    -0.170 NA
ATOM      4  C   UNL     1      33.785 -16.742 -25.106  0.00  0.00    +0.124 C 
ATOM      5  C   UNL     1      33.840 -14.263 -25.236  0.00  0.00    +0.148 C 
ATOM      6  C   UNL     1      33.883 -11.993 -25.337  0.00  0.00    +0.161 C 
ATOM      7  C   UNL     1      33.422 -13.271 -27.237  0.00  0.00    +0.114 C 
ATOM      8  C   UNL     1      33.582 -12.017 -26.683  0.00  0.00    +0.056 C 
ENDROOT
BRANCH   6  11
ATOM      9  N   UNL     1      33.255 -10.278 -23.640  0.00  0.00    -0.246 N 
ATOM     10  N   UNL     1      34.877  -8.761 -23.902  0.00  0.00    -0.227 NA
ATOM     11  C   UNL     1      34.075 -10.754 -24.632  0.00  0.00    +0.107 C 
ATOM     12  C   UNL     1      33.787  -9.061 -23.227  0.00  0.00    +0.139 C 
ATOM     13  C   UNL     1      35.061  -9.805 -24.773  0.00  0.00    +0.118 C 
ATOM     14  C   UNL     1      32.103 -10.841 -23.098  0.00  0.00    +0.071 C 
ATOM     15  C   UNL     1      33.094  -8.370 -22.188  0.00  0.00    +0.035 C 
ATOM     16  C   UNL     1      31.457 -10.185 -22.120  0.00  0.00    +0.017 C 
ATOM     17  C   UNL     1      31.978  -8.909 -21.659  0.00  0.00    +0.004 C 
ENDBRANCH   6  11
BRANCH   1  18
ATOM     18  C   UNL     1      34.293 -15.385 -23.070  0.00  0.00    +0.084 C 
ATOM     19  C   UNL     1      33.073 -14.899 -22.284  0.00  0.00    +0.021 C 
ATOM     20  C   UNL     1      34.741 -16.771 -22.602  0.00  0.00    +0.021 C 
ATOM     21  C   UNL     1      33.330 -14.926 -20.779  0.00  0.00    +0.002 C 
ATOM     22  C   UNL     1      34.994 -16.799 -21.097  0.00  0.00    +0.002 C 
ATOM     23  C   UNL     1      33.780 -16.308 -20.313  0.00  0.00    +0.000 C 
ENDBRANCH   1  18
TORSDOF 2
ENDMDL
MODEL 8
REMARK VINA RESULT:      -9.0      1.951      6.895
REMARK  Name = 24801862
REMARK  2 active torsions:
REMARK  status: ('A' for Active; 'I' for Inactive)
REMARK    1  A    between atoms: N_1  and  C_18
REMARK    2  A    between atoms: C_6  and  C_11
REMARK                            x       y       z     vdW  Elec       q    Type
REMARK                         _______ _______ _______ _____ _____    ______ ____
ROOT
ATOM      1  N   UNL     1      33.257 -11.098 -23.687  0.00  0.00    -0.243 N 
ATOM      2  N   UNL     1      33.605 -13.192 -22.714  0.00  0.00    -0.336 NA
ATOM      3  N   UNL     1      31.961 -11.667 -21.830  0.00  0.00    -0.170 NA
ATOM      4  C   UNL     1      32.562  -9.814 -23.756  0.00  0.00    +0.124 C 
ATOM      5  C   UNL     1      32.925 -12.030 -22.697  0.00  0.00    +0.148 C 
ATOM      6  C   UNL     1      33.260 -14.067 -21.746  0.00  0.00    +0.161 C 
ATOM      7  C   UNL     1      31.666 -12.589 -20.889  0.00  0.00    +0.114 C 
ATOM      8  C   UNL     1      32.289 -13.817 -20.798  0.00  0.00    +0.056 C 
ENDROOT
BRANCH   6  11
ATOM      9  N   UNL     1      34.214 -16.066 -22.888  0.00  0.00    -0.246 N 
ATOM     10  N   UNL     1      35.182 -17.146 -21.186  0.00  0.00    -0.227 NA
ATOM     11  C   UNL     1      33.986 -15.307 -21.768  0.00  0.00    +0.107 C 
ATOM     12  C   UNL     1      34.947 -17.176 -22.481  0.00  0.00    +0.139 C 
ATOM     13  C   UNL     1      34.590 -15.992 -20.739  0.00  0.00    +0.118 C 
ATOM     14  C   UNL     1      33.824 -15.839 -24.205  0.00  0.00    +0.071 C 
ATOM     15  C   UNL     1      35.306 -18.120 -23.489  0.00  0.00    +0.035 C 
ATOM     16  C   UNL     1      34.167 -16.732 -25.148  0.00  0.00    +0.017 C 
ATOM     17  C   UNL     1      34.932 -17.908 -24.766  0.00  0.00    +0.004 C 
ENDBRANCH   6  11
BRANCH   1  18
ATOM     18  C   UNL     1      34.278 -11.381 -24.672  0.00  0.00    +0.084 C 
ATOM     19  C   UNL     1      33.635 -11.981 -25.925  0.00  0.00    +0.021 C 
ATOM     20  C   UNL     1      35.040 -10.094 -24.998  0.00  0.00    +0.021 C 
ATOM     21  C   UNL     1      34.665 -12.203 -27.030  0.00  0.00    +0.002 C 
ATOM     22  C   UNL     1      36.067 -10.317 -26.106  0.00  0.00    +0.002 C 
ATOM     23  C   UNL     1      35.427 -10.921 -27.353  0.00  0.00    +0.000 C 
ENDBRANCH   1  18
TORSDOF 2
ENDMDL
MODEL 9
REMARK VINA RESULT:      -9.0      6.523     10.399
REMARK  Name = 24801862
REMARK  2 active torsions:
REMARK  status: ('A' for Active; 'I' for Inactive)
REMARK    1  A    between atoms: N_1  and  C_18
REMARK    2  A    between atoms: C_6  and  C_11
REMARK                            x       y       z     vdW  Elec       q    Type
REMARK                         _______ _______ _______ _____ _____    ______ ____
ROOT
ATOM      1  N   UNL     1      34.698 -24.000 -14.775  0.00  0.00    -0.243 N 
ATOM      2  N   UNL     1      34.714 -22.812 -16.785  0.00  0.00    -0.336 NA
ATOM      3  N   UNL     1      36.745 -23.177 -15.539  0.00  0.00    -0.170 NA
ATOM      4  C   UNL     1      35.381 -24.575 -13.618  0.00  0.00    +0.124 C 
ATOM      5  C   UNL     1      35.420 -23.297 -15.746  0.00  0.00    +0.148 C 
ATOM      6  C   UNL     1      35.441 -22.139 -17.701  0.00  0.00    +0.161 C 
ATOM      7  C   UNL     1      37.410 -22.493 -16.494  0.00  0.00    +0.114 C 
ATOM      8  C   UNL     1      36.805 -21.946 -17.607  0.00  0.00    +0.056 C 
ENDROOT
BRANCH   6  11
ATOM      9  N   UNL     1      35.167 -20.752 -19.753  0.00  0.00    -0.246 N 
ATOM     10  N   UNL     1      33.040 -21.169 -20.306  0.00  0.00    -0.227 NA
ATOM     11  C   UNL     1      34.685 -21.624 -18.810  0.00  0.00    +0.107 C 
ATOM     12  C   UNL     1      34.126 -20.505 -20.644  0.00  0.00    +0.139 C 
ATOM     13  C   UNL     1      33.380 -21.863 -19.172  0.00  0.00    +0.118 C 
ATOM     14  C   UNL     1      36.432 -20.182 -19.868  0.00  0.00    +0.071 C 
ATOM     15  C   UNL     1      34.396 -19.614 -21.725  0.00  0.00    +0.035 C 
ATOM     16  C   UNL     1      36.678 -19.344 -20.889  0.00  0.00    +0.017 C 
ATOM     17  C   UNL     1      35.618 -19.058 -21.841  0.00  0.00    +0.004 C 
ENDBRANCH   6  11
BRANCH   1  18
ATOM     18  C   UNL     1      33.268 -24.191 -14.894  0.00  0.00    +0.084 C 
ATOM     19  C   UNL     1      32.753 -24.997 -13.700  0.00  0.00    +0.021 C 
ATOM     20  C   UNL     1      32.580 -22.827 -14.984  0.00  0.00    +0.021 C 
ATOM     21  C   UNL     1      31.233 -25.138 -13.733  0.00  0.00    +0.002 C 
ATOM     22  C   UNL     1      31.060 -22.969 -15.014  0.00  0.00    +0.002 C 
ATOM     23  C   UNL     1      30.546 -23.778 -13.827  0.00  0.00    +0.000 C 
ENDBRANCH   1  18
TORSDOF 2
ENDMDL
