MODEL 1
REMARK VINA RESULT:      -7.9      0.000      0.000
REMARK  Name = 5789
REMARK  4 active torsions:
REMARK  status: ('A' for Active; 'I' for Inactive)
REMARK    1  A    between atoms: N1_3  and  C1*_13
REMARK    2  A    between atoms: C3*_12  and  O3*_16
REMARK    3  A    between atoms: C4*_15  and  C5*_18
REMARK    4  A    between atoms: C5*_18  and  O5*_19
REMARK                            x       y       z     vdW  Elec       q    Type
REMARK                         _______ _______ _______ _____ _____    ______ ____
ROOT
ATOM      1  O2  T   A   1      34.334 -23.084 -18.450  0.00  0.00    -0.252 OA
ATOM      2  O4  T   A   1      30.015 -22.508 -16.983  0.00  0.00    -0.270 OA
ATOM      3  N1  T   A   1      33.887 -23.449 -16.188  0.00  0.00    -0.219 N 
ATOM      4  N3  T   A   1      32.185 -22.799 -17.705  0.00  0.00    -0.236 N 
ATOM      5  C6  T   A   1      32.925 -23.457 -15.186  0.00  0.00    +0.071 C 
ATOM      6  C2  T   A   1      33.535 -23.112 -17.512  0.00  0.00    +0.315 C 
ATOM      7  C5  T   A   1      31.634 -23.158 -15.374  0.00  0.00    +0.047 C 
ATOM      8  C4  T   A   1      31.185 -22.793 -16.743  0.00  0.00    +0.250 C 
ATOM      9  C5M T   A   1      30.614 -23.172 -14.279  0.00  0.00    +0.037 C 
ATOM     10  H3  T   A   1      31.914 -22.561 -18.621  0.00  0.00    +0.159 HD
ENDROOT
BRANCH   3  13
ATOM     11  O4* T   A   1      35.225 -24.748 -14.774  0.00  0.00    -0.335 OA
ATOM     12  C3* T   A   1      36.983 -23.212 -14.360  0.00  0.00    +0.144 C 
ATOM     13  C1* T   A   1      35.236 -23.791 -15.843  0.00  0.00    +0.202 C 
ATOM     14  C2* T   A   1      36.046 -22.594 -15.372  0.00  0.00    +0.083 C 
ATOM     15  C4* T   A   1      36.144 -24.326 -13.748  0.00  0.00    +0.173 C 
BRANCH  12  16
ATOM     16  O3* T   A   1      38.114 -23.767 -15.027  0.00  0.00    -0.382 OA
ATOM     17  H3* T   A   1      37.814 -24.324 -15.762  0.00  0.00    +0.210 HD
ENDBRANCH  12  16
BRANCH  15  18
ATOM     18  C5* T   A   1      35.327 -23.862 -12.549  0.00  0.00    +0.169 C 
BRANCH  18  19
ATOM     19  O5* T   A   1      34.605 -24.969 -12.032  0.00  0.00    -0.379 OA
ATOM     20  H5* T   A   1      35.160 -25.764 -12.075  0.00  0.00    +0.211 HD
ENDBRANCH  18  19
ENDBRANCH  15  18
ENDBRANCH   3  13
TORSDOF 4
ENDMDL
MODEL 2
REMARK VINA RESULT:      -7.7      1.919      2.761
REMARK  Name = 5789
REMARK  4 active torsions:
REMARK  status: ('A' for Active; 'I' for Inactive)
REMARK    1  A    between atoms: N1_3  and  C1*_13
REMARK    2  A    between atoms: C3*_12  and  O3*_16
REMARK    3  A    between atoms: C4*_15  and  C5*_18
REMARK    4  A    between atoms: C5*_18  and  O5*_19
REMARK                            x       y       z     vdW  Elec       q    Type
REMARK                         _______ _______ _______ _____ _____    ______ ____
ROOT
ATOM      1  O2  T   A   1      37.296 -22.303 -16.763  0.00  0.00    -0.252 OA
ATOM      2  O4  T   A   1      32.832 -23.106 -17.518  0.00  0.00    -0.270 OA
ATOM      3  N1  T   A   1      36.005 -23.082 -14.980  0.00  0.00    -0.219 N 
ATOM      4  N3  T   A   1      35.068 -22.707 -17.126  0.00  0.00    -0.236 N 
ATOM      5  C6  T   A   1      34.746 -23.483 -14.553  0.00  0.00    +0.071 C 
ATOM      6  C2  T   A   1      36.208 -22.671 -16.315  0.00  0.00    +0.315 C 
ATOM      7  C5  T   A   1      33.657 -23.516 -15.331  0.00  0.00    +0.047 C 
ATOM      8  C4  T   A   1      33.791 -23.099 -16.751  0.00  0.00    +0.250 C 
ATOM      9  C5M T   A   1      32.309 -23.952 -14.850  0.00  0.00    +0.037 C 
ATOM     10  H3  T   A   1      35.184 -22.425 -18.061  0.00  0.00    +0.159 HD
ENDROOT
BRANCH   3  13
ATOM     11  O4* T   A   1      37.951 -24.203 -14.323  0.00  0.00    -0.335 OA
ATOM     12  C3* T   A   1      37.736 -24.037 -11.968  0.00  0.00    +0.144 C 
ATOM     13  C1* T   A   1      37.084 -23.096 -14.036  0.00  0.00    +0.202 C 
ATOM     14  C2* T   A   1      36.610 -23.253 -12.600  0.00  0.00    +0.083 C 
ATOM     15  C4* T   A   1      38.220 -24.925 -13.106  0.00  0.00    +0.173 C 
BRANCH  12  16
ATOM     16  O3* T   A   1      38.777 -23.147 -11.571  0.00  0.00    -0.382 OA
ATOM     17  H3* T   A   1      38.389 -22.355 -11.169  0.00  0.00    +0.210 HD
ENDBRANCH  12  16
BRANCH  15  18
ATOM     18  C5* T   A   1      37.479 -26.253 -13.177  0.00  0.00    +0.169 C 
BRANCH  18  19
ATOM     19  O5* T   A   1      36.878 -26.511 -11.918  0.00  0.00    -0.379 OA
ATOM     20  H5* T   A   1      36.234 -27.231 -12.008  0.00  0.00    +0.211 HD
ENDBRANCH  18  19
ENDBRANCH  15  18
ENDBRANCH   3  13
TORSDOF 4
ENDMDL
MODEL 3
REMARK VINA RESULT:      -7.7      1.589      2.131
REMARK  Name = 5789
REMARK  4 active torsions:
REMARK  status: ('A' for Active; 'I' for Inactive)
REMARK    1  A    between atoms: N1_3  and  C1*_13
REMARK    2  A    between atoms: C3*_12  and  O3*_16
REMARK    3  A    between atoms: C4*_15  and  C5*_18
REMARK    4  A    between atoms: C5*_18  and  O5*_19
REMARK                            x       y       z     vdW  Elec       q    Type
REMARK                         _______ _______ _______ _____ _____    ______ ____
ROOT
ATOM      1  O2  T   A   1      34.793 -22.865 -17.427  0.00  0.00    -0.252 OA
ATOM      2  O4  T   A   1      30.415 -23.662 -16.266  0.00  0.00    -0.270 OA
ATOM      3  N1  T   A   1      34.351 -23.607 -15.257  0.00  0.00    -0.219 N 
ATOM      4  N3  T   A   1      32.614 -23.265 -16.834  0.00  0.00    -0.236 N 
ATOM      5  C6  T   A   1      33.380 -23.996 -14.343  0.00  0.00    +0.071 C 
ATOM      6  C2  T   A   1      33.986 -23.221 -16.564  0.00  0.00    +0.315 C 
ATOM      7  C5  T   A   1      32.068 -24.038 -14.604  0.00  0.00    +0.047 C 
ATOM      8  C4  T   A   1      31.605 -23.645 -15.961  0.00  0.00    +0.250 C 
ATOM      9  C5M T   A   1      31.039 -24.459 -13.604  0.00  0.00    +0.037 C 
ATOM     10  H3  T   A   1      32.335 -23.001 -17.740  0.00  0.00    +0.159 HD
ENDROOT
BRANCH   3  13
ATOM     11  O4* T   A   1      36.475 -24.488 -15.690  0.00  0.00    -0.335 OA
ATOM     12  C3* T   A   1      37.250 -24.782 -13.468  0.00  0.00    +0.144 C 
ATOM     13  C1* T   A   1      35.723 -23.609 -14.840  0.00  0.00    +0.202 C 
ATOM     14  C2* T   A   1      35.904 -24.096 -13.412  0.00  0.00    +0.083 C 
ATOM     15  C4* T   A   1      37.283 -25.360 -14.876  0.00  0.00    +0.173 C 
BRANCH  12  16
ATOM     16  O3* T   A   1      38.288 -23.817 -13.315  0.00  0.00    -0.382 OA
ATOM     17  H3* T   A   1      37.901 -22.962 -13.071  0.00  0.00    +0.210 HD
ENDBRANCH  12  16
BRANCH  15  18
ATOM     18  C5* T   A   1      36.687 -26.759 -14.957  0.00  0.00    +0.169 C 
BRANCH  18  19
ATOM     19  O5* T   A   1      36.802 -27.230 -16.290  0.00  0.00    -0.379 OA
ATOM     20  H5* T   A   1      35.968 -27.070 -16.762  0.00  0.00    +0.211 HD
ENDBRANCH  18  19
ENDBRANCH  15  18
ENDBRANCH   3  13
TORSDOF 4
ENDMDL
MODEL 4
REMARK VINA RESULT:      -7.7      1.788      3.129
REMARK  Name = 5789
REMARK  4 active torsions:
REMARK  status: ('A' for Active; 'I' for Inactive)
REMARK    1  A    between atoms: N1_3  and  C1*_13
REMARK    2  A    between atoms: C3*_12  and  O3*_16
REMARK    3  A    between atoms: C4*_15  and  C5*_18
REMARK    4  A    between atoms: C5*_18  and  O5*_19
REMARK                            x       y       z     vdW  Elec       q    Type
REMARK                         _______ _______ _______ _____ _____    ______ ____
ROOT
ATOM      1  O2  T   A   1      32.362 -24.608 -13.204  0.00  0.00    -0.252 OA
ATOM      2  O4  T   A   1      30.715 -22.670 -17.035  0.00  0.00    -0.270 OA
ATOM      3  N1  T   A   1      33.866 -24.128 -14.924  0.00  0.00    -0.219 N 
ATOM      4  N3  T   A   1      31.554 -23.642 -15.120  0.00  0.00    -0.236 N 
ATOM      5  C6  T   A   1      34.035 -23.607 -16.201  0.00  0.00    +0.071 C 
ATOM      6  C2  T   A   1      32.586 -24.161 -14.331  0.00  0.00    +0.315 C 
ATOM      7  C5  T   A   1      33.045 -23.111 -16.953  0.00  0.00    +0.047 C 
ATOM      8  C4  T   A   1      31.667 -23.111 -16.397  0.00  0.00    +0.250 C 
ATOM      9  C5M T   A   1      33.250 -22.555 -18.326  0.00  0.00    +0.037 C 
ATOM     10  H3  T   A   1      30.651 -23.654 -14.728  0.00  0.00    +0.159 HD
ENDROOT
BRANCH   3  13
ATOM     11  O4* T   A   1      35.862 -23.527 -13.862  0.00  0.00    -0.335 OA
ATOM     12  C3* T   A   1      37.254 -25.305 -14.584  0.00  0.00    +0.144 C 
ATOM     13  C1* T   A   1      35.018 -24.627 -14.231  0.00  0.00    +0.202 C 
ATOM     14  C2* T   A   1      35.852 -25.574 -15.079  0.00  0.00    +0.083 C 
ATOM     15  C4* T   A   1      37.221 -23.823 -14.241  0.00  0.00    +0.173 C 
BRANCH  12  16
ATOM     16  O3* T   A   1      37.505 -26.071 -13.408  0.00  0.00    -0.382 OA
ATOM     17  H3* T   A   1      36.876 -26.808 -13.362  0.00  0.00    +0.210 HD
ENDBRANCH  12  16
BRANCH  15  18
ATOM     18  C5* T   A   1      37.581 -22.932 -15.422  0.00  0.00    +0.169 C 
BRANCH  18  19
ATOM     19  O5* T   A   1      38.755 -23.439 -16.037  0.00  0.00    -0.379 OA
ATOM     20  H5* T   A   1      39.350 -23.792 -15.355  0.00  0.00    +0.211 HD
ENDBRANCH  18  19
ENDBRANCH  15  18
ENDBRANCH   3  13
TORSDOF 4
ENDMDL
MODEL 5
REMARK VINA RESULT:      -7.6      7.218      9.647
REMARK  Name = 5789
REMARK  4 active torsions:
REMARK  status: ('A' for Active; 'I' for Inactive)
REMARK    1  A    between atoms: N1_3  and  C1*_13
REMARK    2  A    between atoms: C3*_12  and  O3*_16
REMARK    3  A    between atoms: C4*_15  and  C5*_18
REMARK    4  A    between atoms: C5*_18  and  O5*_19
REMARK                            x       y       z     vdW  Elec       q    Type
REMARK                         _______ _______ _______ _____ _____    ______ ____
ROOT
ATOM      1  O2  T   A   1      38.015 -18.686 -21.819  0.00  0.00    -0.252 OA
ATOM      2  O4  T   A   1      35.550 -21.219 -18.877  0.00  0.00    -0.270 OA
ATOM      3  N1  T   A   1      35.705 -18.800 -22.138  0.00  0.00    -0.219 N 
ATOM      4  N3  T   A   1      36.774 -19.947 -20.360  0.00  0.00    -0.236 N 
ATOM      5  C6  T   A   1      34.499 -19.316 -21.683  0.00  0.00    +0.071 C 
ATOM      6  C2  T   A   1      36.910 -19.108 -21.472  0.00  0.00    +0.315 C 
ATOM      7  C5  T   A   1      34.372 -20.118 -20.619  0.00  0.00    +0.047 C 
ATOM      8  C4  T   A   1      35.597 -20.488 -19.863  0.00  0.00    +0.250 C 
ATOM      9  C5M T   A   1      33.062 -20.663 -20.146  0.00  0.00    +0.037 C 
ATOM     10  H3  T   A   1      37.601 -20.176 -19.878  0.00  0.00    +0.159 HD
ENDROOT
BRANCH   3  13
ATOM     11  O4* T   A   1      35.702 -16.580 -22.877  0.00  0.00    -0.335 OA
ATOM     12  C3* T   A   1      34.225 -16.770 -24.722  0.00  0.00    +0.144 C 
ATOM     13  C1* T   A   1      35.693 -17.952 -23.295  0.00  0.00    +0.202 C 
ATOM     14  C2* T   A   1      34.460 -18.154 -24.161  0.00  0.00    +0.083 C 
ATOM     15  C4* T   A   1      34.680 -15.858 -23.590  0.00  0.00    +0.173 C 
BRANCH  12  16
ATOM     16  O3* T   A   1      35.049 -16.569 -25.868  0.00  0.00    -0.382 OA
ATOM     17  H3* T   A   1      34.559 -16.820 -26.666  0.00  0.00    +0.210 HD
ENDBRANCH  12  16
BRANCH  15  18
ATOM     18  C5* T   A   1      33.564 -15.532 -22.606  0.00  0.00    +0.169 C 
BRANCH  18  19
ATOM     19  O5* T   A   1      34.080 -15.611 -21.287  0.00  0.00    -0.379 OA
ATOM     20  H5* T   A   1      33.591 -15.000 -20.712  0.00  0.00    +0.211 HD
ENDBRANCH  18  19
ENDBRANCH  15  18
ENDBRANCH   3  13
TORSDOF 4
ENDMDL
MODEL 6
REMARK VINA RESULT:      -7.5      8.197      9.907
REMARK  Name = 5789
REMARK  4 active torsions:
REMARK  status: ('A' for Active; 'I' for Inactive)
REMARK    1  A    between atoms: N1_3  and  C1*_13
REMARK    2  A    between atoms: C3*_12  and  O3*_16
REMARK    3  A    between atoms: C4*_15  and  C5*_18
REMARK    4  A    between atoms: C5*_18  and  O5*_19
REMARK                            x       y       z     vdW  Elec       q    Type
REMARK                         _______ _______ _______ _____ _____    ______ ____
ROOT
ATOM      1  O2  T   A   1      34.781 -18.060 -25.613  0.00  0.00    -0.252 OA
ATOM      2  O4  T   A   1      32.791 -13.928 -25.277  0.00  0.00    -0.270 OA
ATOM      3  N1  T   A   1      34.628 -17.085 -23.497  0.00  0.00    -0.219 N 
ATOM      4  N3  T   A   1      33.792 -15.999 -25.431  0.00  0.00    -0.236 N 
ATOM      5  C6  T   A   1      34.202 -15.990 -22.756  0.00  0.00    +0.071 C 
ATOM      6  C2  T   A   1      34.430 -17.122 -24.893  0.00  0.00    +0.315 C 
ATOM      7  C5  T   A   1      33.592 -14.917 -23.274  0.00  0.00    +0.047 C 
ATOM      8  C4  T   A   1      33.347 -14.882 -24.739  0.00  0.00    +0.250 C 
ATOM      9  C5M T   A   1      33.142 -13.748 -22.457  0.00  0.00    +0.037 C 
ATOM     10  H3  T   A   1      33.642 -16.001 -26.404  0.00  0.00    +0.159 HD
ENDROOT
BRANCH   3  13
ATOM     11  O4* T   A   1      34.390 -19.301 -22.784  0.00  0.00    -0.335 OA
ATOM     12  C3* T   A   1      35.464 -19.164 -20.675  0.00  0.00    +0.144 C 
ATOM     13  C1* T   A   1      35.270 -18.167 -22.810  0.00  0.00    +0.202 C 
ATOM     14  C2* T   A   1      35.615 -17.830 -21.368  0.00  0.00    +0.083 C 
ATOM     15  C4* T   A   1      34.328 -19.825 -21.443  0.00  0.00    +0.173 C 
BRANCH  12  16
ATOM     16  O3* T   A   1      36.661 -19.923 -20.827  0.00  0.00    -0.382 OA
ATOM     17  H3* T   A   1      37.066 -19.719 -21.684  0.00  0.00    +0.210 HD
ENDBRANCH  12  16
BRANCH  15  18
ATOM     18  C5* T   A   1      32.955 -19.494 -20.874  0.00  0.00    +0.169 C 
BRANCH  18  19
ATOM     19  O5* T   A   1      32.631 -20.449 -19.876  0.00  0.00    -0.379 OA
ATOM     20  H5* T   A   1      33.448 -20.816 -19.502  0.00  0.00    +0.211 HD
ENDBRANCH  18  19
ENDBRANCH  15  18
ENDBRANCH   3  13
TORSDOF 4
ENDMDL
MODEL 7
REMARK VINA RESULT:      -7.5      1.715      3.434
REMARK  Name = 5789
REMARK  4 active torsions:
REMARK  status: ('A' for Active; 'I' for Inactive)
REMARK    1  A    between atoms: N1_3  and  C1*_13
REMARK    2  A    between atoms: C3*_12  and  O3*_16
REMARK    3  A    between atoms: C4*_15  and  C5*_18
REMARK    4  A    between atoms: C5*_18  and  O5*_19
REMARK                            x       y       z     vdW  Elec       q    Type
REMARK                         _______ _______ _______ _____ _____    ______ ____
ROOT
ATOM      1  O2  T   A   1      31.942 -23.676 -15.971  0.00  0.00    -0.252 OA
ATOM      2  O4  T   A   1      32.989 -21.767 -20.021  0.00  0.00    -0.270 OA
ATOM      3  N1  T   A   1      34.177 -23.142 -16.387  0.00  0.00    -0.219 N 
ATOM      4  N3  T   A   1      32.478 -22.724 -17.987  0.00  0.00    -0.236 N 
ATOM      5  C6  T   A   1      35.090 -22.610 -17.288  0.00  0.00    +0.071 C 
ATOM      6  C2  T   A   1      32.808 -23.216 -16.720  0.00  0.00    +0.315 C 
ATOM      7  C5  T   A   1      34.772 -22.139 -18.500  0.00  0.00    +0.047 C 
ATOM      8  C4  T   A   1      33.347 -22.182 -18.923  0.00  0.00    +0.250 C 
ATOM      9  C5M T   A   1      35.772 -21.570 -19.455  0.00  0.00    +0.037 C 
ATOM     10  H3  T   A   1      31.528 -22.764 -18.242  0.00  0.00    +0.159 HD
ENDROOT
BRANCH   3  13
ATOM     11  O4* T   A   1      35.757 -22.789 -14.698  0.00  0.00    -0.335 OA
ATOM     12  C3* T   A   1      36.279 -25.037 -14.157  0.00  0.00    +0.144 C 
ATOM     13  C1* T   A   1      34.659 -23.611 -15.121  0.00  0.00    +0.202 C 
ATOM     14  C2* T   A   1      35.161 -25.044 -15.174  0.00  0.00    +0.083 C 
ATOM     15  C4* T   A   1      36.849 -23.631 -14.281  0.00  0.00    +0.173 C 
BRANCH  12  16
ATOM     16  O3* T   A   1      35.742 -25.230 -12.851  0.00  0.00    -0.382 OA
ATOM     17  H3* T   A   1      35.703 -26.179 -12.654  0.00  0.00    +0.210 HD
ENDBRANCH  12  16
BRANCH  15  18
ATOM     18  C5* T   A   1      37.947 -23.526 -15.330  0.00  0.00    +0.169 C 
BRANCH  18  19
ATOM     19  O5* T   A   1      38.662 -24.752 -15.369  0.00  0.00    -0.379 OA
ATOM     20  H5* T   A   1      38.106 -25.437 -15.774  0.00  0.00    +0.211 HD
ENDBRANCH  18  19
ENDBRANCH  15  18
ENDBRANCH   3  13
TORSDOF 4
ENDMDL
MODEL 8
REMARK VINA RESULT:      -7.2      2.344      3.341
REMARK  Name = 5789
REMARK  4 active torsions:
REMARK  status: ('A' for Active; 'I' for Inactive)
REMARK    1  A    between atoms: N1_3  and  C1*_13
REMARK    2  A    between atoms: C3*_12  and  O3*_16
REMARK    3  A    between atoms: C4*_15  and  C5*_18
REMARK    4  A    between atoms: C5*_18  and  O5*_19
REMARK                            x       y       z     vdW  Elec       q    Type
REMARK                         _______ _______ _______ _____ _____    ______ ____
ROOT
ATOM      1  O2  T   A   1      34.724 -24.659 -12.030  0.00  0.00    -0.252 OA
ATOM      2  O4  T   A   1      31.734 -22.514 -14.788  0.00  0.00    -0.270 OA
ATOM      3  N1  T   A   1      35.137 -24.686 -14.328  0.00  0.00    -0.219 N 
ATOM      4  N3  T   A   1      33.241 -23.594 -13.417  0.00  0.00    -0.236 N 
ATOM      5  C6  T   A   1      34.703 -24.289 -15.586  0.00  0.00    +0.071 C 
ATOM      6  C2  T   A   1      34.399 -24.341 -13.176  0.00  0.00    +0.315 C 
ATOM      7  C5  T   A   1      33.594 -23.574 -15.813  0.00  0.00    +0.047 C 
ATOM      8  C4  T   A   1      32.763 -23.171 -14.648  0.00  0.00    +0.250 C 
ATOM      9  C5M T   A   1      33.144 -23.156 -17.177  0.00  0.00    +0.037 C 
ATOM     10  H3  T   A   1      32.709 -23.340 -12.629  0.00  0.00    +0.159 HD
ENDROOT
BRANCH   3  13
ATOM     11  O4* T   A   1      36.707 -25.597 -12.851  0.00  0.00    -0.335 OA
ATOM     12  C3* T   A   1      38.694 -25.213 -14.087  0.00  0.00    +0.144 C 
ATOM     13  C1* T   A   1      36.346 -25.451 -14.232  0.00  0.00    +0.202 C 
ATOM     14  C2* T   A   1      37.519 -24.791 -14.939  0.00  0.00    +0.083 C 
ATOM     15  C4* T   A   1      38.100 -25.269 -12.686  0.00  0.00    +0.173 C 
BRANCH  12  16
ATOM     16  O3* T   A   1      39.133 -26.510 -14.481  0.00  0.00    -0.382 OA
ATOM     17  H3* T   A   1      39.195 -26.551 -15.448  0.00  0.00    +0.210 HD
ENDBRANCH  12  16
BRANCH  15  18
ATOM     18  C5* T   A   1      38.183 -23.937 -11.953  0.00  0.00    +0.169 C 
BRANCH  18  19
ATOM     19  O5* T   A   1      37.312 -23.976 -10.833  0.00  0.00    -0.379 OA
ATOM     20  H5* T   A   1      37.130 -24.900 -10.598  0.00  0.00    +0.211 HD
ENDBRANCH  18  19
ENDBRANCH  15  18
ENDBRANCH   3  13
TORSDOF 4
ENDMDL
MODEL 9
REMARK VINA RESULT:      -7.2      2.283      3.686
REMARK  Name = 5789
REMARK  4 active torsions:
REMARK  status: ('A' for Active; 'I' for Inactive)
REMARK    1  A    between atoms: N1_3  and  C1*_13
REMARK    2  A    between atoms: C3*_12  and  O3*_16
REMARK    3  A    between atoms: C4*_15  and  C5*_18
REMARK    4  A    between atoms: C5*_18  and  O5*_19
REMARK                            x       y       z     vdW  Elec       q    Type
REMARK                         _______ _______ _______ _____ _____    ______ ____
ROOT
ATOM      1  O2  T   A   1      34.766 -24.259 -14.132  0.00  0.00    -0.252 OA
ATOM      2  O4  T   A   1      33.732 -22.741 -18.348  0.00  0.00    -0.270 OA
ATOM      3  N1  T   A   1      36.385 -23.034 -15.284  0.00  0.00    -0.219 N 
ATOM      4  N3  T   A   1      34.264 -23.497 -16.236  0.00  0.00    -0.236 N 
ATOM      5  C6  T   A   1      36.708 -22.354 -16.452  0.00  0.00    +0.071 C 
ATOM      6  C2  T   A   1      35.120 -23.641 -15.138  0.00  0.00    +0.315 C 
ATOM      7  C5  T   A   1      35.886 -22.218 -17.500  0.00  0.00    +0.047 C 
ATOM      8  C4  T   A   1      34.534 -22.830 -17.422  0.00  0.00    +0.250 C 
ATOM      9  C5M T   A   1      36.254 -21.482 -18.749  0.00  0.00    +0.037 C 
ATOM     10  H3  T   A   1      33.375 -23.911 -16.158  0.00  0.00    +0.159 HD
ENDROOT
BRANCH   3  13
ATOM     11  O4* T   A   1      38.157 -24.286 -14.408  0.00  0.00    -0.335 OA
ATOM     12  C3* T   A   1      37.736 -24.014 -12.091  0.00  0.00    +0.144 C 
ATOM     13  C1* T   A   1      37.365 -23.102 -14.240  0.00  0.00    +0.202 C 
ATOM     14  C2* T   A   1      36.746 -23.164 -12.853  0.00  0.00    +0.083 C 
ATOM     15  C4* T   A   1      38.246 -24.982 -13.149  0.00  0.00    +0.173 C 
BRANCH  12  16
ATOM     16  O3* T   A   1      38.807 -23.199 -11.621  0.00  0.00    -0.382 OA
ATOM     17  H3* T   A   1      39.048 -23.470 -10.721  0.00  0.00    +0.210 HD
ENDBRANCH  12  16
BRANCH  15  18
ATOM     18  C5* T   A   1      37.404 -26.246 -13.253  0.00  0.00    +0.169 C 
BRANCH  18  19
ATOM     19  O5* T   A   1      36.823 -26.514 -11.986  0.00  0.00    -0.379 OA
ATOM     20  H5* T   A   1      36.068 -25.921 -11.845  0.00  0.00    +0.211 HD
ENDBRANCH  18  19
ENDBRANCH  15  18
ENDBRANCH   3  13
TORSDOF 4
ENDMDL
