MODEL 1
REMARK VINA RESULT:      -9.9      0.000      0.000
REMARK  Name = 9547890
REMARK  4 active torsions:
REMARK  status: ('A' for Active; 'I' for Inactive)
REMARK    1  A    between atoms: C_6  and  O_18
REMARK    2  A    between atoms: C_8  and  C_15
REMARK    3  A    between atoms: O_18  and  C_19
REMARK    4  A    between atoms: C_19  and  C_20
REMARK                            x       y       z     vdW  Elec       q    Type
REMARK                         _______ _______ _______ _____ _____    ______ ____
ROOT
ATOM      1  N   UNL     1      36.042 -24.632 -15.391  0.00  0.00    -0.269 NA
ATOM      2  N   UNL     1      35.435 -25.046 -13.287  0.00  0.00    -0.299 N 
ATOM      3  N   UNL     1      32.643 -23.252 -15.662  0.00  0.00    -0.293 NA
ATOM      4  N   UNL     1      33.187 -24.137 -13.455  0.00  0.00    -0.316 NA
ATOM      5  N   UNL     1      31.092 -23.200 -13.908  0.00  0.00    -0.283 N 
ATOM      6  C   UNL     1      33.866 -23.571 -16.139  0.00  0.00    +0.288 C 
ATOM      7  C   UNL     1      34.758 -24.176 -15.278  0.00  0.00    +0.214 C 
ATOM      8  C   UNL     1      36.403 -25.144 -14.173  0.00  0.00    +0.130 C 
ATOM      9  C   UNL     1      34.404 -24.446 -13.963  0.00  0.00    +0.196 C 
ATOM     10  C   UNL     1      32.382 -23.550 -14.368  0.00  0.00    +0.200 C 
ATOM     11  H   UNL     1      36.604 -24.597 -16.199  0.00  0.00    +0.126 HD
ATOM     12  H   UNL     1      35.448 -25.340 -12.348  0.00  0.00    +0.150 HD
ATOM     13  H   UNL     1      30.452 -22.768 -14.520  0.00  0.00    +0.156 HD
ATOM     14  H   UNL     1      30.833 -23.388 -12.978  0.00  0.00    +0.156 HD
ENDROOT
BRANCH   8  15
ATOM     15  C   UNL     1      37.742 -25.722 -13.955  0.00  0.00    +0.033 C 
ATOM     16  C   UNL     1      38.141 -25.792 -12.462  0.00  0.00    +0.003 C 
ATOM     17  C   UNL     1      38.857 -24.994 -14.746  0.00  0.00    +0.003 C 
ENDBRANCH   8  15
BRANCH   6  18
ATOM     18  O   UNL     1      34.162 -23.284 -17.448  0.00  0.00    -0.453 OA
BRANCH  18  19
ATOM     19  C   UNL     1      33.166 -22.621 -18.203  0.00  0.00    +0.208 C 
BRANCH  19  20
ATOM     20  C   UNL     1      33.828 -21.972 -19.416  0.00  0.00    +0.044 C 
ATOM     21  C   UNL     1      33.081 -20.694 -19.823  0.00  0.00    +0.004 C 
ATOM     22  C   UNL     1      35.307 -21.674 -19.134  0.00  0.00    +0.004 C 
ATOM     23  C   UNL     1      33.756 -19.998 -21.003  0.00  0.00    +0.000 C 
ATOM     24  C   UNL     1      35.977 -20.976 -20.314  0.00  0.00    +0.000 C 
ATOM     25  C   UNL     1      35.227 -19.712 -20.721  0.00  0.00    +0.000 C 
ENDBRANCH  19  20
ENDBRANCH  18  19
ENDBRANCH   6  18
TORSDOF 4
ENDMDL
MODEL 2
REMARK VINA RESULT:      -9.6      1.637      4.173
REMARK  Name = 9547890
REMARK  4 active torsions:
REMARK  status: ('A' for Active; 'I' for Inactive)
REMARK    1  A    between atoms: C_6  and  O_18
REMARK    2  A    between atoms: C_8  and  C_15
REMARK    3  A    between atoms: O_18  and  C_19
REMARK    4  A    between atoms: C_19  and  C_20
REMARK                            x       y       z     vdW  Elec       q    Type
REMARK                         _______ _______ _______ _____ _____    ______ ____
ROOT
ATOM      1  N   UNL     1      32.378 -23.462 -15.932  0.00  0.00    -0.269 NA
ATOM      2  N   UNL     1      32.877 -24.110 -13.859  0.00  0.00    -0.299 N 
ATOM      3  N   UNL     1      36.030 -23.218 -16.293  0.00  0.00    -0.293 NA
ATOM      4  N   UNL     1      35.292 -23.952 -14.086  0.00  0.00    -0.316 NA
ATOM      5  N   UNL     1      37.563 -23.709 -14.592  0.00  0.00    -0.283 N 
ATOM      6  C   UNL     1      34.757 -23.122 -16.734  0.00  0.00    +0.288 C 
ATOM      7  C   UNL     1      33.742 -23.440 -15.855  0.00  0.00    +0.214 C 
ATOM      8  C   UNL     1      31.905 -23.870 -14.713  0.00  0.00    +0.130 C 
ATOM      9  C   UNL     1      34.027 -23.845 -14.558  0.00  0.00    +0.196 C 
ATOM     10  C   UNL     1      36.217 -23.622 -15.014  0.00  0.00    +0.200 C 
ATOM     11  H   UNL     1      31.835 -23.229 -16.720  0.00  0.00    +0.126 HD
ATOM     12  H   UNL     1      32.797 -24.411 -12.925  0.00  0.00    +0.150 HD
ATOM     13  H   UNL     1      38.291 -23.482 -15.217  0.00  0.00    +0.156 HD
ATOM     14  H   UNL     1      37.774 -23.995 -13.674  0.00  0.00    +0.156 HD
ENDROOT
BRANCH   8  15
ATOM     15  C   UNL     1      30.459 -24.001 -14.461  0.00  0.00    +0.033 C 
ATOM     16  C   UNL     1      29.881 -25.364 -14.913  0.00  0.00    +0.003 C 
ATOM     17  C   UNL     1      29.623 -22.860 -15.091  0.00  0.00    +0.003 C 
ENDBRANCH   8  15
BRANCH   6  18
ATOM     18  O   UNL     1      34.532 -22.715 -18.025  0.00  0.00    -0.453 OA
BRANCH  18  19
ATOM     19  C   UNL     1      35.576 -22.009 -18.669  0.00  0.00    +0.208 C 
BRANCH  19  20
ATOM     20  C   UNL     1      35.006 -21.320 -19.906  0.00  0.00    +0.044 C 
ATOM     21  C   UNL     1      33.558 -20.876 -19.661  0.00  0.00    +0.004 C 
ATOM     22  C   UNL     1      35.882 -20.128 -20.316  0.00  0.00    +0.004 C 
ATOM     23  C   UNL     1      32.983 -20.136 -20.867  0.00  0.00    +0.000 C 
ATOM     24  C   UNL     1      35.303 -19.390 -21.520  0.00  0.00    +0.000 C 
ATOM     25  C   UNL     1      33.860 -18.958 -21.276  0.00  0.00    +0.000 C 
ENDBRANCH  19  20
ENDBRANCH  18  19
ENDBRANCH   6  18
TORSDOF 4
ENDMDL
MODEL 3
REMARK VINA RESULT:      -9.5      8.990     12.256
REMARK  Name = 9547890
REMARK  4 active torsions:
REMARK  status: ('A' for Active; 'I' for Inactive)
REMARK    1  A    between atoms: C_6  and  O_18
REMARK    2  A    between atoms: C_8  and  C_15
REMARK    3  A    between atoms: O_18  and  C_19
REMARK    4  A    between atoms: C_19  and  C_20
REMARK                            x       y       z     vdW  Elec       q    Type
REMARK                         _______ _______ _______ _____ _____    ______ ____
ROOT
ATOM      1  N   UNL     1      34.415 -16.375 -22.963  0.00  0.00    -0.269 NA
ATOM      2  N   UNL     1      34.521 -17.425 -24.925  0.00  0.00    -0.299 N 
ATOM      3  N   UNL     1      33.157 -13.579 -24.996  0.00  0.00    -0.293 NA
ATOM      4  N   UNL     1      33.691 -15.585 -26.278  0.00  0.00    -0.316 NA
ATOM      5  N   UNL     1      32.873 -13.656 -27.319  0.00  0.00    -0.283 N 
ATOM      6  C   UNL     1      33.521 -14.172 -23.837  0.00  0.00    +0.288 C 
ATOM      7  C   UNL     1      33.973 -15.475 -23.890  0.00  0.00    +0.214 C 
ATOM      8  C   UNL     1      34.732 -17.528 -23.630  0.00  0.00    +0.130 C 
ATOM      9  C   UNL     1      34.049 -16.150 -25.101  0.00  0.00    +0.196 C 
ATOM     10  C   UNL     1      33.263 -14.312 -26.129  0.00  0.00    +0.200 C 
ATOM     11  H   UNL     1      34.491 -16.223 -21.993  0.00  0.00    +0.126 HD
ATOM     12  H   UNL     1      34.671 -18.112 -25.615  0.00  0.00    +0.150 HD
ATOM     13  H   UNL     1      32.550 -12.726 -27.285  0.00  0.00    +0.156 HD
ATOM     14  H   UNL     1      32.924 -14.128 -28.181  0.00  0.00    +0.156 HD
ENDROOT
BRANCH   8  15
ATOM     15  C   UNL     1      35.245 -18.709 -22.912  0.00  0.00    +0.033 C 
ATOM     16  C   UNL     1      34.177 -19.398 -22.029  0.00  0.00    +0.003 C 
ATOM     17  C   UNL     1      36.497 -18.405 -22.053  0.00  0.00    +0.003 C 
ENDBRANCH   8  15
BRANCH   6  18
ATOM     18  O   UNL     1      33.426 -13.456 -22.669  0.00  0.00    -0.453 OA
BRANCH  18  19
ATOM     19  C   UNL     1      32.271 -13.662 -21.880  0.00  0.00    +0.208 C 
BRANCH  19  20
ATOM     20  C   UNL     1      31.647 -12.304 -21.569  0.00  0.00    +0.044 C 
ATOM     21  C   UNL     1      31.777 -11.976 -20.076  0.00  0.00    +0.004 C 
ATOM     22  C   UNL     1      32.284 -11.204 -22.428  0.00  0.00    +0.004 C 
ATOM     23  C   UNL     1      31.206 -10.597 -19.749  0.00  0.00    +0.000 C 
ATOM     24  C   UNL     1      31.713  -9.827 -22.098  0.00  0.00    +0.000 C 
ATOM     25  C   UNL     1      31.837  -9.508 -20.611  0.00  0.00    +0.000 C 
ENDBRANCH  19  20
ENDBRANCH  18  19
ENDBRANCH   6  18
TORSDOF 4
ENDMDL
MODEL 4
REMARK VINA RESULT:      -9.4      2.274      5.959
REMARK  Name = 9547890
REMARK  4 active torsions:
REMARK  status: ('A' for Active; 'I' for Inactive)
REMARK    1  A    between atoms: C_6  and  O_18
REMARK    2  A    between atoms: C_8  and  C_15
REMARK    3  A    between atoms: O_18  and  C_19
REMARK    4  A    between atoms: C_19  and  C_20
REMARK                            x       y       z     vdW  Elec       q    Type
REMARK                         _______ _______ _______ _____ _____    ______ ____
ROOT
ATOM      1  N   UNL     1      34.734 -22.759 -17.404  0.00  0.00    -0.269 NA
ATOM      2  N   UNL     1      36.824 -21.986 -17.382  0.00  0.00    -0.299 N 
ATOM      3  N   UNL     1      35.510 -23.766 -13.953  0.00  0.00    -0.293 NA
ATOM      4  N   UNL     1      37.348 -22.647 -15.103  0.00  0.00    -0.316 NA
ATOM      5  N   UNL     1      37.567 -23.395 -12.897  0.00  0.00    -0.283 N 
ATOM      6  C   UNL     1      34.710 -23.658 -15.036  0.00  0.00    +0.288 C 
ATOM      7  C   UNL     1      35.222 -23.043 -16.160  0.00  0.00    +0.214 C 
ATOM      8  C   UNL     1      35.729 -22.126 -18.100  0.00  0.00    +0.130 C 
ATOM      9  C   UNL     1      36.522 -22.554 -16.172  0.00  0.00    +0.196 C 
ATOM     10  C   UNL     1      36.762 -23.261 -14.051  0.00  0.00    +0.200 C 
ATOM     11  H   UNL     1      33.832 -22.970 -17.739  0.00  0.00    +0.126 HD
ATOM     12  H   UNL     1      37.672 -21.567 -17.655  0.00  0.00    +0.150 HD
ATOM     13  H   UNL     1      37.205 -23.833 -12.093  0.00  0.00    +0.156 HD
ATOM     14  H   UNL     1      38.489 -23.051 -12.897  0.00  0.00    +0.156 HD
ENDROOT
BRANCH   8  15
ATOM     15  C   UNL     1      35.525 -21.680 -19.490  0.00  0.00    +0.033 C 
ATOM     16  C   UNL     1      36.559 -20.625 -19.952  0.00  0.00    +0.003 C 
ATOM     17  C   UNL     1      34.097 -21.142 -19.755  0.00  0.00    +0.003 C 
ENDBRANCH   8  15
BRANCH   6  18
ATOM     18  O   UNL     1      33.434 -24.160 -14.970  0.00  0.00    -0.453 OA
BRANCH  18  19
ATOM     19  C   UNL     1      32.644 -23.769 -13.863  0.00  0.00    +0.208 C 
BRANCH  19  20
ATOM     20  C   UNL     1      31.190 -23.666 -14.317  0.00  0.00    +0.044 C 
ATOM     21  C   UNL     1      31.099 -23.013 -15.702  0.00  0.00    +0.004 C 
ATOM     22  C   UNL     1      30.522 -25.048 -14.319  0.00  0.00    +0.004 C 
ATOM     23  C   UNL     1      29.657 -22.946 -16.201  0.00  0.00    +0.000 C 
ATOM     24  C   UNL     1      29.082 -24.978 -14.820  0.00  0.00    +0.000 C 
ATOM     25  C   UNL     1      28.995 -24.320 -16.193  0.00  0.00    +0.000 C 
ENDBRANCH  19  20
ENDBRANCH  18  19
ENDBRANCH   6  18
TORSDOF 4
ENDMDL
MODEL 5
REMARK VINA RESULT:      -9.4      2.027      4.922
REMARK  Name = 9547890
REMARK  4 active torsions:
REMARK  status: ('A' for Active; 'I' for Inactive)
REMARK    1  A    between atoms: C_6  and  O_18
REMARK    2  A    between atoms: C_8  and  C_15
REMARK    3  A    between atoms: O_18  and  C_19
REMARK    4  A    between atoms: C_19  and  C_20
REMARK                            x       y       z     vdW  Elec       q    Type
REMARK                         _______ _______ _______ _____ _____    ______ ____
ROOT
ATOM      1  N   UNL     1      31.038 -23.255 -16.750  0.00  0.00    -0.269 NA
ATOM      2  N   UNL     1      31.095 -23.867 -14.608  0.00  0.00    -0.299 N 
ATOM      3  N   UNL     1      34.702 -23.437 -16.469  0.00  0.00    -0.293 NA
ATOM      4  N   UNL     1      33.514 -23.991 -14.411  0.00  0.00    -0.316 NA
ATOM      5  N   UNL     1      35.851 -24.025 -14.516  0.00  0.00    -0.283 N 
ATOM      6  C   UNL     1      33.543 -23.217 -17.129  0.00  0.00    +0.288 C 
ATOM      7  C   UNL     1      32.362 -23.382 -16.435  0.00  0.00    +0.214 C 
ATOM      8  C   UNL     1      30.319 -23.556 -15.625  0.00  0.00    +0.130 C 
ATOM      9  C   UNL     1      32.370 -23.763 -15.100  0.00  0.00    +0.196 C 
ATOM     10  C   UNL     1      34.617 -23.805 -15.169  0.00  0.00    +0.200 C 
ATOM     11  H   UNL     1      30.670 -22.996 -17.626  0.00  0.00    +0.126 HD
ATOM     12  H   UNL     1      30.820 -24.119 -13.697  0.00  0.00    +0.150 HD
ATOM     13  H   UNL     1      36.696 -23.908 -15.007  0.00  0.00    +0.156 HD
ATOM     14  H   UNL     1      35.866 -24.294 -13.569  0.00  0.00    +0.156 HD
ENDROOT
BRANCH   8  15
ATOM     15  C   UNL     1      28.845 -23.514 -15.627  0.00  0.00    +0.033 C 
ATOM     16  C   UNL     1      28.219 -24.118 -16.908  0.00  0.00    +0.003 C 
ATOM     17  C   UNL     1      28.274 -22.092 -15.405  0.00  0.00    +0.003 C 
ENDBRANCH   8  15
BRANCH   6  18
ATOM     18  O   UNL     1      33.593 -22.842 -18.448  0.00  0.00    -0.453 OA
BRANCH  18  19
ATOM     19  C   UNL     1      34.837 -22.380 -18.939  0.00  0.00    +0.208 C 
BRANCH  19  20
ATOM     20  C   UNL     1      34.638 -20.990 -19.537  0.00  0.00    +0.044 C 
ATOM     21  C   UNL     1      35.770 -20.652 -20.517  0.00  0.00    +0.004 C 
ATOM     22  C   UNL     1      33.270 -20.885 -20.226  0.00  0.00    +0.004 C 
ATOM     23  C   UNL     1      35.564 -19.286 -21.168  0.00  0.00    +0.000 C 
ATOM     24  C   UNL     1      33.069 -19.520 -20.878  0.00  0.00    +0.000 C 
ATOM     25  C   UNL     1      34.201 -19.185 -21.844  0.00  0.00    +0.000 C 
ENDBRANCH  19  20
ENDBRANCH  18  19
ENDBRANCH   6  18
TORSDOF 4
ENDMDL
MODEL 6
REMARK VINA RESULT:      -9.2      7.887     11.901
REMARK  Name = 9547890
REMARK  4 active torsions:
REMARK  status: ('A' for Active; 'I' for Inactive)
REMARK    1  A    between atoms: C_6  and  O_18
REMARK    2  A    between atoms: C_8  and  C_15
REMARK    3  A    between atoms: O_18  and  C_19
REMARK    4  A    between atoms: C_19  and  C_20
REMARK                            x       y       z     vdW  Elec       q    Type
REMARK                         _______ _______ _______ _____ _____    ______ ____
ROOT
ATOM      1  N   UNL     1      32.425 -13.507 -21.173  0.00  0.00    -0.269 NA
ATOM      2  N   UNL     1      31.913 -12.312 -22.983  0.00  0.00    -0.299 N 
ATOM      3  N   UNL     1      33.792 -15.877 -23.632  0.00  0.00    -0.293 NA
ATOM      4  N   UNL     1      32.813 -13.871 -24.617  0.00  0.00    -0.316 NA
ATOM      5  N   UNL     1      33.755 -15.547 -25.949  0.00  0.00    -0.283 N 
ATOM      6  C   UNL     1      33.502 -15.456 -22.381  0.00  0.00    +0.288 C 
ATOM      7  C   UNL     1      32.866 -14.240 -22.239  0.00  0.00    +0.214 C 
ATOM      8  C   UNL     1      31.862 -12.361 -21.669  0.00  0.00    +0.130 C 
ATOM      9  C   UNL     1      32.536 -13.477 -23.351  0.00  0.00    +0.196 C 
ATOM     10  C   UNL     1      33.435 -15.070 -24.658  0.00  0.00    +0.200 C 
ATOM     11  H   UNL     1      32.499 -13.756 -20.223  0.00  0.00    +0.126 HD
ATOM     12  H   UNL     1      31.578 -11.598 -23.572  0.00  0.00    +0.150 HD
ATOM     13  H   UNL     1      34.209 -16.415 -26.055  0.00  0.00    +0.156 HD
ATOM     14  H   UNL     1      33.524 -15.013 -26.743  0.00  0.00    +0.156 HD
ENDROOT
BRANCH   8  15
ATOM     15  C   UNL     1      31.284 -11.344 -20.772  0.00  0.00    +0.033 C 
ATOM     16  C   UNL     1      31.630  -9.894 -21.189  0.00  0.00    +0.003 C 
ATOM     17  C   UNL     1      31.668 -11.552 -19.286  0.00  0.00    +0.003 C 
ENDBRANCH   8  15
BRANCH   6  18
ATOM     18  O   UNL     1      33.850 -16.251 -21.317  0.00  0.00    -0.453 OA
BRANCH  18  19
ATOM     19  C   UNL     1      35.057 -16.980 -21.426  0.00  0.00    +0.208 C 
BRANCH  19  20
ATOM     20  C   UNL     1      34.729 -18.471 -21.389  0.00  0.00    +0.044 C 
ATOM     21  C   UNL     1      35.808 -19.246 -20.622  0.00  0.00    +0.004 C 
ATOM     22  C   UNL     1      33.343 -18.707 -20.772  0.00  0.00    +0.004 C 
ATOM     23  C   UNL     1      35.475 -20.734 -20.527  0.00  0.00    +0.000 C 
ATOM     24  C   UNL     1      33.015 -20.195 -20.675  0.00  0.00    +0.000 C 
ATOM     25  C   UNL     1      34.095 -20.963 -19.920  0.00  0.00    +0.000 C 
ENDBRANCH  19  20
ENDBRANCH  18  19
ENDBRANCH   6  18
TORSDOF 4
ENDMDL
MODEL 7
REMARK VINA RESULT:      -9.1      1.717      6.088
REMARK  Name = 9547890
REMARK  4 active torsions:
REMARK  status: ('A' for Active; 'I' for Inactive)
REMARK    1  A    between atoms: C_6  and  O_18
REMARK    2  A    between atoms: C_8  and  C_15
REMARK    3  A    between atoms: O_18  and  C_19
REMARK    4  A    between atoms: C_19  and  C_20
REMARK                            x       y       z     vdW  Elec       q    Type
REMARK                         _______ _______ _______ _____ _____    ______ ____
ROOT
ATOM      1  N   UNL     1      34.466 -23.090 -17.303  0.00  0.00    -0.269 NA
ATOM      2  N   UNL     1      32.733 -22.218 -18.399  0.00  0.00    -0.299 N 
ATOM      3  N   UNL     1      31.890 -24.121 -14.888  0.00  0.00    -0.293 NA
ATOM      4  N   UNL     1      31.022 -22.894 -16.810  0.00  0.00    -0.316 NA
ATOM      5  N   UNL     1      29.604 -23.669 -15.119  0.00  0.00    -0.283 N 
ATOM      6  C   UNL     1      33.157 -24.032 -15.349  0.00  0.00    +0.288 C 
ATOM      7  C   UNL     1      33.366 -23.374 -16.544  0.00  0.00    +0.214 C 
ATOM      8  C   UNL     1      34.037 -22.397 -18.403  0.00  0.00    +0.130 C 
ATOM      9  C   UNL     1      32.302 -22.822 -17.245  0.00  0.00    +0.196 C 
ATOM     10  C   UNL     1      30.914 -23.554 -15.636  0.00  0.00    +0.200 C 
ATOM     11  H   UNL     1      35.396 -23.338 -17.096  0.00  0.00    +0.126 HD
ATOM     12  H   UNL     1      32.187 -21.753 -19.074  0.00  0.00    +0.150 HD
ATOM     13  H   UNL     1      29.451 -24.138 -14.266  0.00  0.00    +0.156 HD
ATOM     14  H   UNL     1      28.845 -23.280 -15.609  0.00  0.00    +0.156 HD
ENDROOT
BRANCH   8  15
ATOM     15  C   UNL     1      34.986 -21.936 -19.433  0.00  0.00    +0.033 C 
ATOM     16  C   UNL     1      36.382 -21.586 -18.864  0.00  0.00    +0.003 C 
ATOM     17  C   UNL     1      34.457 -20.736 -20.257  0.00  0.00    +0.003 C 
ENDBRANCH   8  15
BRANCH   6  18
ATOM     18  O   UNL     1      34.170 -24.595 -14.614  0.00  0.00    -0.453 OA
BRANCH  18  19
ATOM     19  C   UNL     1      34.601 -23.889 -13.466  0.00  0.00    +0.208 C 
BRANCH  19  20
ATOM     20  C   UNL     1      36.127 -23.840 -13.471  0.00  0.00    +0.044 C 
ATOM     21  C   UNL     1      36.688 -24.239 -12.100  0.00  0.00    +0.004 C 
ATOM     22  C   UNL     1      36.696 -24.740 -14.577  0.00  0.00    +0.004 C 
ATOM     23  C   UNL     1      38.215 -24.248 -12.095  0.00  0.00    +0.000 C 
ATOM     24  C   UNL     1      38.223 -24.749 -14.568  0.00  0.00    +0.000 C 
ATOM     25  C   UNL     1      38.776 -25.137 -13.200  0.00  0.00    +0.000 C 
ENDBRANCH  19  20
ENDBRANCH  18  19
ENDBRANCH   6  18
TORSDOF 4
ENDMDL
MODEL 8
REMARK VINA RESULT:      -9.1      2.187      6.557
REMARK  Name = 9547890
REMARK  4 active torsions:
REMARK  status: ('A' for Active; 'I' for Inactive)
REMARK    1  A    between atoms: C_6  and  O_18
REMARK    2  A    between atoms: C_8  and  C_15
REMARK    3  A    between atoms: O_18  and  C_19
REMARK    4  A    between atoms: C_19  and  C_20
REMARK                            x       y       z     vdW  Elec       q    Type
REMARK                         _______ _______ _______ _____ _____    ______ ____
ROOT
ATOM      1  N   UNL     1      32.439 -23.733 -15.378  0.00  0.00    -0.269 NA
ATOM      2  N   UNL     1      30.972 -22.818 -16.784  0.00  0.00    -0.299 N 
ATOM      3  N   UNL     1      34.886 -22.737 -17.937  0.00  0.00    -0.293 NA
ATOM      4  N   UNL     1      32.580 -22.155 -18.481  0.00  0.00    -0.316 NA
ATOM      5  N   UNL     1      34.341 -21.640 -19.933  0.00  0.00    -0.283 N 
ATOM      6  C   UNL     1      34.514 -23.291 -16.763  0.00  0.00    +0.288 C 
ATOM      7  C   UNL     1      33.172 -23.283 -16.439  0.00  0.00    +0.214 C 
ATOM      8  C   UNL     1      31.127 -23.432 -15.630  0.00  0.00    +0.130 C 
ATOM      9  C   UNL     1      32.239 -22.719 -17.299  0.00  0.00    +0.196 C 
ATOM     10  C   UNL     1      33.910 -22.210 -18.713  0.00  0.00    +0.200 C 
ATOM     11  H   UNL     1      32.789 -24.189 -14.579  0.00  0.00    +0.126 HD
ATOM     12  H   UNL     1      30.132 -22.500 -17.188  0.00  0.00    +0.150 HD
ATOM     13  H   UNL     1      35.298 -21.645 -20.167  0.00  0.00    +0.156 HD
ATOM     14  H   UNL     1      33.685 -21.239 -20.548  0.00  0.00    +0.156 HD
ENDROOT
BRANCH   8  15
ATOM     15  C   UNL     1      30.064 -23.786 -14.671  0.00  0.00    +0.033 C 
ATOM     16  C   UNL     1      30.601 -24.467 -13.389  0.00  0.00    +0.003 C 
ATOM     17  C   UNL     1      28.954 -24.671 -15.290  0.00  0.00    +0.003 C 
ENDBRANCH   8  15
BRANCH   6  18
ATOM     18  O   UNL     1      35.478 -23.836 -15.952  0.00  0.00    -0.453 OA
BRANCH  18  19
ATOM     19  C   UNL     1      36.598 -23.025 -15.650  0.00  0.00    +0.208 C 
BRANCH  19  20
ATOM     20  C   UNL     1      37.499 -23.784 -14.678  0.00  0.00    +0.044 C 
ATOM     21  C   UNL     1      37.176 -23.402 -13.228  0.00  0.00    +0.004 C 
ATOM     22  C   UNL     1      37.368 -25.299 -14.886  0.00  0.00    +0.004 C 
ATOM     23  C   UNL     1      38.029 -24.187 -12.234  0.00  0.00    +0.000 C 
ATOM     24  C   UNL     1      38.219 -26.081 -13.889  0.00  0.00    +0.000 C 
ATOM     25  C   UNL     1      37.902 -25.692 -12.449  0.00  0.00    +0.000 C 
ENDBRANCH  19  20
ENDBRANCH  18  19
ENDBRANCH   6  18
TORSDOF 4
ENDMDL
MODEL 9
REMARK VINA RESULT:      -9.0      1.669      4.174
REMARK  Name = 9547890
REMARK  4 active torsions:
REMARK  status: ('A' for Active; 'I' for Inactive)
REMARK    1  A    between atoms: C_6  and  O_18
REMARK    2  A    between atoms: C_8  and  C_15
REMARK    3  A    between atoms: O_18  and  C_19
REMARK    4  A    between atoms: C_19  and  C_20
REMARK                            x       y       z     vdW  Elec       q    Type
REMARK                         _______ _______ _______ _____ _____    ______ ____
ROOT
ATOM      1  N   UNL     1      34.394 -22.933 -15.224  0.00  0.00    -0.269 NA
ATOM      2  N   UNL     1      34.454 -24.666 -13.825  0.00  0.00    -0.299 N 
ATOM      3  N   UNL     1      38.030 -23.470 -15.387  0.00  0.00    -0.293 NA
ATOM      4  N   UNL     1      36.855 -25.030 -13.925  0.00  0.00    -0.316 NA
ATOM      5  N   UNL     1      39.173 -25.144 -14.215  0.00  0.00    -0.283 N 
ATOM      6  C   UNL     1      36.879 -22.840 -15.710  0.00  0.00    +0.288 C 
ATOM      7  C   UNL     1      35.708 -23.300 -15.143  0.00  0.00    +0.214 C 
ATOM      8  C   UNL     1      33.682 -23.780 -14.417  0.00  0.00    +0.130 C 
ATOM      9  C   UNL     1      35.719 -24.378 -14.268  0.00  0.00    +0.196 C 
ATOM     10  C   UNL     1      37.948 -24.512 -14.527  0.00  0.00    +0.200 C 
ATOM     11  H   UNL     1      34.027 -22.195 -15.763  0.00  0.00    +0.126 HD
ATOM     12  H   UNL     1      34.183 -25.378 -13.201  0.00  0.00    +0.150 HD
ATOM     13  H   UNL     1      40.011 -24.818 -14.617  0.00  0.00    +0.156 HD
ATOM     14  H   UNL     1      39.190 -25.908 -13.595  0.00  0.00    +0.156 HD
ENDROOT
BRANCH   8  15
ATOM     15  C   UNL     1      32.220 -23.653 -14.279  0.00  0.00    +0.033 C 
ATOM     16  C   UNL     1      31.550 -24.917 -13.690  0.00  0.00    +0.003 C 
ATOM     17  C   UNL     1      31.512 -23.272 -15.603  0.00  0.00    +0.003 C 
ENDBRANCH   8  15
BRANCH   6  18
ATOM     18  O   UNL     1      36.927 -21.778 -16.579  0.00  0.00    -0.453 OA
BRANCH  18  19
ATOM     19  C   UNL     1      36.899 -22.077 -17.962  0.00  0.00    +0.208 C 
BRANCH  19  20
ATOM     20  C   UNL     1      35.817 -21.224 -18.621  0.00  0.00    +0.044 C 
ATOM     21  C   UNL     1      36.318 -20.645 -19.951  0.00  0.00    +0.004 C 
ATOM     22  C   UNL     1      34.533 -22.039 -18.828  0.00  0.00    +0.004 C 
ATOM     23  C   UNL     1      35.235 -19.830 -20.655  0.00  0.00    +0.000 C 
ATOM     24  C   UNL     1      33.454 -21.222 -19.534  0.00  0.00    +0.000 C 
ATOM     25  C   UNL     1      33.959 -20.641 -20.851  0.00  0.00    +0.000 C 
ENDBRANCH  19  20
ENDBRANCH  18  19
ENDBRANCH   6  18
TORSDOF 4
ENDMDL
