MODEL 1
REMARK VINA RESULT:      -7.2      0.000      0.000
REMARK  Name = 7028
REMARK  4 active torsions:
REMARK  status: ('A' for Active; 'I' for Inactive)
REMARK    1  A    between atoms: C_1  and  C_2
REMARK    2  A    between atoms: C_1  and  O_8
REMARK    3  A    between atoms: C_1  and  C_10
REMARK    4  A    between atoms: C_10  and  N_12
REMARK                            x       y       z     vdW  Elec       q    Type
REMARK                         _______ _______ _______ _____ _____    ______ ____
ROOT
ATOM      1  C   UNL     1      35.501 -18.437 -21.588  0.00  0.00    +0.113 C 
ENDROOT
BRANCH   1   2
ATOM      2  C   UNL     1      34.913 -19.610 -20.833  0.00  0.00    +0.002 C 
ATOM      3  C   UNL     1      33.539 -19.707 -20.697  0.00  0.00    -0.002 C 
ATOM      4  C   UNL     1      35.764 -20.562 -20.297  0.00  0.00    -0.002 C 
ATOM      5  C   UNL     1      32.998 -20.788 -20.003  0.00  0.00    -0.000 C 
ATOM      6  C   UNL     1      35.222 -21.645 -19.602  0.00  0.00    -0.000 C 
ATOM      7  C   UNL     1      33.840 -21.756 -19.455  0.00  0.00    -0.000 C 
ENDBRANCH   1   2
BRANCH   1   8
ATOM      8  O   UNL     1      35.369 -17.293 -20.738  0.00  0.00    -0.382 OA
ATOM      9  H   UNL     1      34.964 -16.566 -21.237  0.00  0.00    +0.211 HD
ENDBRANCH   1   8
BRANCH   1  10
ATOM     10  C   UNL     1      34.816 -18.165 -22.947  0.00  0.00    -0.030 C 
ATOM     11  C   UNL     1      34.963 -19.335 -23.922  0.00  0.00    -0.021 C 
BRANCH  10  12
ATOM     12  N   UNL     1      35.412 -16.977 -23.570  0.00  0.00    +0.385 N 
ATOM     13  C   UNL     1      34.790 -16.711 -24.855  0.00  0.00    -0.105 C 
ATOM     14  H   UNL     1      36.411 -17.136 -23.706  0.00  0.00    -0.084 HD
ATOM     15  H   UNL     1      35.263 -16.175 -22.958  0.00  0.00    -0.084 HD
ENDBRANCH  10  12
ENDBRANCH   1  10
TORSDOF 4
ENDMDL
MODEL 2
REMARK VINA RESULT:      -7.2      0.023      1.395
REMARK  Name = 7028
REMARK  4 active torsions:
REMARK  status: ('A' for Active; 'I' for Inactive)
REMARK    1  A    between atoms: C_1  and  C_2
REMARK    2  A    between atoms: C_1  and  O_8
REMARK    3  A    between atoms: C_1  and  C_10
REMARK    4  A    between atoms: C_10  and  N_12
REMARK                            x       y       z     vdW  Elec       q    Type
REMARK                         _______ _______ _______ _____ _____    ______ ____
ROOT
ATOM      1  C   UNL     1      35.503 -18.430 -21.592  0.00  0.00    +0.113 C 
ENDROOT
BRANCH   1   2
ATOM      2  C   UNL     1      34.911 -19.603 -20.839  0.00  0.00    +0.002 C 
ATOM      3  C   UNL     1      35.757 -20.556 -20.300  0.00  0.00    -0.002 C 
ATOM      4  C   UNL     1      33.536 -19.694 -20.705  0.00  0.00    -0.002 C 
ATOM      5  C   UNL     1      35.212 -21.636 -19.606  0.00  0.00    -0.000 C 
ATOM      6  C   UNL     1      32.991 -20.775 -20.011  0.00  0.00    -0.000 C 
ATOM      7  C   UNL     1      33.829 -21.745 -19.462  0.00  0.00    -0.000 C 
ENDBRANCH   1   2
BRANCH   1   8
ATOM      8  O   UNL     1      35.368 -17.286 -20.745  0.00  0.00    -0.382 OA
ATOM      9  H   UNL     1      36.013 -16.612 -21.009  0.00  0.00    +0.211 HD
ENDBRANCH   1   8
BRANCH   1  10
ATOM     10  C   UNL     1      34.825 -18.160 -22.955  0.00  0.00    -0.030 C 
ATOM     11  C   UNL     1      34.968 -19.333 -23.925  0.00  0.00    -0.021 C 
BRANCH  10  12
ATOM     12  N   UNL     1      35.430 -16.977 -23.580  0.00  0.00    +0.385 N 
ATOM     13  C   UNL     1      34.758 -16.661 -24.828  0.00  0.00    -0.105 C 
ATOM     14  H   UNL     1      36.415 -17.165 -23.768  0.00  0.00    -0.084 HD
ATOM     15  H   UNL     1      35.337 -16.185 -22.945  0.00  0.00    -0.084 HD
ENDBRANCH  10  12
ENDBRANCH   1  10
TORSDOF 4
ENDMDL
MODEL 3
REMARK VINA RESULT:      -7.0      1.416      2.230
REMARK  Name = 7028
REMARK  4 active torsions:
REMARK  status: ('A' for Active; 'I' for Inactive)
REMARK    1  A    between atoms: C_1  and  C_2
REMARK    2  A    between atoms: C_1  and  O_8
REMARK    3  A    between atoms: C_1  and  C_10
REMARK    4  A    between atoms: C_10  and  N_12
REMARK                            x       y       z     vdW  Elec       q    Type
REMARK                         _______ _______ _______ _____ _____    ______ ____
ROOT
ATOM      1  C   UNL     1      34.368 -18.742 -22.007  0.00  0.00    +0.113 C 
ENDROOT
BRANCH   1   2
ATOM      2  C   UNL     1      34.476 -19.842 -20.971  0.00  0.00    +0.002 C 
ATOM      3  C   UNL     1      35.730 -20.284 -20.585  0.00  0.00    -0.002 C 
ATOM      4  C   UNL     1      33.320 -20.379 -20.434  0.00  0.00    -0.002 C 
ATOM      5  C   UNL     1      35.830 -21.296 -19.630  0.00  0.00    -0.000 C 
ATOM      6  C   UNL     1      33.420 -21.392 -19.479  0.00  0.00    -0.000 C 
ATOM      7  C   UNL     1      34.675 -21.850 -19.078  0.00  0.00    -0.000 C 
ENDBRANCH   1   2
BRANCH   1   8
ATOM      8  O   UNL     1      34.604 -19.351 -23.280  0.00  0.00    -0.382 OA
ATOM      9  H   UNL     1      33.913 -20.008 -23.455  0.00  0.00    +0.211 HD
ENDBRANCH   1   8
BRANCH   1  10
ATOM     10  C   UNL     1      35.362 -17.580 -21.786  0.00  0.00    -0.030 C 
ATOM     11  C   UNL     1      34.788 -16.478 -20.893  0.00  0.00    -0.021 C 
BRANCH  10  12
ATOM     12  N   UNL     1      35.713 -16.979 -23.079  0.00  0.00    +0.385 N 
ATOM     13  C   UNL     1      34.893 -15.808 -23.335  0.00  0.00    -0.105 C 
ATOM     14  H   UNL     1      35.559 -17.665 -23.819  0.00  0.00    -0.084 HD
ATOM     15  H   UNL     1      36.693 -16.698 -23.057  0.00  0.00    -0.084 HD
ENDBRANCH  10  12
ENDBRANCH   1  10
TORSDOF 4
ENDMDL
MODEL 4
REMARK VINA RESULT:      -6.8      1.687      2.488
REMARK  Name = 7028
REMARK  4 active torsions:
REMARK  status: ('A' for Active; 'I' for Inactive)
REMARK    1  A    between atoms: C_1  and  C_2
REMARK    2  A    between atoms: C_1  and  O_8
REMARK    3  A    between atoms: C_1  and  C_10
REMARK    4  A    between atoms: C_10  and  N_12
REMARK                            x       y       z     vdW  Elec       q    Type
REMARK                         _______ _______ _______ _____ _____    ______ ____
ROOT
ATOM      1  C   UNL     1      35.093 -18.334 -22.460  0.00  0.00    +0.113 C 
ENDROOT
BRANCH   1   2
ATOM      2  C   UNL     1      34.762 -19.387 -21.424  0.00  0.00    +0.002 C 
ATOM      3  C   UNL     1      35.793 -20.054 -20.786  0.00  0.00    -0.002 C 
ATOM      4  C   UNL     1      33.435 -19.659 -21.137  0.00  0.00    -0.002 C 
ATOM      5  C   UNL     1      35.489 -21.024 -19.831  0.00  0.00    -0.000 C 
ATOM      6  C   UNL     1      33.131 -20.630 -20.182  0.00  0.00    -0.000 C 
ATOM      7  C   UNL     1      34.158 -21.313 -19.531  0.00  0.00    -0.000 C 
ENDBRANCH   1   2
BRANCH   1   8
ATOM      8  O   UNL     1      36.519 -18.232 -22.503  0.00  0.00    -0.382 OA
ATOM      9  H   UNL     1      36.860 -18.105 -21.604  0.00  0.00    +0.211 HD
ENDBRANCH   1   8
BRANCH   1  10
ATOM     10  C   UNL     1      34.475 -16.949 -22.158  0.00  0.00    -0.030 C 
ATOM     11  C   UNL     1      34.847 -15.899 -23.205  0.00  0.00    -0.021 C 
BRANCH  10  12
ATOM     12  N   UNL     1      34.946 -16.474 -20.851  0.00  0.00    +0.385 N 
ATOM     13  C   UNL     1      34.481 -15.121 -20.603  0.00  0.00    -0.105 C 
ATOM     14  H   UNL     1      35.967 -16.485 -20.839  0.00  0.00    -0.084 HD
ATOM     15  H   UNL     1      34.579 -17.088 -20.124  0.00  0.00    -0.084 HD
ENDBRANCH  10  12
ENDBRANCH   1  10
TORSDOF 4
ENDMDL
MODEL 5
REMARK VINA RESULT:      -6.7      1.806      4.816
REMARK  Name = 7028
REMARK  4 active torsions:
REMARK  status: ('A' for Active; 'I' for Inactive)
REMARK    1  A    between atoms: C_1  and  C_2
REMARK    2  A    between atoms: C_1  and  O_8
REMARK    3  A    between atoms: C_1  and  C_10
REMARK    4  A    between atoms: C_10  and  N_12
REMARK                            x       y       z     vdW  Elec       q    Type
REMARK                         _______ _______ _______ _____ _____    ______ ____
ROOT
ATOM      1  C   UNL     1      34.880 -18.693 -21.054  0.00  0.00    +0.113 C 
ENDROOT
BRANCH   1   2
ATOM      2  C   UNL     1      34.809 -18.165 -22.472  0.00  0.00    +0.002 C 
ATOM      3  C   UNL     1      34.911 -16.803 -22.691  0.00  0.00    -0.002 C 
ATOM      4  C   UNL     1      34.646 -19.058 -23.517  0.00  0.00    -0.002 C 
ATOM      5  C   UNL     1      34.846 -16.317 -23.997  0.00  0.00    -0.000 C 
ATOM      6  C   UNL     1      34.582 -18.572 -24.823  0.00  0.00    -0.000 C 
ATOM      7  C   UNL     1      34.681 -17.201 -25.062  0.00  0.00    -0.000 C 
ENDBRANCH   1   2
BRANCH   1   8
ATOM      8  O   UNL     1      36.262 -18.700 -20.686  0.00  0.00    -0.382 OA
ATOM      9  H   UNL     1      36.568 -17.787 -20.564  0.00  0.00    +0.211 HD
ENDBRANCH   1   8
BRANCH   1  10
ATOM     10  C   UNL     1      34.283 -20.109 -20.887  0.00  0.00    -0.030 C 
ATOM     11  C   UNL     1      32.830 -20.081 -20.410  0.00  0.00    -0.021 C 
BRANCH  10  12
ATOM     12  N   UNL     1      35.070 -20.862 -19.903  0.00  0.00    +0.385 N 
ATOM     13  C   UNL     1      34.272 -21.926 -19.319  0.00  0.00    -0.105 C 
ATOM     14  H   UNL     1      35.377 -20.228 -19.164  0.00  0.00    -0.084 HD
ATOM     15  H   UNL     1      35.877 -21.274 -20.371  0.00  0.00    -0.084 HD
ENDBRANCH  10  12
ENDBRANCH   1  10
TORSDOF 4
ENDMDL
MODEL 6
REMARK VINA RESULT:      -6.3      3.726      6.004
REMARK  Name = 7028
REMARK  4 active torsions:
REMARK  status: ('A' for Active; 'I' for Inactive)
REMARK    1  A    between atoms: C_1  and  C_2
REMARK    2  A    between atoms: C_1  and  O_8
REMARK    3  A    between atoms: C_1  and  C_10
REMARK    4  A    between atoms: C_10  and  N_12
REMARK                            x       y       z     vdW  Elec       q    Type
REMARK                         _______ _______ _______ _____ _____    ______ ____
ROOT
ATOM      1  C   UNL     1      34.978 -22.446 -18.950  0.00  0.00    +0.113 C 
ENDROOT
BRANCH   1   2
ATOM      2  C   UNL     1      34.575 -21.235 -19.764  0.00  0.00    +0.002 C 
ATOM      3  C   UNL     1      35.556 -20.476 -20.378  0.00  0.00    -0.002 C 
ATOM      4  C   UNL     1      33.233 -20.914 -19.878  0.00  0.00    -0.002 C 
ATOM      5  C   UNL     1      35.184 -19.361 -21.129  0.00  0.00    -0.000 C 
ATOM      6  C   UNL     1      32.861 -19.798 -20.628  0.00  0.00    -0.000 C 
ATOM      7  C   UNL     1      33.837 -19.022 -21.253  0.00  0.00    -0.000 C 
ENDBRANCH   1   2
BRANCH   1   8
ATOM      8  O   UNL     1      33.896 -23.377 -19.034  0.00  0.00    -0.382 OA
ATOM      9  H   UNL     1      33.472 -23.458 -18.165  0.00  0.00    +0.211 HD
ENDBRANCH   1   8
BRANCH   1  10
ATOM     10  C   UNL     1      35.285 -22.126 -17.470  0.00  0.00    -0.030 C 
ATOM     11  C   UNL     1      36.787 -22.062 -17.182  0.00  0.00    -0.021 C 
BRANCH  10  12
ATOM     12  N   UNL     1      34.702 -23.164 -16.611  0.00  0.00    +0.385 N 
ATOM     13  C   UNL     1      35.493 -23.329 -15.404  0.00  0.00    -0.105 C 
ATOM     14  H   UNL     1      34.681 -24.048 -17.121  0.00  0.00    -0.084 HD
ATOM     15  H   UNL     1      33.757 -22.884 -16.350  0.00  0.00    -0.084 HD
ENDBRANCH  10  12
ENDBRANCH   1  10
TORSDOF 4
ENDMDL
MODEL 7
REMARK VINA RESULT:      -6.2      2.410      4.895
REMARK  Name = 7028
REMARK  4 active torsions:
REMARK  status: ('A' for Active; 'I' for Inactive)
REMARK    1  A    between atoms: C_1  and  C_2
REMARK    2  A    between atoms: C_1  and  O_8
REMARK    3  A    between atoms: C_1  and  C_10
REMARK    4  A    between atoms: C_10  and  N_12
REMARK                            x       y       z     vdW  Elec       q    Type
REMARK                         _______ _______ _______ _____ _____    ______ ____
ROOT
ATOM      1  C   UNL     1      35.721 -18.192 -22.000  0.00  0.00    +0.113 C 
ENDROOT
BRANCH   1   2
ATOM      2  C   UNL     1      35.134 -16.798 -22.069  0.00  0.00    +0.002 C 
ATOM      3  C   UNL     1      34.975 -16.193 -23.304  0.00  0.00    -0.002 C 
ATOM      4  C   UNL     1      34.768 -16.160 -20.896  0.00  0.00    -0.002 C 
ATOM      5  C   UNL     1      34.433 -14.910 -23.368  0.00  0.00    -0.000 C 
ATOM      6  C   UNL     1      34.226 -14.876 -20.961  0.00  0.00    -0.000 C 
ATOM      7  C   UNL     1      34.060 -14.251 -22.196  0.00  0.00    -0.000 C 
ENDBRANCH   1   2
BRANCH   1   8
ATOM      8  O   UNL     1      35.594 -18.758 -23.307  0.00  0.00    -0.382 OA
ATOM      9  H   UNL     1      34.791 -18.416 -23.730  0.00  0.00    +0.211 HD
ENDBRANCH   1   8
BRANCH   1  10
ATOM     10  C   UNL     1      35.032 -19.106 -20.961  0.00  0.00    -0.030 C 
ATOM     11  C   UNL     1      35.928 -20.260 -20.509  0.00  0.00    -0.021 C 
BRANCH  10  12
ATOM     12  N   UNL     1      33.811 -19.679 -21.542  0.00  0.00    +0.385 N 
ATOM     13  C   UNL     1      32.916 -20.138 -20.494  0.00  0.00    -0.105 C 
ATOM     14  H   UNL     1      34.063 -20.468 -22.138  0.00  0.00    -0.084 HD
ATOM     15  H   UNL     1      33.338 -18.960 -22.089  0.00  0.00    -0.084 HD
ENDBRANCH  10  12
ENDBRANCH   1  10
TORSDOF 4
ENDMDL
MODEL 8
REMARK VINA RESULT:      -6.2      9.807     11.289
REMARK  Name = 7028
REMARK  4 active torsions:
REMARK  status: ('A' for Active; 'I' for Inactive)
REMARK    1  A    between atoms: C_1  and  C_2
REMARK    2  A    between atoms: C_1  and  O_8
REMARK    3  A    between atoms: C_1  and  C_10
REMARK    4  A    between atoms: C_10  and  N_12
REMARK                            x       y       z     vdW  Elec       q    Type
REMARK                         _______ _______ _______ _____ _____    ______ ____
ROOT
ATOM      1  C   UNL     1      32.849  -7.816 -20.954  0.00  0.00    +0.113 C 
ENDROOT
BRANCH   1   2
ATOM      2  C   UNL     1      32.208  -9.176 -20.772  0.00  0.00    +0.002 C 
ATOM      3  C   UNL     1      31.812  -9.891 -21.889  0.00  0.00    -0.002 C 
ATOM      4  C   UNL     1      32.033  -9.674 -19.492  0.00  0.00    -0.002 C 
ATOM      5  C   UNL     1      31.222 -11.143 -21.722  0.00  0.00    -0.000 C 
ATOM      6  C   UNL     1      31.442 -10.927 -19.325  0.00  0.00    -0.000 C 
ATOM      7  C   UNL     1      31.036 -11.660 -20.439  0.00  0.00    -0.000 C 
ENDBRANCH   1   2
BRANCH   1   8
ATOM      8  O   UNL     1      32.877  -7.198 -19.665  0.00  0.00    -0.382 OA
ATOM      9  H   UNL     1      32.382  -7.744 -19.035  0.00  0.00    +0.211 HD
ENDBRANCH   1   8
BRANCH   1  10
ATOM     10  C   UNL     1      32.105  -6.907 -21.959  0.00  0.00    -0.030 C 
ATOM     11  C   UNL     1      32.940  -6.602 -23.204  0.00  0.00    -0.021 C 
BRANCH  10  12
ATOM     12  N   UNL     1      31.770  -5.632 -21.313  0.00  0.00    +0.385 N 
ATOM     13  C   UNL     1      30.472  -5.161 -21.761  0.00  0.00    -0.105 C 
ATOM     14  H   UNL     1      32.480  -4.938 -21.553  0.00  0.00    -0.084 HD
ATOM     15  H   UNL     1      31.741  -5.771 -20.304  0.00  0.00    -0.084 HD
ENDBRANCH  10  12
ENDBRANCH   1  10
TORSDOF 4
ENDMDL
MODEL 9
REMARK VINA RESULT:      -6.1      9.958     12.273
REMARK  Name = 7028
REMARK  4 active torsions:
REMARK  status: ('A' for Active; 'I' for Inactive)
REMARK    1  A    between atoms: C_1  and  C_2
REMARK    2  A    between atoms: C_1  and  O_8
REMARK    3  A    between atoms: C_1  and  C_10
REMARK    4  A    between atoms: C_10  and  N_12
REMARK                            x       y       z     vdW  Elec       q    Type
REMARK                         _______ _______ _______ _____ _____    ______ ____
ROOT
ATOM      1  C   UNL     1      32.413  -7.794 -20.708  0.00  0.00    +0.113 C 
ENDROOT
BRANCH   1   2
ATOM      2  C   UNL     1      32.928  -7.363 -22.065  0.00  0.00    +0.002 C 
ATOM      3  C   UNL     1      32.152  -6.523 -22.845  0.00  0.00    -0.002 C 
ATOM      4  C   UNL     1      34.163  -7.817 -22.495  0.00  0.00    -0.002 C 
ATOM      5  C   UNL     1      32.626  -6.124 -24.095  0.00  0.00    -0.000 C 
ATOM      6  C   UNL     1      34.636  -7.419 -23.746  0.00  0.00    -0.000 C 
ATOM      7  C   UNL     1      33.868  -6.574 -24.545  0.00  0.00    -0.000 C 
ENDBRANCH   1   2
BRANCH   1   8
ATOM      8  O   UNL     1      33.244  -7.158 -19.732  0.00  0.00    -0.382 OA
ATOM      9  H   UNL     1      34.150  -7.495 -19.812  0.00  0.00    +0.211 HD
ENDBRANCH   1   8
BRANCH   1  10
ATOM     10  C   UNL     1      32.428  -9.325 -20.495  0.00  0.00    -0.030 C 
ATOM     11  C   UNL     1      31.385 -10.047 -21.351  0.00  0.00    -0.021 C 
BRANCH  10  12
ATOM     12  N   UNL     1      32.148  -9.629 -19.086  0.00  0.00    +0.385 N 
ATOM     13  C   UNL     1      31.314 -10.813 -18.977  0.00  0.00    -0.105 C 
ATOM     14  H   UNL     1      31.664  -8.837 -18.663  0.00  0.00    -0.084 HD
ATOM     15  H   UNL     1      33.031  -9.801 -18.605  0.00  0.00    -0.084 HD
ENDBRANCH  10  12
ENDBRANCH   1  10
TORSDOF 4
ENDMDL
