MODEL 1
REMARK VINA RESULT:      -9.4      0.000      0.000
REMARK  Name = 17753975
REMARK  6 active torsions:
REMARK  status: ('A' for Active; 'I' for Inactive)
REMARK    1  A    between atoms: C_2  and  O_18
REMARK    2  A    between atoms: C_3  and  N_6
REMARK    3  A    between atoms: C_4  and  O_20
REMARK    4  A    between atoms: O_20  and  P_21
REMARK    5  A    between atoms: P_21  and  O_23
REMARK    6  A    between atoms: P_21  and  O_25
REMARK                            x       y       z     vdW  Elec       q    Type
REMARK                         _______ _______ _______ _____ _____    ______ ____
ROOT
ATOM      1  O   UNL     1      37.063 -22.936 -12.580  0.00  0.00    -0.333 OA
ATOM      2  C   UNL     1      36.911 -25.303 -12.939  0.00  0.00    +0.188 C 
ATOM      3  C   UNL     1      36.171 -23.967 -13.038  0.00  0.00    +0.225 C 
ATOM      4  C   UNL     1      38.354 -24.906 -12.716  0.00  0.00    +0.186 C 
ATOM      5  C   UNL     1      38.236 -23.557 -12.037  0.00  0.00    +0.177 C 
ENDROOT
BRANCH   3   6
ATOM      6  N   UNL     1      35.706 -23.654 -14.390  0.00  0.00    -0.247 N 
ATOM      7  N   UNL     1      35.790 -23.076 -16.542  0.00  0.00    -0.242 NA
ATOM      8  N   UNL     1      33.309 -23.954 -14.133  0.00  0.00    -0.228 NA
ATOM      9  N   UNL     1      32.131 -23.516 -16.225  0.00  0.00    -0.229 NA
ATOM     10  C   UNL     1      34.414 -23.661 -14.835  0.00  0.00    +0.152 C 
ATOM     11  C   UNL     1      36.494 -23.296 -15.452  0.00  0.00    +0.223 C 
ATOM     12  C   UNL     1      34.488 -23.301 -16.171  0.00  0.00    +0.140 C 
ATOM     13  C   UNL     1      33.287 -23.233 -16.872  0.00  0.00    +0.143 C 
ATOM     14  C   UNL     1      32.212 -23.854 -14.915  0.00  0.00    +0.253 C 
ATOM     15  N   UNL     1      33.270 -22.878 -18.231  0.00  0.00    -0.342 N 
ATOM     16  H   UNL     1      32.414 -22.832 -18.716  0.00  0.00    +0.144 HD
ATOM     17  H   UNL     1      34.112 -22.673 -18.698  0.00  0.00    +0.144 HD
ENDBRANCH   3   6
BRANCH   2  18
ATOM     18  O   UNL     1      36.425 -25.995 -11.792  0.00  0.00    -0.378 OA
ATOM     19  H   UNL     1      36.593 -25.464 -10.998  0.00  0.00    +0.211 HD
ENDBRANCH   2  18
BRANCH   4  20
ATOM     20  O   UNL     1      39.014 -24.735 -13.965  0.00  0.00    -0.271 OA
BRANCH  20  21
ATOM     21  P   UNL     1      39.865 -25.974 -14.556  0.00  0.00    +0.473 P 
ATOM     22  O   UNL     1      41.046 -26.388 -13.728  0.00  0.00    -0.227 OA
BRANCH  21  23
ATOM     23  O   UNL     1      40.209 -25.519 -16.070  0.00  0.00    -0.303 OA
ATOM     24  H   UNL     1      41.124 -25.762 -16.281  0.00  0.00    +0.222 HD
ENDBRANCH  21  23
BRANCH  21  25
ATOM     25  O   UNL     1      38.739 -27.116 -14.758  0.00  0.00    -0.303 OA
ATOM     26  H   UNL     1      38.348 -27.032 -15.642  0.00  0.00    +0.222 HD
ENDBRANCH  21  25
ENDBRANCH  20  21
ENDBRANCH   4  20
TORSDOF 6
ENDMDL
MODEL 2
REMARK VINA RESULT:      -9.2      1.960      2.570
REMARK  Name = 17753975
REMARK  6 active torsions:
REMARK  status: ('A' for Active; 'I' for Inactive)
REMARK    1  A    between atoms: C_2  and  O_18
REMARK    2  A    between atoms: C_3  and  N_6
REMARK    3  A    between atoms: C_4  and  O_20
REMARK    4  A    between atoms: O_20  and  P_21
REMARK    5  A    between atoms: P_21  and  O_23
REMARK    6  A    between atoms: P_21  and  O_25
REMARK                            x       y       z     vdW  Elec       q    Type
REMARK                         _______ _______ _______ _____ _____    ______ ____
ROOT
ATOM      1  O   UNL     1      36.311 -23.191 -13.734  0.00  0.00    -0.333 OA
ATOM      2  C   UNL     1      36.625 -25.150 -15.083  0.00  0.00    +0.188 C 
ATOM      3  C   UNL     1      35.891 -23.813 -14.961  0.00  0.00    +0.225 C 
ATOM      4  C   UNL     1      37.706 -25.071 -14.027  0.00  0.00    +0.186 C 
ATOM      5  C   UNL     1      37.113 -24.128 -13.001  0.00  0.00    +0.177 C 
ENDROOT
BRANCH   3   6
ATOM      6  N   UNL     1      36.137 -22.906 -16.084  0.00  0.00    -0.247 N 
ATOM      7  N   UNL     1      37.164 -21.383 -17.348  0.00  0.00    -0.242 NA
ATOM      8  N   UNL     1      34.170 -23.322 -17.449  0.00  0.00    -0.228 NA
ATOM      9  N   UNL     1      34.197 -21.965 -19.477  0.00  0.00    -0.229 NA
ATOM     10  C   UNL     1      35.338 -22.720 -17.177  0.00  0.00    +0.152 C 
ATOM     11  C   UNL     1      37.220 -22.081 -16.233  0.00  0.00    +0.223 C 
ATOM     12  C   UNL     1      35.992 -21.772 -17.948  0.00  0.00    +0.140 C 
ATOM     13  C   UNL     1      35.379 -21.398 -19.139  0.00  0.00    +0.143 C 
ATOM     14  C   UNL     1      33.673 -22.879 -18.624  0.00  0.00    +0.253 C 
ATOM     15  N   UNL     1      35.974 -20.445 -19.983  0.00  0.00    -0.342 N 
ATOM     16  H   UNL     1      35.530 -20.186 -20.824  0.00  0.00    +0.144 HD
ATOM     17  H   UNL     1      36.833 -20.034 -19.735  0.00  0.00    +0.144 HD
ENDBRANCH   3   6
BRANCH   2  18
ATOM     18  O   UNL     1      35.709 -26.190 -14.750  0.00  0.00    -0.378 OA
ATOM     19  H   UNL     1      35.180 -25.923 -13.981  0.00  0.00    +0.211 HD
ENDBRANCH   2  18
BRANCH   4  20
ATOM     20  O   UNL     1      38.880 -24.480 -14.571  0.00  0.00    -0.271 OA
BRANCH  20  21
ATOM     21  P   UNL     1      40.216 -25.382 -14.671  0.00  0.00    +0.473 P 
ATOM     22  O   UNL     1      40.322 -26.478 -13.651  0.00  0.00    -0.227 OA
BRANCH  21  23
ATOM     23  O   UNL     1      41.416 -24.299 -14.649  0.00  0.00    -0.303 OA
ATOM     24  H   UNL     1      41.146 -23.506 -15.138  0.00  0.00    +0.222 HD
ENDBRANCH  21  23
BRANCH  21  25
ATOM     25  O   UNL     1      40.194 -25.881 -16.209  0.00  0.00    -0.303 OA
ATOM     26  H   UNL     1      39.451 -25.464 -16.673  0.00  0.00    +0.222 HD
ENDBRANCH  21  25
ENDBRANCH  20  21
ENDBRANCH   4  20
TORSDOF 6
ENDMDL
MODEL 3
REMARK VINA RESULT:      -9.1      2.159      3.886
REMARK  Name = 17753975
REMARK  6 active torsions:
REMARK  status: ('A' for Active; 'I' for Inactive)
REMARK    1  A    between atoms: C_2  and  O_18
REMARK    2  A    between atoms: C_3  and  N_6
REMARK    3  A    between atoms: C_4  and  O_20
REMARK    4  A    between atoms: O_20  and  P_21
REMARK    5  A    between atoms: P_21  and  O_23
REMARK    6  A    between atoms: P_21  and  O_25
REMARK                            x       y       z     vdW  Elec       q    Type
REMARK                         _______ _______ _______ _____ _____    ______ ____
ROOT
ATOM      1  O   UNL     1      36.305 -25.997 -15.260  0.00  0.00    -0.333 OA
ATOM      2  C   UNL     1      36.904 -23.924 -14.214  0.00  0.00    +0.188 C 
ATOM      3  C   UNL     1      36.171 -24.571 -15.390  0.00  0.00    +0.225 C 
ATOM      4  C   UNL     1      37.161 -25.074 -13.265  0.00  0.00    +0.186 C 
ATOM      5  C   UNL     1      37.219 -26.272 -14.189  0.00  0.00    +0.177 C 
ENDROOT
BRANCH   3   6
ATOM      6  N   UNL     1      34.754 -24.212 -15.467  0.00  0.00    -0.247 N 
ATOM      7  N   UNL     1      32.618 -24.016 -14.859  0.00  0.00    -0.242 NA
ATOM      8  N   UNL     1      34.664 -23.150 -17.650  0.00  0.00    -0.228 NA
ATOM      9  N   UNL     1      32.407 -22.386 -18.172  0.00  0.00    -0.229 NA
ATOM     10  C   UNL     1      34.123 -23.577 -16.498  0.00  0.00    +0.152 C 
ATOM     11  C   UNL     1      33.807 -24.456 -14.506  0.00  0.00    +0.223 C 
ATOM     12  C   UNL     1      32.801 -23.464 -16.102  0.00  0.00    +0.140 C 
ATOM     13  C   UNL     1      31.928 -22.841 -16.989  0.00  0.00    +0.143 C 
ATOM     14  C   UNL     1      33.726 -22.567 -18.426  0.00  0.00    +0.253 C 
ATOM     15  N   UNL     1      30.570 -22.683 -16.667  0.00  0.00    -0.342 N 
ATOM     16  H   UNL     1      29.961 -22.241 -17.303  0.00  0.00    +0.144 HD
ATOM     17  H   UNL     1      30.225 -23.014 -15.807  0.00  0.00    +0.144 HD
ENDBRANCH   3   6
BRANCH   2  18
ATOM     18  O   UNL     1      38.146 -23.414 -14.692  0.00  0.00    -0.378 OA
ATOM     19  H   UNL     1      38.344 -22.574 -14.247  0.00  0.00    +0.211 HD
ENDBRANCH   2  18
BRANCH   4  20
ATOM     20  O   UNL     1      36.060 -25.231 -12.377  0.00  0.00    -0.271 OA
BRANCH  20  21
ATOM     21  P   UNL     1      35.866 -24.144 -11.199  0.00  0.00    +0.473 P 
ATOM     22  O   UNL     1      37.068 -23.293 -10.912  0.00  0.00    -0.227 OA
BRANCH  21  23
ATOM     23  O   UNL     1      35.324 -25.018  -9.951  0.00  0.00    -0.303 OA
ATOM     24  H   UNL     1      34.508 -25.477 -10.207  0.00  0.00    +0.222 HD
ENDBRANCH  21  23
BRANCH  21  25
ATOM     25  O   UNL     1      34.554 -23.330 -11.680  0.00  0.00    -0.303 OA
ATOM     26  H   UNL     1      34.826 -22.537 -12.168  0.00  0.00    +0.222 HD
ENDBRANCH  21  25
ENDBRANCH  20  21
ENDBRANCH   4  20
TORSDOF 6
ENDMDL
MODEL 4
REMARK VINA RESULT:      -8.5      2.387      3.632
REMARK  Name = 17753975
REMARK  6 active torsions:
REMARK  status: ('A' for Active; 'I' for Inactive)
REMARK    1  A    between atoms: C_2  and  O_18
REMARK    2  A    between atoms: C_3  and  N_6
REMARK    3  A    between atoms: C_4  and  O_20
REMARK    4  A    between atoms: O_20  and  P_21
REMARK    5  A    between atoms: P_21  and  O_23
REMARK    6  A    between atoms: P_21  and  O_25
REMARK                            x       y       z     vdW  Elec       q    Type
REMARK                         _______ _______ _______ _____ _____    ______ ____
ROOT
ATOM      1  O   UNL     1      34.247 -23.449 -14.532  0.00  0.00    -0.333 OA
ATOM      2  C   UNL     1      35.958 -25.078 -14.948  0.00  0.00    +0.188 C 
ATOM      3  C   UNL     1      34.958 -24.115 -15.590  0.00  0.00    +0.225 C 
ATOM      4  C   UNL     1      35.984 -24.663 -13.493  0.00  0.00    +0.186 C 
ATOM      5  C   UNL     1      34.609 -24.062 -13.286  0.00  0.00    +0.177 C 
ENDROOT
BRANCH   3   6
ATOM      6  N   UNL     1      35.581 -23.122 -16.467  0.00  0.00    -0.247 N 
ATOM      7  N   UNL     1      37.079 -21.650 -17.216  0.00  0.00    -0.242 NA
ATOM      8  N   UNL     1      33.937 -22.986 -18.251  0.00  0.00    -0.228 NA
ATOM      9  N   UNL     1      34.620 -21.393 -19.967  0.00  0.00    -0.229 NA
ATOM     10  C   UNL     1      35.087 -22.647 -17.649  0.00  0.00    +0.152 C 
ATOM     11  C   UNL     1      36.779 -22.493 -16.251  0.00  0.00    +0.223 C 
ATOM     12  C   UNL     1      36.030 -21.736 -18.098  0.00  0.00    +0.140 C 
ATOM     13  C   UNL     1      35.765 -21.098 -19.305  0.00  0.00    +0.143 C 
ATOM     14  C   UNL     1      33.789 -22.305 -19.407  0.00  0.00    +0.253 C 
ATOM     15  N   UNL     1      36.668 -20.161 -19.835  0.00  0.00    -0.342 N 
ATOM     16  H   UNL     1      36.470 -19.715 -20.690  0.00  0.00    +0.144 HD
ATOM     17  H   UNL     1      37.499 -19.950 -19.352  0.00  0.00    +0.144 HD
ENDBRANCH   3   6
BRANCH   2  18
ATOM     18  O   UNL     1      35.434 -26.399 -15.058  0.00  0.00    -0.378 OA
ATOM     19  H   UNL     1      34.686 -26.502 -14.449  0.00  0.00    +0.211 HD
ENDBRANCH   2  18
BRANCH   4  20
ATOM     20  O   UNL     1      36.963 -23.652 -13.289  0.00  0.00    -0.271 OA
BRANCH  20  21
ATOM     21  P   UNL     1      38.243 -24.001 -12.367  0.00  0.00    +0.473 P 
ATOM     22  O   UNL     1      39.397 -24.630 -13.090  0.00  0.00    -0.227 OA
BRANCH  21  23
ATOM     23  O   UNL     1      37.621 -24.880 -11.160  0.00  0.00    -0.303 OA
ATOM     24  H   UNL     1      36.771 -25.256 -11.438  0.00  0.00    +0.222 HD
ENDBRANCH  21  23
BRANCH  21  25
ATOM     25  O   UNL     1      38.571 -22.583 -11.663  0.00  0.00    -0.303 OA
ATOM     26  H   UNL     1      38.190 -21.864 -12.191  0.00  0.00    +0.222 HD
ENDBRANCH  21  25
ENDBRANCH  20  21
ENDBRANCH   4  20
TORSDOF 6
ENDMDL
MODEL 5
REMARK VINA RESULT:      -8.3      1.996      3.195
REMARK  Name = 17753975
REMARK  6 active torsions:
REMARK  status: ('A' for Active; 'I' for Inactive)
REMARK    1  A    between atoms: C_2  and  O_18
REMARK    2  A    between atoms: C_3  and  N_6
REMARK    3  A    between atoms: C_4  and  O_20
REMARK    4  A    between atoms: O_20  and  P_21
REMARK    5  A    between atoms: P_21  and  O_23
REMARK    6  A    between atoms: P_21  and  O_25
REMARK                            x       y       z     vdW  Elec       q    Type
REMARK                         _______ _______ _______ _____ _____    ______ ____
ROOT
ATOM      1  O   UNL     1      35.810 -22.336 -15.721  0.00  0.00    -0.333 OA
ATOM      2  C   UNL     1      35.441 -23.767 -13.832  0.00  0.00    +0.188 C 
ATOM      3  C   UNL     1      34.838 -22.675 -14.717  0.00  0.00    +0.225 C 
ATOM      4  C   UNL     1      36.657 -24.233 -14.603  0.00  0.00    +0.186 C 
ATOM      5  C   UNL     1      37.038 -23.010 -15.411  0.00  0.00    +0.177 C 
ENDROOT
BRANCH   3   6
ATOM      6  N   UNL     1      33.582 -23.069 -15.358  0.00  0.00    -0.247 N 
ATOM      7  N   UNL     1      32.126 -23.530 -16.983  0.00  0.00    -0.242 NA
ATOM      8  N   UNL     1      32.185 -23.491 -13.416  0.00  0.00    -0.228 NA
ATOM      9  N   UNL     1      29.942 -24.193 -14.072  0.00  0.00    -0.229 NA
ATOM     10  C   UNL     1      32.420 -23.426 -14.735  0.00  0.00    +0.152 C 
ATOM     11  C   UNL     1      33.355 -23.146 -16.707  0.00  0.00    +0.223 C 
ATOM     12  C   UNL     1      31.530 -23.708 -15.759  0.00  0.00    +0.140 C 
ATOM     13  C   UNL     1      30.249 -24.106 -15.389  0.00  0.00    +0.143 C 
ATOM     14  C   UNL     1      30.915 -23.885 -13.180  0.00  0.00    +0.253 C 
ATOM     15  N   UNL     1      29.284 -24.413 -16.362  0.00  0.00    -0.342 N 
ATOM     16  H   UNL     1      28.380 -24.692 -16.089  0.00  0.00    +0.144 HD
ATOM     17  H   UNL     1      29.510 -24.349 -17.318  0.00  0.00    +0.144 HD
ENDBRANCH   3   6
BRANCH   2  18
ATOM     18  O   UNL     1      35.856 -23.167 -12.607  0.00  0.00    -0.378 OA
ATOM     19  H   UNL     1      36.247 -22.298 -12.788  0.00  0.00    +0.211 HD
ENDBRANCH   2  18
BRANCH   4  20
ATOM     20  O   UNL     1      36.299 -25.280 -15.497  0.00  0.00    -0.271 OA
BRANCH  20  21
ATOM     21  P   UNL     1      37.063 -26.697 -15.362  0.00  0.00    +0.473 P 
ATOM     22  O   UNL     1      36.752 -27.694 -16.440  0.00  0.00    -0.227 OA
BRANCH  21  23
ATOM     23  O   UNL     1      36.722 -27.178 -13.856  0.00  0.00    -0.303 OA
ATOM     24  H   UNL     1      37.085 -28.066 -13.710  0.00  0.00    +0.222 HD
ENDBRANCH  21  23
BRANCH  21  25
ATOM     25  O   UNL     1      38.616 -26.256 -15.268  0.00  0.00    -0.303 OA
ATOM     26  H   UNL     1      39.024 -26.674 -14.494  0.00  0.00    +0.222 HD
ENDBRANCH  21  25
ENDBRANCH  20  21
ENDBRANCH   4  20
TORSDOF 6
ENDMDL
MODEL 6
REMARK VINA RESULT:      -8.2      5.490      7.378
REMARK  Name = 17753975
REMARK  6 active torsions:
REMARK  status: ('A' for Active; 'I' for Inactive)
REMARK    1  A    between atoms: C_2  and  O_18
REMARK    2  A    between atoms: C_3  and  N_6
REMARK    3  A    between atoms: C_4  and  O_20
REMARK    4  A    between atoms: O_20  and  P_21
REMARK    5  A    between atoms: P_21  and  O_23
REMARK    6  A    between atoms: P_21  and  O_25
REMARK                            x       y       z     vdW  Elec       q    Type
REMARK                         _______ _______ _______ _____ _____    ______ ____
ROOT
ATOM      1  O   UNL     1      31.352 -25.622 -14.814  0.00  0.00    -0.333 OA
ATOM      2  C   UNL     1      30.863 -23.512 -13.784  0.00  0.00    +0.188 C 
ATOM      3  C   UNL     1      31.969 -24.498 -14.162  0.00  0.00    +0.225 C 
ATOM      4  C   UNL     1      29.656 -24.002 -14.553  0.00  0.00    +0.186 C 
ATOM      5  C   UNL     1      29.928 -25.485 -14.705  0.00  0.00    +0.177 C 
ENDROOT
BRANCH   3   6
ATOM      6  N   UNL     1      32.994 -23.922 -15.035  0.00  0.00    -0.247 N 
ATOM      7  N   UNL     1      33.921 -23.037 -16.859  0.00  0.00    -0.242 NA
ATOM      8  N   UNL     1      34.921 -23.937 -13.555  0.00  0.00    -0.228 NA
ATOM      9  N   UNL     1      36.896 -23.028 -14.661  0.00  0.00    -0.229 NA
ATOM     10  C   UNL     1      34.303 -23.689 -14.720  0.00  0.00    +0.152 C 
ATOM     11  C   UNL     1      32.814 -23.514 -16.330  0.00  0.00    +0.223 C 
ATOM     12  C   UNL     1      34.860 -23.140 -15.863  0.00  0.00    +0.140 C 
ATOM     13  C   UNL     1      36.209 -22.804 -15.807  0.00  0.00    +0.143 C 
ATOM     14  C   UNL     1      36.219 -23.572 -13.621  0.00  0.00    +0.253 C 
ATOM     15  N   UNL     1      36.855 -22.241 -16.921  0.00  0.00    -0.342 N 
ATOM     16  H   UNL     1      37.810 -22.008 -16.871  0.00  0.00    +0.144 HD
ATOM     17  H   UNL     1      36.353 -22.079 -17.752  0.00  0.00    +0.144 HD
ENDBRANCH   3   6
BRANCH   2  18
ATOM     18  O   UNL     1      30.619 -23.634 -12.385  0.00  0.00    -0.378 OA
ATOM     19  H   UNL     1      31.464 -23.657 -11.909  0.00  0.00    +0.211 HD
ENDBRANCH   2  18
BRANCH   4  20
ATOM     20  O   UNL     1      29.622 -23.407 -15.844  0.00  0.00    -0.271 OA
BRANCH  20  21
ATOM     21  P   UNL     1      28.195 -23.276 -16.589  0.00  0.00    +0.473 P 
ATOM     22  O   UNL     1      27.854 -24.406 -17.517  0.00  0.00    -0.227 OA
BRANCH  21  23
ATOM     23  O   UNL     1      28.250 -21.812 -17.275  0.00  0.00    -0.303 OA
ATOM     24  H   UNL     1      28.528 -21.898 -18.200  0.00  0.00    +0.222 HD
ENDBRANCH  21  23
BRANCH  21  25
ATOM     25  O   UNL     1      27.168 -23.071 -15.357  0.00  0.00    -0.303 OA
ATOM     26  H   UNL     1      26.839 -23.936 -15.064  0.00  0.00    +0.222 HD
ENDBRANCH  21  25
ENDBRANCH  20  21
ENDBRANCH   4  20
TORSDOF 6
ENDMDL
MODEL 7
REMARK VINA RESULT:      -8.0      2.195      3.634
REMARK  Name = 17753975
REMARK  6 active torsions:
REMARK  status: ('A' for Active; 'I' for Inactive)
REMARK    1  A    between atoms: C_2  and  O_18
REMARK    2  A    between atoms: C_3  and  N_6
REMARK    3  A    between atoms: C_4  and  O_20
REMARK    4  A    between atoms: O_20  and  P_21
REMARK    5  A    between atoms: P_21  and  O_23
REMARK    6  A    between atoms: P_21  and  O_25
REMARK                            x       y       z     vdW  Elec       q    Type
REMARK                         _______ _______ _______ _____ _____    ______ ____
ROOT
ATOM      1  O   UNL     1      34.634 -22.797 -15.887  0.00  0.00    -0.333 OA
ATOM      2  C   UNL     1      35.634 -23.602 -13.860  0.00  0.00    +0.188 C 
ATOM      3  C   UNL     1      34.384 -22.977 -14.482  0.00  0.00    +0.225 C 
ATOM      4  C   UNL     1      36.449 -24.053 -15.052  0.00  0.00    +0.186 C 
ATOM      5  C   UNL     1      36.013 -23.099 -16.145  0.00  0.00    +0.177 C 
ENDROOT
BRANCH   3   6
ATOM      6  N   UNL     1      33.173 -23.779 -14.294  0.00  0.00    -0.247 N 
ATOM      7  N   UNL     1      31.814 -25.338 -13.462  0.00  0.00    -0.242 NA
ATOM      8  N   UNL     1      31.694 -22.770 -15.936  0.00  0.00    -0.228 NA
ATOM      9  N   UNL     1      29.506 -23.851 -15.940  0.00  0.00    -0.229 NA
ATOM     10  C   UNL     1      31.992 -23.650 -14.968  0.00  0.00    +0.152 C 
ATOM     11  C   UNL     1      33.017 -24.806 -13.401  0.00  0.00    +0.223 C 
ATOM     12  C   UNL     1      31.163 -24.625 -14.438  0.00  0.00    +0.140 C 
ATOM     13  C   UNL     1      29.876 -24.709 -14.959  0.00  0.00    +0.143 C 
ATOM     14  C   UNL     1      30.425 -22.948 -16.362  0.00  0.00    +0.253 C 
ATOM     15  N   UNL     1      28.968 -25.668 -14.478  0.00  0.00    -0.342 N 
ATOM     16  H   UNL     1      28.060 -25.719 -14.856  0.00  0.00    +0.144 HD
ATOM     17  H   UNL     1      29.239 -26.290 -13.765  0.00  0.00    +0.144 HD
ENDBRANCH   3   6
BRANCH   2  18
ATOM     18  O   UNL     1      36.340 -22.580 -13.160  0.00  0.00    -0.378 OA
ATOM     19  H   UNL     1      36.708 -22.944 -12.340  0.00  0.00    +0.211 HD
ENDBRANCH   2  18
BRANCH   4  20
ATOM     20  O   UNL     1      36.082 -25.376 -15.425  0.00  0.00    -0.271 OA
BRANCH  20  21
ATOM     21  P   UNL     1      37.162 -26.558 -15.212  0.00  0.00    +0.473 P 
ATOM     22  O   UNL     1      38.586 -26.104 -15.077  0.00  0.00    -0.227 OA
BRANCH  21  23
ATOM     23  O   UNL     1      36.874 -27.570 -16.440  0.00  0.00    -0.303 OA
ATOM     24  H   UNL     1      36.710 -28.462 -16.093  0.00  0.00    +0.222 HD
ENDBRANCH  21  23
BRANCH  21  25
ATOM     25  O   UNL     1      36.575 -27.351 -13.931  0.00  0.00    -0.303 OA
ATOM     26  H   UNL     1      36.737 -26.832 -13.128  0.00  0.00    +0.222 HD
ENDBRANCH  21  25
ENDBRANCH  20  21
ENDBRANCH   4  20
TORSDOF 6
ENDMDL
MODEL 8
REMARK VINA RESULT:      -7.7      8.357     10.419
REMARK  Name = 17753975
REMARK  6 active torsions:
REMARK  status: ('A' for Active; 'I' for Inactive)
REMARK    1  A    between atoms: C_2  and  O_18
REMARK    2  A    between atoms: C_3  and  N_6
REMARK    3  A    between atoms: C_4  and  O_20
REMARK    4  A    between atoms: O_20  and  P_21
REMARK    5  A    between atoms: P_21  and  O_23
REMARK    6  A    between atoms: P_21  and  O_25
REMARK                            x       y       z     vdW  Elec       q    Type
REMARK                         _______ _______ _______ _____ _____    ______ ____
ROOT
ATOM      1  O   UNL     1      36.080 -18.434 -21.743  0.00  0.00    -0.333 OA
ATOM      2  C   UNL     1      34.330 -18.378 -23.382  0.00  0.00    +0.188 C 
ATOM      3  C   UNL     1      35.115 -19.263 -22.413  0.00  0.00    +0.225 C 
ATOM      4  C   UNL     1      34.695 -16.969 -22.968  0.00  0.00    +0.186 C 
ATOM      5  C   UNL     1      36.071 -17.138 -22.358  0.00  0.00    +0.177 C 
ENDROOT
BRANCH   3   6
ATOM      6  N   UNL     1      34.273 -19.939 -21.424  0.00  0.00    -0.247 N 
ATOM      7  N   UNL     1      32.431 -20.571 -20.339  0.00  0.00    -0.242 NA
ATOM      8  N   UNL     1      35.946 -21.146 -20.142  0.00  0.00    -0.228 NA
ATOM      9  N   UNL     1      34.923 -22.438 -18.343  0.00  0.00    -0.229 NA
ATOM     10  C   UNL     1      34.689 -20.773 -20.426  0.00  0.00    +0.152 C 
ATOM     11  C   UNL     1      32.909 -19.849 -21.330  0.00  0.00    +0.223 C 
ATOM     12  C   UNL     1      33.533 -21.154 -19.765  0.00  0.00    +0.140 C 
ATOM     13  C   UNL     1      33.681 -22.020 -18.686  0.00  0.00    +0.143 C 
ATOM     14  C   UNL     1      35.964 -21.981 -19.081  0.00  0.00    +0.253 C 
ATOM     15  N   UNL     1      32.561 -22.460 -17.960  0.00  0.00    -0.342 N 
ATOM     16  H   UNL     1      32.677 -23.072 -17.198  0.00  0.00    +0.144 HD
ATOM     17  H   UNL     1      31.659 -22.155 -18.212  0.00  0.00    +0.144 HD
ENDBRANCH   3   6
BRANCH   2  18
ATOM     18  O   UNL     1      34.813 -18.626 -24.701  0.00  0.00    -0.378 OA
ATOM     19  H   UNL     1      35.460 -17.945 -24.942  0.00  0.00    +0.211 HD
ENDBRANCH   2  18
BRANCH   4  20
ATOM     20  O   UNL     1      33.801 -16.507 -21.962  0.00  0.00    -0.271 OA
BRANCH  20  21
ATOM     21  P   UNL     1      34.025 -15.025 -21.361  0.00  0.00    +0.473 P 
ATOM     22  O   UNL     1      34.907 -14.956 -20.148  0.00  0.00    -0.227 OA
BRANCH  21  23
ATOM     23  O   UNL     1      32.524 -14.459 -21.158  0.00  0.00    -0.303 OA
ATOM     24  H   UNL     1      32.427 -13.620 -21.637  0.00  0.00    +0.222 HD
ENDBRANCH  21  23
BRANCH  21  25
ATOM     25  O   UNL     1      34.564 -14.199 -22.643  0.00  0.00    -0.303 OA
ATOM     26  H   UNL     1      34.309 -14.663 -23.456  0.00  0.00    +0.222 HD
ENDBRANCH  21  25
ENDBRANCH  20  21
ENDBRANCH   4  20
TORSDOF 6
ENDMDL
MODEL 9
REMARK VINA RESULT:      -7.7      4.188      6.122
REMARK  Name = 17753975
REMARK  6 active torsions:
REMARK  status: ('A' for Active; 'I' for Inactive)
REMARK    1  A    between atoms: C_2  and  O_18
REMARK    2  A    between atoms: C_3  and  N_6
REMARK    3  A    between atoms: C_4  and  O_20
REMARK    4  A    between atoms: O_20  and  P_21
REMARK    5  A    between atoms: P_21  and  O_23
REMARK    6  A    between atoms: P_21  and  O_25
REMARK                            x       y       z     vdW  Elec       q    Type
REMARK                         _______ _______ _______ _____ _____    ______ ____
ROOT
ATOM      1  O   UNL     1      32.200 -25.189 -14.421  0.00  0.00    -0.333 OA
ATOM      2  C   UNL     1      32.767 -22.915 -14.932  0.00  0.00    +0.188 C 
ATOM      3  C   UNL     1      33.032 -24.095 -13.996  0.00  0.00    +0.225 C 
ATOM      4  C   UNL     1      31.996 -23.525 -16.082  0.00  0.00    +0.186 C 
ATOM      5  C   UNL     1      31.308 -24.712 -15.439  0.00  0.00    +0.177 C 
ENDROOT
BRANCH   3   6
ATOM      6  N   UNL     1      34.433 -24.521 -13.972  0.00  0.00    -0.247 N 
ATOM      7  N   UNL     1      36.368 -25.362 -14.691  0.00  0.00    -0.242 NA
ATOM      8  N   UNL     1      35.049 -23.949 -11.693  0.00  0.00    -0.228 NA
ATOM      9  N   UNL     1      37.377 -24.515 -11.235  0.00  0.00    -0.229 NA
ATOM     10  C   UNL     1      35.297 -24.436 -12.918  0.00  0.00    +0.152 C 
ATOM     11  C   UNL     1      35.123 -25.084 -15.013  0.00  0.00    +0.223 C 
ATOM     12  C   UNL     1      36.491 -24.961 -13.384  0.00  0.00    +0.140 C 
ATOM     13  C   UNL     1      37.558 -24.991 -12.490  0.00  0.00    +0.143 C 
ATOM     14  C   UNL     1      36.152 -24.031 -10.918  0.00  0.00    +0.253 C 
ATOM     15  N   UNL     1      38.806 -25.505 -12.880  0.00  0.00    -0.342 N 
ATOM     16  H   UNL     1      39.553 -25.522 -12.239  0.00  0.00    +0.144 HD
ATOM     17  H   UNL     1      38.934 -25.850 -13.793  0.00  0.00    +0.144 HD
ENDBRANCH   3   6
BRANCH   2  18
ATOM     18  O   UNL     1      31.938 -21.981 -14.244  0.00  0.00    -0.378 OA
ATOM     19  H   UNL     1      31.175 -22.444 -13.865  0.00  0.00    +0.211 HD
ENDBRANCH   2  18
BRANCH   4  20
ATOM     20  O   UNL     1      32.894 -23.998 -17.078  0.00  0.00    -0.271 OA
BRANCH  20  21
ATOM     21  P   UNL     1      33.473 -22.939 -18.151  0.00  0.00    +0.473 P 
ATOM     22  O   UNL     1      32.579 -21.768 -18.438  0.00  0.00    -0.227 OA
BRANCH  21  23
ATOM     23  O   UNL     1      33.849 -23.852 -19.432  0.00  0.00    -0.303 OA
ATOM     24  H   UNL     1      33.041 -24.246 -19.796  0.00  0.00    +0.222 HD
ENDBRANCH  21  23
BRANCH  21  25
ATOM     25  O   UNL     1      34.917 -22.557 -17.530  0.00  0.00    -0.303 OA
ATOM     26  H   UNL     1      35.528 -23.300 -17.653  0.00  0.00    +0.222 HD
ENDBRANCH  21  25
ENDBRANCH  20  21
ENDBRANCH   4  20
TORSDOF 6
ENDMDL
