MODEL 1
REMARK VINA RESULT:      -3.7      0.000      0.000
REMARK  Name = 444235
REMARK  0 active torsions:
REMARK  status: ('A' for Active; 'I' for Inactive)
REMARK                            x       y       z     vdW  Elec       q    Type
REMARK                         _______ _______ _______ _____ _____    ______ ____
ROOT
ATOM      1  N   UNL     1      34.807 -20.928 -19.976  0.00  0.00    -0.287 N 
ATOM      2  N   UNL     1      32.659 -20.986 -19.785  0.00  0.00    -0.314 N 
ATOM      3  C   UNL     1      33.793 -21.570 -19.386  0.00  0.00    +0.185 C 
ATOM      4  C   UNL     1      34.313 -19.918 -20.765  0.00  0.00    +0.078 C 
ATOM      5  C   UNL     1      36.208 -21.255 -19.805  0.00  0.00    +0.114 C 
ATOM      6  C   UNL     1      32.951 -19.954 -20.644  0.00  0.00    +0.075 C 
ATOM      7  H   UNL     1      31.753 -21.254 -19.506  0.00  0.00    +0.148 HD
ENDROOT
TORSDOF 0
ENDMDL
MODEL 2
REMARK VINA RESULT:      -3.6      0.903      1.902
REMARK  Name = 444235
REMARK  0 active torsions:
REMARK  status: ('A' for Active; 'I' for Inactive)
REMARK                            x       y       z     vdW  Elec       q    Type
REMARK                         _______ _______ _______ _____ _____    ______ ____
ROOT
ATOM      1  N   UNL     1      34.403 -20.026 -20.600  0.00  0.00    -0.287 N 
ATOM      2  N   UNL     1      32.673 -21.054 -19.824  0.00  0.00    -0.314 N 
ATOM      3  C   UNL     1      33.067 -20.020 -20.574  0.00  0.00    +0.185 C 
ATOM      4  C   UNL     1      34.872 -21.080 -19.854  0.00  0.00    +0.078 C 
ATOM      5  C   UNL     1      35.223 -19.064 -21.308  0.00  0.00    +0.114 C 
ATOM      6  C   UNL     1      33.775 -21.732 -19.362  0.00  0.00    +0.075 C 
ATOM      7  H   UNL     1      31.736 -21.293 -19.631  0.00  0.00    +0.148 HD
ENDROOT
TORSDOF 0
ENDMDL
MODEL 3
REMARK VINA RESULT:      -3.6      6.066      7.023
REMARK  Name = 444235
REMARK  0 active torsions:
REMARK  status: ('A' for Active; 'I' for Inactive)
REMARK                            x       y       z     vdW  Elec       q    Type
REMARK                         _______ _______ _______ _____ _____    ______ ____
ROOT
ATOM      1  N   UNL     1      33.918 -15.736 -25.081  0.00  0.00    -0.287 N 
ATOM      2  N   UNL     1      35.329 -17.002 -24.049  0.00  0.00    -0.314 N 
ATOM      3  C   UNL     1      34.697 -16.815 -25.212  0.00  0.00    +0.185 C 
ATOM      4  C   UNL     1      34.055 -15.225 -23.813  0.00  0.00    +0.078 C 
ATOM      5  C   UNL     1      33.066 -15.197 -26.121  0.00  0.00    +0.114 C 
ATOM      6  C   UNL     1      34.948 -16.027 -23.159  0.00  0.00    +0.075 C 
ATOM      7  H   UNL     1      35.969 -17.727 -23.859  0.00  0.00    +0.148 HD
ENDROOT
TORSDOF 0
ENDMDL
MODEL 4
REMARK VINA RESULT:      -3.6      8.925      9.231
REMARK  Name = 444235
REMARK  0 active torsions:
REMARK  status: ('A' for Active; 'I' for Inactive)
REMARK                            x       y       z     vdW  Elec       q    Type
REMARK                         _______ _______ _______ _____ _____    ______ ____
ROOT
ATOM      1  N   UNL     1      38.739 -25.821 -14.154  0.00  0.00    -0.287 N 
ATOM      2  N   UNL     1      36.846 -26.736 -13.669  0.00  0.00    -0.314 N 
ATOM      3  C   UNL     1      37.763 -26.599 -14.632  0.00  0.00    +0.185 C 
ATOM      4  C   UNL     1      38.441 -25.453 -12.863  0.00  0.00    +0.078 C 
ATOM      5  C   UNL     1      39.924 -25.430 -14.889  0.00  0.00    +0.114 C 
ATOM      6  C   UNL     1      37.242 -26.033 -12.557  0.00  0.00    +0.075 C 
ATOM      7  H   UNL     1      36.015 -27.259 -13.745  0.00  0.00    +0.148 HD
ENDROOT
TORSDOF 0
ENDMDL
MODEL 5
REMARK VINA RESULT:      -3.5      4.425      5.184
REMARK  Name = 444235
REMARK  0 active torsions:
REMARK  status: ('A' for Active; 'I' for Inactive)
REMARK                            x       y       z     vdW  Elec       q    Type
REMARK                         _______ _______ _______ _____ _____    ______ ____
ROOT
ATOM      1  N   UNL     1      34.850 -18.273 -23.270  0.00  0.00    -0.287 N 
ATOM      2  N   UNL     1      35.276 -16.296 -24.021  0.00  0.00    -0.314 N 
ATOM      3  C   UNL     1      35.295 -17.061 -22.925  0.00  0.00    +0.185 C 
ATOM      4  C   UNL     1      34.540 -18.283 -24.609  0.00  0.00    +0.078 C 
ATOM      5  C   UNL     1      34.717 -19.397 -22.367  0.00  0.00    +0.114 C 
ATOM      6  C   UNL     1      34.810 -17.030 -25.084  0.00  0.00    +0.075 C 
ATOM      7  H   UNL     1      35.552 -15.351 -24.060  0.00  0.00    +0.148 HD
ENDROOT
TORSDOF 0
ENDMDL
MODEL 6
REMARK VINA RESULT:      -3.5      6.027      6.885
REMARK  Name = 444235
REMARK  0 active torsions:
REMARK  status: ('A' for Active; 'I' for Inactive)
REMARK                            x       y       z     vdW  Elec       q    Type
REMARK                         _______ _______ _______ _____ _____    ______ ____
ROOT
ATOM      1  N   UNL     1      33.962 -15.316 -24.164  0.00  0.00    -0.287 N 
ATOM      2  N   UNL     1      35.387 -16.916 -23.916  0.00  0.00    -0.314 N 
ATOM      3  C   UNL     1      34.875 -15.829 -23.333  0.00  0.00    +0.185 C 
ATOM      4  C   UNL     1      33.889 -16.089 -25.298  0.00  0.00    +0.078 C 
ATOM      5  C   UNL     1      33.175 -14.129 -23.902  0.00  0.00    +0.114 C 
ATOM      6  C   UNL     1      34.793 -17.103 -25.140  0.00  0.00    +0.075 C 
ATOM      7  H   UNL     1      36.084 -17.495 -23.528  0.00  0.00    +0.148 HD
ENDROOT
TORSDOF 0
ENDMDL
MODEL 7
REMARK VINA RESULT:      -3.5      4.244      5.174
REMARK  Name = 444235
REMARK  0 active torsions:
REMARK  status: ('A' for Active; 'I' for Inactive)
REMARK                            x       y       z     vdW  Elec       q    Type
REMARK                         _______ _______ _______ _____ _____    ______ ____
ROOT
ATOM      1  N   UNL     1      34.951 -16.414 -21.634  0.00  0.00    -0.287 N 
ATOM      2  N   UNL     1      35.578 -17.305 -23.496  0.00  0.00    -0.314 N 
ATOM      3  C   UNL     1      35.071 -16.197 -22.948  0.00  0.00    +0.185 C 
ATOM      4  C   UNL     1      35.390 -17.682 -21.337  0.00  0.00    +0.078 C 
ATOM      5  C   UNL     1      34.438 -15.455 -20.678  0.00  0.00    +0.114 C 
ATOM      6  C   UNL     1      35.788 -18.247 -22.518  0.00  0.00    +0.075 C 
ATOM      7  H   UNL     1      35.773 -17.428 -24.454  0.00  0.00    +0.148 HD
ENDROOT
TORSDOF 0
ENDMDL
MODEL 8
REMARK VINA RESULT:      -3.5      6.716      7.692
REMARK  Name = 444235
REMARK  0 active torsions:
REMARK  status: ('A' for Active; 'I' for Inactive)
REMARK                            x       y       z     vdW  Elec       q    Type
REMARK                         _______ _______ _______ _____ _____    ______ ____
ROOT
ATOM      1  N   UNL     1      36.969 -24.706 -15.042  0.00  0.00    -0.287 N 
ATOM      2  N   UNL     1      35.950 -26.605 -14.943  0.00  0.00    -0.314 N 
ATOM      3  C   UNL     1      35.775 -25.297 -15.152  0.00  0.00    +0.185 C 
ATOM      4  C   UNL     1      37.924 -25.653 -14.758  0.00  0.00    +0.078 C 
ATOM      5  C   UNL     1      37.210 -23.287 -15.200  0.00  0.00    +0.114 C 
ATOM      6  C   UNL     1      37.277 -26.856 -14.695  0.00  0.00    +0.075 C 
ATOM      7  H   UNL     1      35.237 -27.285 -14.963  0.00  0.00    +0.148 HD
ENDROOT
TORSDOF 0
ENDMDL
MODEL 9
REMARK VINA RESULT:      -3.5     10.926     11.647
REMARK  Name = 444235
REMARK  0 active torsions:
REMARK  status: ('A' for Active; 'I' for Inactive)
REMARK                            x       y       z     vdW  Elec       q    Type
REMARK                         _______ _______ _______ _____ _____    ______ ____
ROOT
ATOM      1  N   UNL     1      31.577 -10.106 -20.766  0.00  0.00    -0.287 N 
ATOM      2  N   UNL     1      32.562  -8.652 -19.512  0.00  0.00    -0.314 N 
ATOM      3  C   UNL     1      31.936  -9.833 -19.507  0.00  0.00    +0.185 C 
ATOM      4  C   UNL     1      31.982  -9.082 -21.589  0.00  0.00    +0.078 C 
ATOM      5  C   UNL     1      30.872 -11.298 -21.188  0.00  0.00    +0.114 C 
ATOM      6  C   UNL     1      32.605  -8.161 -20.794  0.00  0.00    +0.075 C 
ATOM      7  H   UNL     1      32.935  -8.203 -18.718  0.00  0.00    +0.148 HD
ENDROOT
TORSDOF 0
ENDMDL
