MODEL 1
REMARK VINA RESULT:      -4.1      0.000      0.000
REMARK  Name = 65241
REMARK  0 active torsions:
REMARK  status: ('A' for Active; 'I' for Inactive)
REMARK                            x       y       z     vdW  Elec       q    Type
REMARK                         _______ _______ _______ _____ _____    ______ ____
ROOT
ATOM      1  P   UNL     1      28.046 -22.743 -16.929  0.00  0.00    +0.570 P 
ATOM      2  F   UNL     1      27.885 -23.106 -15.386  0.00  0.00    -0.130 F 
ATOM      3  O   UNL     1      27.602 -24.031 -17.606  0.00  0.00    -0.111 OA
ATOM      4  O   UNL     1      29.531 -22.422 -17.025  0.00  0.00    -0.111 OA
ATOM      5  O   UNL     1      27.102 -21.558 -17.074  0.00  0.00    -0.218 OA
ENDROOT
TORSDOF 0
ENDMDL
MODEL 2
REMARK VINA RESULT:      -4.1      0.008      1.998
REMARK  Name = 65241
REMARK  0 active torsions:
REMARK  status: ('A' for Active; 'I' for Inactive)
REMARK                            x       y       z     vdW  Elec       q    Type
REMARK                         _______ _______ _______ _____ _____    ______ ____
ROOT
ATOM      1  P   UNL     1      28.053 -22.746 -16.927  0.00  0.00    +0.570 P 
ATOM      2  F   UNL     1      27.894 -23.108 -15.384  0.00  0.00    -0.130 F 
ATOM      3  O   UNL     1      27.109 -21.562 -17.073  0.00  0.00    -0.111 OA
ATOM      4  O   UNL     1      27.606 -24.036 -17.602  0.00  0.00    -0.111 OA
ATOM      5  O   UNL     1      29.537 -22.427 -17.025  0.00  0.00    -0.218 OA
ENDROOT
TORSDOF 0
ENDMDL
MODEL 3
REMARK VINA RESULT:      -4.1      0.005      1.998
REMARK  Name = 65241
REMARK  0 active torsions:
REMARK  status: ('A' for Active; 'I' for Inactive)
REMARK                            x       y       z     vdW  Elec       q    Type
REMARK                         _______ _______ _______ _____ _____    ______ ____
ROOT
ATOM      1  P   UNL     1      28.049 -22.744 -16.928  0.00  0.00    +0.570 P 
ATOM      2  F   UNL     1      27.890 -23.104 -15.384  0.00  0.00    -0.130 F 
ATOM      3  O   UNL     1      29.533 -22.421 -17.026  0.00  0.00    -0.111 OA
ATOM      4  O   UNL     1      27.103 -21.560 -17.075  0.00  0.00    -0.111 OA
ATOM      5  O   UNL     1      27.605 -24.034 -17.601  0.00  0.00    -0.218 OA
ENDROOT
TORSDOF 0
ENDMDL
MODEL 4
REMARK VINA RESULT:      -4.0      1.641      2.275
REMARK  Name = 65241
REMARK  0 active torsions:
REMARK  status: ('A' for Active; 'I' for Inactive)
REMARK                            x       y       z     vdW  Elec       q    Type
REMARK                         _______ _______ _______ _____ _____    ______ ____
ROOT
ATOM      1  P   UNL     1      27.629 -22.741 -16.974  0.00  0.00    +0.570 P 
ATOM      2  F   UNL     1      26.821 -22.029 -18.148  0.00  0.00    -0.130 F 
ATOM      3  O   UNL     1      28.934 -21.957 -16.967  0.00  0.00    -0.111 OA
ATOM      4  O   UNL     1      27.721 -24.174 -17.478  0.00  0.00    -0.111 OA
ATOM      5  O   UNL     1      26.715 -22.515 -15.779  0.00  0.00    -0.218 OA
ENDROOT
TORSDOF 0
ENDMDL
MODEL 5
REMARK VINA RESULT:      -3.8     11.641     12.089
REMARK  Name = 65241
REMARK  0 active torsions:
REMARK  status: ('A' for Active; 'I' for Inactive)
REMARK                            x       y       z     vdW  Elec       q    Type
REMARK                         _______ _______ _______ _____ _____    ______ ____
ROOT
ATOM      1  P   UNL     1      39.559 -25.556 -14.515  0.00  0.00    +0.570 P 
ATOM      2  F   UNL     1      39.308 -25.288 -12.965  0.00  0.00    -0.130 F 
ATOM      3  O   UNL     1      38.688 -26.777 -14.770  0.00  0.00    -0.111 OA
ATOM      4  O   UNL     1      41.062 -25.794 -14.556  0.00  0.00    -0.111 OA
ATOM      5  O   UNL     1      39.076 -24.256 -15.142  0.00  0.00    -0.218 OA
ENDROOT
TORSDOF 0
ENDMDL
MODEL 6
REMARK VINA RESULT:      -3.8     11.716     12.262
REMARK  Name = 65241
REMARK  0 active torsions:
REMARK  status: ('A' for Active; 'I' for Inactive)
REMARK                            x       y       z     vdW  Elec       q    Type
REMARK                         _______ _______ _______ _____ _____    ______ ____
ROOT
ATOM      1  P   UNL     1      39.615 -25.572 -14.497  0.00  0.00    +0.570 P 
ATOM      2  F   UNL     1      39.309 -25.232 -12.971  0.00  0.00    -0.130 F 
ATOM      3  O   UNL     1      41.100 -25.901 -14.457  0.00  0.00    -0.111 OA
ATOM      4  O   UNL     1      39.243 -24.270 -15.192  0.00  0.00    -0.111 OA
ATOM      5  O   UNL     1      38.683 -26.748 -14.750  0.00  0.00    -0.218 OA
ENDROOT
TORSDOF 0
ENDMDL
MODEL 7
REMARK VINA RESULT:      -3.8     12.140     12.767
REMARK  Name = 65241
REMARK  0 active torsions:
REMARK  status: ('A' for Active; 'I' for Inactive)
REMARK                            x       y       z     vdW  Elec       q    Type
REMARK                         _______ _______ _______ _____ _____    ______ ____
ROOT
ATOM      1  P   UNL     1      39.980 -25.887 -14.358  0.00  0.00    +0.570 P 
ATOM      2  F   UNL     1      40.306 -25.225 -15.771  0.00  0.00    -0.130 F 
ATOM      3  O   UNL     1      39.709 -24.666 -13.492  0.00  0.00    -0.111 OA
ATOM      4  O   UNL     1      41.269 -26.639 -14.057  0.00  0.00    -0.111 OA
ATOM      5  O   UNL     1      38.770 -26.749 -14.686  0.00  0.00    -0.218 OA
ENDROOT
TORSDOF 0
ENDMDL
MODEL 8
REMARK VINA RESULT:      -3.6     14.736     15.435
REMARK  Name = 65241
REMARK  0 active torsions:
REMARK  status: ('A' for Active; 'I' for Inactive)
REMARK                            x       y       z     vdW  Elec       q    Type
REMARK                         _______ _______ _______ _____ _____    ______ ____
ROOT
ATOM      1  P   UNL     1      41.895 -16.213 -16.593  0.00  0.00    +0.570 P 
ATOM      2  F   UNL     1      41.358 -16.079 -15.100  0.00  0.00    -0.130 F 
ATOM      3  O   UNL     1      41.155 -15.085 -17.298  0.00  0.00    -0.111 OA
ATOM      4  O   UNL     1      41.456 -17.623 -16.961  0.00  0.00    -0.111 OA
ATOM      5  O   UNL     1      43.392 -16.011 -16.410  0.00  0.00    -0.218 OA
ENDROOT
TORSDOF 0
ENDMDL
MODEL 9
REMARK VINA RESULT:      -3.6     14.736     15.310
REMARK  Name = 65241
REMARK  0 active torsions:
REMARK  status: ('A' for Active; 'I' for Inactive)
REMARK                            x       y       z     vdW  Elec       q    Type
REMARK                         _______ _______ _______ _____ _____    ______ ____
ROOT
ATOM      1  P   UNL     1      41.894 -16.213 -16.594  0.00  0.00    +0.570 P 
ATOM      2  F   UNL     1      41.357 -16.078 -15.100  0.00  0.00    -0.130 F 
ATOM      3  O   UNL     1      41.457 -17.623 -16.961  0.00  0.00    -0.111 OA
ATOM      4  O   UNL     1      43.392 -16.011 -16.410  0.00  0.00    -0.111 OA
ATOM      5  O   UNL     1      41.155 -15.085 -17.298  0.00  0.00    -0.218 OA
ENDROOT
TORSDOF 0
ENDMDL
