MODEL 1
REMARK VINA RESULT:      -7.3      0.000      0.000
REMARK  Name = 13582275
REMARK  1 active torsions:
REMARK  status: ('A' for Active; 'I' for Inactive)
REMARK    1  A    between atoms: C_4  and  C_13
REMARK                            x       y       z     vdW  Elec       q    Type
REMARK                         _______ _______ _______ _____ _____    ______ ____
ROOT
ATOM      1  N   UNL     1      33.956 -20.703 -20.195  0.00  0.00    -0.335 NA
ATOM      2  N   UNL     1      35.168 -22.175 -18.721  0.00  0.00    -0.170 NA
ATOM      3  N   UNL     1      32.828 -22.267 -18.858  0.00  0.00    -0.293 N 
ATOM      4  C   UNL     1      35.137 -20.173 -20.575  0.00  0.00    +0.172 C 
ATOM      5  C   UNL     1      36.358 -20.583 -20.079  0.00  0.00    +0.057 C 
ATOM      6  C   UNL     1      34.044 -21.687 -19.278  0.00  0.00    +0.141 C 
ATOM      7  C   UNL     1      36.312 -21.598 -19.146  0.00  0.00    +0.114 C 
ATOM      8  H   UNL     1      31.976 -21.948 -19.233  0.00  0.00    +0.155 HD
ATOM      9  H   UNL     1      32.833 -22.990 -18.190  0.00  0.00    +0.155 HD
ENDROOT
BRANCH   4  13
ATOM     10  S   UNL     1      35.081 -16.830 -22.633  0.00  0.00    -0.060 S 
ATOM     11  N   UNL     1      34.818 -19.390 -22.883  0.00  0.00    -0.382 NA
ATOM     12  N   UNL     1      34.588 -18.155 -24.885  0.00  0.00    -0.328 N 
ATOM     13  C   UNL     1      35.064 -19.123 -21.550  0.00  0.00    +0.153 C 
ATOM     14  C   UNL     1      35.233 -17.794 -21.222  0.00  0.00    +0.127 C 
ATOM     15  C   UNL     1      34.804 -18.256 -23.547  0.00  0.00    +0.204 C 
ATOM     16  H   UNL     1      34.591 -17.271 -25.320  0.00  0.00    +0.145 HD
ATOM     17  H   UNL     1      34.428 -18.966 -25.421  0.00  0.00    +0.145 HD
ENDBRANCH   4  13
TORSDOF 1
ENDMDL
MODEL 2
REMARK VINA RESULT:      -7.2      1.476      1.633
REMARK  Name = 13582275
REMARK  1 active torsions:
REMARK  status: ('A' for Active; 'I' for Inactive)
REMARK    1  A    between atoms: C_4  and  C_13
REMARK                            x       y       z     vdW  Elec       q    Type
REMARK                         _______ _______ _______ _____ _____    ______ ____
ROOT
ATOM      1  N   UNL     1      33.941 -20.590 -20.148  0.00  0.00    -0.335 NA
ATOM      2  N   UNL     1      35.187 -22.221 -18.885  0.00  0.00    -0.170 NA
ATOM      3  N   UNL     1      32.842 -22.260 -18.922  0.00  0.00    -0.293 N 
ATOM      4  C   UNL     1      35.115 -20.043 -20.528  0.00  0.00    +0.172 C 
ATOM      5  C   UNL     1      36.348 -20.521 -20.132  0.00  0.00    +0.057 C 
ATOM      6  C   UNL     1      34.050 -21.661 -19.339  0.00  0.00    +0.141 C 
ATOM      7  C   UNL     1      36.323 -21.623 -19.303  0.00  0.00    +0.114 C 
ATOM      8  H   UNL     1      31.980 -21.892 -19.223  0.00  0.00    +0.155 HD
ATOM      9  H   UNL     1      32.861 -23.046 -18.330  0.00  0.00    +0.155 HD
ENDROOT
BRANCH   4  13
ATOM     10  S   UNL     1      34.897 -17.443 -23.462  0.00  0.00    -0.060 S 
ATOM     11  N   UNL     1      34.925 -17.618 -20.882  0.00  0.00    -0.382 NA
ATOM     12  N   UNL     1      34.751 -15.422 -21.740  0.00  0.00    -0.328 N 
ATOM     13  C   UNL     1      35.021 -18.900 -21.390  0.00  0.00    +0.153 C 
ATOM     14  C   UNL     1      35.023 -19.005 -22.765  0.00  0.00    +0.127 C 
ATOM     15  C   UNL     1      34.854 -16.770 -21.884  0.00  0.00    +0.204 C 
ATOM     16  H   UNL     1      34.702 -14.843 -22.536  0.00  0.00    +0.145 HD
ATOM     17  H   UNL     1      34.725 -15.023 -20.840  0.00  0.00    +0.145 HD
ENDBRANCH   4  13
TORSDOF 1
ENDMDL
MODEL 3
REMARK VINA RESULT:      -7.1      1.360      2.070
REMARK  Name = 13582275
REMARK  1 active torsions:
REMARK  status: ('A' for Active; 'I' for Inactive)
REMARK    1  A    between atoms: C_4  and  C_13
REMARK                            x       y       z     vdW  Elec       q    Type
REMARK                         _______ _______ _______ _____ _____    ______ ____
ROOT
ATOM      1  N   UNL     1      35.550 -19.822 -20.544  0.00  0.00    -0.335 NA
ATOM      2  N   UNL     1      34.247 -21.494 -19.398  0.00  0.00    -0.170 NA
ATOM      3  N   UNL     1      36.587 -21.464 -19.228  0.00  0.00    -0.293 N 
ATOM      4  C   UNL     1      34.398 -19.308 -21.023  0.00  0.00    +0.172 C 
ATOM      5  C   UNL     1      33.150 -19.825 -20.740  0.00  0.00    +0.057 C 
ATOM      6  C   UNL     1      35.403 -20.900 -19.748  0.00  0.00    +0.141 C 
ATOM      7  C   UNL     1      33.135 -20.929 -19.913  0.00  0.00    +0.114 C 
ATOM      8  H   UNL     1      37.460 -21.070 -19.451  0.00  0.00    +0.155 HD
ATOM      9  H   UNL     1      36.539 -22.253 -18.641  0.00  0.00    +0.155 HD
ENDROOT
BRANCH   4  13
ATOM     10  S   UNL     1      34.633 -15.763 -22.694  0.00  0.00    -0.060 S 
ATOM     11  N   UNL     1      34.793 -18.288 -23.224  0.00  0.00    -0.382 NA
ATOM     12  N   UNL     1      35.110 -16.850 -25.073  0.00  0.00    -0.328 N 
ATOM     13  C   UNL     1      34.534 -18.160 -21.873  0.00  0.00    +0.153 C 
ATOM     14  C   UNL     1      34.412 -16.870 -21.402  0.00  0.00    +0.127 C 
ATOM     15  C   UNL     1      34.866 -17.089 -23.757  0.00  0.00    +0.204 C 
ATOM     16  H   UNL     1      35.151 -15.924 -25.407  0.00  0.00    +0.145 HD
ATOM     17  H   UNL     1      35.246 -17.602 -25.694  0.00  0.00    +0.145 HD
ENDBRANCH   4  13
TORSDOF 1
ENDMDL
MODEL 4
REMARK VINA RESULT:      -7.0      2.244      5.235
REMARK  Name = 13582275
REMARK  1 active torsions:
REMARK  status: ('A' for Active; 'I' for Inactive)
REMARK    1  A    between atoms: C_4  and  C_13
REMARK                            x       y       z     vdW  Elec       q    Type
REMARK                         _______ _______ _______ _____ _____    ______ ____
ROOT
ATOM      1  N   UNL     1      34.605 -17.514 -21.583  0.00  0.00    -0.335 NA
ATOM      2  N   UNL     1      34.746 -16.744 -23.863  0.00  0.00    -0.170 NA
ATOM      3  N   UNL     1      34.552 -15.223 -22.087  0.00  0.00    -0.293 N 
ATOM      4  C   UNL     1      34.691 -18.778 -22.045  0.00  0.00    +0.172 C 
ATOM      5  C   UNL     1      34.804 -19.102 -23.382  0.00  0.00    +0.057 C 
ATOM      6  C   UNL     1      34.639 -16.559 -22.534  0.00  0.00    +0.141 C 
ATOM      7  C   UNL     1      34.827 -18.033 -24.254  0.00  0.00    +0.114 C 
ATOM      8  H   UNL     1      34.472 -15.030 -21.126  0.00  0.00    +0.155 HD
ATOM      9  H   UNL     1      34.572 -14.485 -22.738  0.00  0.00    +0.155 HD
ENDROOT
BRANCH   4  13
ATOM     10  S   UNL     1      35.374 -21.544 -19.343  0.00  0.00    -0.060 S 
ATOM     11  N   UNL     1      33.461 -20.333 -20.591  0.00  0.00    -0.382 NA
ATOM     12  N   UNL     1      32.768 -21.972 -19.035  0.00  0.00    -0.328 N 
ATOM     13  C   UNL     1      34.656 -19.810 -21.048  0.00  0.00    +0.153 C 
ATOM     14  C   UNL     1      35.799 -20.342 -20.490  0.00  0.00    +0.127 C 
ATOM     15  C   UNL     1      33.718 -21.254 -19.690  0.00  0.00    +0.204 C 
ATOM     16  H   UNL     1      33.031 -22.649 -18.370  0.00  0.00    +0.145 HD
ATOM     17  H   UNL     1      31.814 -21.815 -19.225  0.00  0.00    +0.145 HD
ENDBRANCH   4  13
TORSDOF 1
ENDMDL
MODEL 5
REMARK VINA RESULT:      -7.0      2.191      5.414
REMARK  Name = 13582275
REMARK  1 active torsions:
REMARK  status: ('A' for Active; 'I' for Inactive)
REMARK    1  A    between atoms: C_4  and  C_13
REMARK                            x       y       z     vdW  Elec       q    Type
REMARK                         _______ _______ _______ _____ _____    ______ ____
ROOT
ATOM      1  N   UNL     1      34.810 -17.973 -23.068  0.00  0.00    -0.335 NA
ATOM      2  N   UNL     1      34.942 -15.570 -23.201  0.00  0.00    -0.170 NA
ATOM      3  N   UNL     1      35.111 -16.895 -25.130  0.00  0.00    -0.293 N 
ATOM      4  C   UNL     1      34.654 -17.853 -21.733  0.00  0.00    +0.172 C 
ATOM      5  C   UNL     1      34.633 -16.643 -21.069  0.00  0.00    +0.057 C 
ATOM      6  C   UNL     1      34.946 -16.808 -23.731  0.00  0.00    +0.141 C 
ATOM      7  C   UNL     1      34.783 -15.524 -21.861  0.00  0.00    +0.114 C 
ATOM      8  H   UNL     1      35.122 -17.775 -25.570  0.00  0.00    +0.155 HD
ATOM      9  H   UNL     1      35.215 -16.075 -25.665  0.00  0.00    +0.155 HD
ENDROOT
BRANCH   4  13
ATOM     10  S   UNL     1      33.493 -21.124 -19.899  0.00  0.00    -0.060 S 
ATOM     11  N   UNL     1      35.600 -19.741 -20.477  0.00  0.00    -0.382 NA
ATOM     12  N   UNL     1      36.000 -21.714 -19.236  0.00  0.00    -0.328 N 
ATOM     13  C   UNL     1      34.508 -19.082 -21.009  0.00  0.00    +0.153 C 
ATOM     14  C   UNL     1      33.283 -19.678 -20.797  0.00  0.00    +0.127 C 
ATOM     15  C   UNL     1      35.184 -20.830 -19.870  0.00  0.00    +0.204 C 
ATOM     16  H   UNL     1      35.620 -22.511 -18.800  0.00  0.00    +0.145 HD
ATOM     17  H   UNL     1      36.972 -21.556 -19.212  0.00  0.00    +0.145 HD
ENDBRANCH   4  13
TORSDOF 1
ENDMDL
MODEL 6
REMARK VINA RESULT:      -6.8      5.612      7.802
REMARK  Name = 13582275
REMARK  1 active torsions:
REMARK  status: ('A' for Active; 'I' for Inactive)
REMARK    1  A    between atoms: C_4  and  C_13
REMARK                            x       y       z     vdW  Elec       q    Type
REMARK                         _______ _______ _______ _____ _____    ______ ____
ROOT
ATOM      1  N   UNL     1      34.130 -23.150 -17.326  0.00  0.00    -0.335 NA
ATOM      2  N   UNL     1      31.783 -22.665 -17.579  0.00  0.00    -0.170 NA
ATOM      3  N   UNL     1      33.277 -22.353 -19.361  0.00  0.00    -0.293 N 
ATOM      4  C   UNL     1      33.878 -23.515 -16.052  0.00  0.00    +0.172 C 
ATOM      5  C   UNL     1      32.624 -23.481 -15.477  0.00  0.00    +0.057 C 
ATOM      6  C   UNL     1      33.052 -22.742 -18.023  0.00  0.00    +0.141 C 
ATOM      7  C   UNL     1      31.603 -23.044 -16.296  0.00  0.00    +0.114 C 
ATOM      8  H   UNL     1      34.186 -22.389 -19.737  0.00  0.00    +0.155 HD
ATOM      9  H   UNL     1      32.526 -22.046 -19.917  0.00  0.00    +0.155 HD
ENDROOT
BRANCH   4  13
ATOM     10  S   UNL     1      36.468 -24.791 -13.391  0.00  0.00    -0.060 S 
ATOM     11  N   UNL     1      36.277 -24.014 -15.850  0.00  0.00    -0.382 NA
ATOM     12  N   UNL     1      38.453 -24.620 -15.153  0.00  0.00    -0.328 N 
ATOM     13  C   UNL     1      35.014 -23.952 -15.292  0.00  0.00    +0.153 C 
ATOM     14  C   UNL     1      34.920 -24.332 -13.970  0.00  0.00    +0.127 C 
ATOM     15  C   UNL     1      37.122 -24.442 -14.939  0.00  0.00    +0.204 C 
ATOM     16  H   UNL     1      39.030 -24.945 -14.424  0.00  0.00    +0.145 HD
ATOM     17  H   UNL     1      38.840 -24.424 -16.037  0.00  0.00    +0.145 HD
ENDBRANCH   4  13
TORSDOF 1
ENDMDL
MODEL 7
REMARK VINA RESULT:      -6.7      4.045      7.003
REMARK  Name = 13582275
REMARK  1 active torsions:
REMARK  status: ('A' for Active; 'I' for Inactive)
REMARK    1  A    between atoms: C_4  and  C_13
REMARK                            x       y       z     vdW  Elec       q    Type
REMARK                         _______ _______ _______ _____ _____    ______ ____
ROOT
ATOM      1  N   UNL     1      34.287 -14.056 -23.471  0.00  0.00    -0.335 NA
ATOM      2  N   UNL     1      32.618 -12.478 -22.743  0.00  0.00    -0.170 NA
ATOM      3  N   UNL     1      34.137 -11.927 -24.444  0.00  0.00    -0.293 N 
ATOM      4  C   UNL     1      33.801 -14.930 -22.564  0.00  0.00    +0.172 C 
ATOM      5  C   UNL     1      32.742 -14.654 -21.723  0.00  0.00    +0.057 C 
ATOM      6  C   UNL     1      33.656 -12.866 -23.506  0.00  0.00    +0.141 C 
ATOM      7  C   UNL     1      32.183 -13.400 -21.858  0.00  0.00    +0.114 C 
ATOM      8  H   UNL     1      34.895 -12.158 -25.027  0.00  0.00    +0.155 HD
ATOM      9  H   UNL     1      33.714 -11.041 -24.513  0.00  0.00    +0.155 HD
ENDROOT
BRANCH   4  13
ATOM     10  S   UNL     1      35.501 -18.412 -23.191  0.00  0.00    -0.060 S 
ATOM     11  N   UNL     1      34.890 -16.744 -21.313  0.00  0.00    -0.382 NA
ATOM     12  N   UNL     1      35.987 -18.711 -20.594  0.00  0.00    -0.328 N 
ATOM     13  C   UNL     1      34.460 -16.203 -22.510  0.00  0.00    +0.153 C 
ATOM     14  C   UNL     1      34.701 -16.962 -23.636  0.00  0.00    +0.127 C 
ATOM     15  C   UNL     1      35.453 -17.907 -21.552  0.00  0.00    +0.204 C 
ATOM     16  H   UNL     1      36.394 -19.572 -20.843  0.00  0.00    +0.145 HD
ATOM     17  H   UNL     1      35.966 -18.431 -19.650  0.00  0.00    +0.145 HD
ENDBRANCH   4  13
TORSDOF 1
ENDMDL
MODEL 8
REMARK VINA RESULT:      -6.7      5.754      8.255
REMARK  Name = 13582275
REMARK  1 active torsions:
REMARK  status: ('A' for Active; 'I' for Inactive)
REMARK    1  A    between atoms: C_4  and  C_13
REMARK                            x       y       z     vdW  Elec       q    Type
REMARK                         _______ _______ _______ _____ _____    ______ ____
ROOT
ATOM      1  N   UNL     1      32.242 -12.888 -22.635  0.00  0.00    -0.335 NA
ATOM      2  N   UNL     1      32.227 -10.483 -22.775  0.00  0.00    -0.170 NA
ATOM      3  N   UNL     1      30.741 -11.616 -21.357  0.00  0.00    -0.293 N 
ATOM      4  C   UNL     1      33.243 -12.897 -23.539  0.00  0.00    +0.172 C 
ATOM      5  C   UNL     1      33.780 -11.757 -24.100  0.00  0.00    +0.057 C 
ATOM      6  C   UNL     1      31.788 -11.664 -22.302  0.00  0.00    +0.141 C 
ATOM      7  C   UNL     1      33.228 -10.565 -23.677  0.00  0.00    +0.114 C 
ATOM      8  H   UNL     1      30.381 -12.450 -20.978  0.00  0.00    +0.155 HD
ATOM      9  H   UNL     1      30.370 -10.748 -21.077  0.00  0.00    +0.155 HD
ENDROOT
BRANCH   4  13
ATOM     10  S   UNL     1      34.148 -16.349 -25.176  0.00  0.00    -0.060 S 
ATOM     11  N   UNL     1      34.636 -14.876 -23.109  0.00  0.00    -0.382 NA
ATOM     12  N   UNL     1      35.774 -16.948 -23.160  0.00  0.00    -0.328 N 
ATOM     13  C   UNL     1      33.740 -14.192 -23.907  0.00  0.00    +0.153 C 
ATOM     14  C   UNL     1      33.357 -14.830 -25.068  0.00  0.00    +0.127 C 
ATOM     15  C   UNL     1      34.921 -16.025 -23.679  0.00  0.00    +0.204 C 
ATOM     16  H   UNL     1      35.942 -17.790 -23.641  0.00  0.00    +0.145 HD
ATOM     17  H   UNL     1      36.224 -16.773 -22.301  0.00  0.00    +0.145 HD
ENDBRANCH   4  13
TORSDOF 1
ENDMDL
MODEL 9
REMARK VINA RESULT:      -6.6      5.393      7.310
REMARK  Name = 13582275
REMARK  1 active torsions:
REMARK  status: ('A' for Active; 'I' for Inactive)
REMARK    1  A    between atoms: C_4  and  C_13
REMARK                            x       y       z     vdW  Elec       q    Type
REMARK                         _______ _______ _______ _____ _____    ______ ____
ROOT
ATOM      1  N   UNL     1      36.827 -24.175 -15.577  0.00  0.00    -0.335 NA
ATOM      2  N   UNL     1      38.026 -24.062 -13.490  0.00  0.00    -0.170 NA
ATOM      3  N   UNL     1      39.050 -24.908 -15.424  0.00  0.00    -0.293 N 
ATOM      4  C   UNL     1      35.758 -23.644 -14.948  0.00  0.00    +0.172 C 
ATOM      5  C   UNL     1      35.746 -23.302 -13.611  0.00  0.00    +0.057 C 
ATOM      6  C   UNL     1      37.912 -24.355 -14.799  0.00  0.00    +0.141 C 
ATOM      7  C   UNL     1      36.920 -23.535 -12.925  0.00  0.00    +0.114 C 
ATOM      8  H   UNL     1      39.022 -25.140 -16.380  0.00  0.00    +0.155 HD
ATOM      9  H   UNL     1      39.871 -25.061 -14.904  0.00  0.00    +0.155 HD
ENDROOT
BRANCH   4  13
ATOM     10  S   UNL     1      32.176 -23.274 -16.511  0.00  0.00    -0.060 S 
ATOM     11  N   UNL     1      34.689 -23.103 -17.094  0.00  0.00    -0.382 NA
ATOM     12  N   UNL     1      33.208 -22.659 -18.883  0.00  0.00    -0.328 N 
ATOM     13  C   UNL     1      34.591 -23.446 -15.759  0.00  0.00    +0.153 C 
ATOM     14  C   UNL     1      33.312 -23.585 -15.264  0.00  0.00    +0.127 C 
ATOM     15  C   UNL     1      33.478 -22.987 -17.591  0.00  0.00    +0.204 C 
ATOM     16  H   UNL     1      32.275 -22.588 -19.190  0.00  0.00    +0.145 HD
ATOM     17  H   UNL     1      33.947 -22.491 -19.513  0.00  0.00    +0.145 HD
ENDBRANCH   4  13
TORSDOF 1
ENDMDL
