MODEL 1
REMARK VINA RESULT:     -11.9      0.000      0.000
REMARK  Name = 16115747
REMARK  4 active torsions:
REMARK  status: ('A' for Active; 'I' for Inactive)
REMARK    1  A    between atoms: C_6  and  C_20
REMARK    2  A    between atoms: N_19  and  C_22
REMARK    3  A    between atoms: C_22  and  C_23
REMARK    4  A    between atoms: C_23  and  C_26
REMARK                            x       y       z     vdW  Elec       q    Type
REMARK                         _______ _______ _______ _____ _____    ______ ____
ROOT
ATOM      1  N   UNL     1      34.578 -16.834 -23.269  0.00  0.00    -0.279 N 
ATOM      2  N   UNL     1      33.418 -14.831 -22.647  0.00  0.00    -0.316 NA
ATOM      3  N   UNL     1      32.583 -13.343 -24.348  0.00  0.00    -0.336 NA
ATOM      4  N   UNL     1      32.288 -12.875 -22.089  0.00  0.00    -0.170 N 
ATOM      5  N   UNL     1      31.272 -11.129 -21.161  0.00  0.00    -0.224 NA
ATOM      6  C   UNL     1      34.962 -17.202 -21.906  0.00  0.00    +0.151 C 
ATOM      7  C   UNL     1      36.029 -18.281 -22.098  0.00  0.00    +0.031 C 
ATOM      8  C   UNL     1      35.641 -18.936 -23.415  0.00  0.00    +0.024 C 
ATOM      9  C   UNL     1      35.127 -17.768 -24.252  0.00  0.00    +0.093 C 
ATOM     10  C   UNL     1      33.914 -15.673 -23.615  0.00  0.00    +0.181 C 
ATOM     11  C   UNL     1      33.747 -15.355 -24.973  0.00  0.00    +0.131 C 
ATOM     12  C   UNL     1      33.080 -14.187 -25.277  0.00  0.00    +0.109 C 
ATOM     13  C   UNL     1      32.784 -13.721 -23.072  0.00  0.00    +0.212 C 
ATOM     14  C   UNL     1      32.877 -13.807 -26.706  0.00  0.00    +0.063 C 
ATOM     15  C   UNL     1      32.378 -13.060 -20.736  0.00  0.00    +0.104 C 
ATOM     16  C   UNL     1      31.615 -11.701 -22.294  0.00  0.00    +0.182 C 
ATOM     17  C   UNL     1      31.745 -11.970 -20.186  0.00  0.00    +0.118 C 
ENDROOT
BRANCH   6  20
ATOM     18  O   UNL     1      32.892 -17.044 -20.731  0.00  0.00    -0.273 OA
ATOM     19  N   UNL     1      33.836 -19.144 -21.077  0.00  0.00    -0.303 N 
ATOM     20  C   UNL     1      33.778 -17.764 -21.182  0.00  0.00    +0.241 C 
ATOM     21  H   UNL     1      34.601 -19.613 -21.480  0.00  0.00    +0.149 HD
BRANCH  19  22
ATOM     22  C   UNL     1      32.826 -19.928 -20.403  0.00  0.00    +0.094 C 
BRANCH  22  23
ATOM     23  C   UNL     1      33.210 -21.401 -20.284  0.00  0.00    +0.048 C 
BRANCH  23  26
ATOM     24  O   UNL     1      35.275 -23.283 -16.213  0.00  0.00    -0.435 OA
ATOM     25  O   UNL     1      37.430 -22.335 -16.729  0.00  0.00    -0.435 OA
ATOM     26  C   UNL     1      34.370 -21.633 -19.348  0.00  0.00    -0.017 C 
ATOM     27  C   UNL     1      34.173 -22.392 -18.201  0.00  0.00    +0.036 C 
ATOM     28  C   UNL     1      35.615 -21.077 -19.658  0.00  0.00    -0.001 C 
ATOM     29  C   UNL     1      35.264 -22.576 -17.376  0.00  0.00    +0.176 C 
ATOM     30  C   UNL     1      36.494 -22.035 -17.671  0.00  0.00    +0.176 C 
ATOM     31  C   UNL     1      36.702 -21.279 -18.806  0.00  0.00    +0.040 C 
ATOM     32  C   UNL     1      36.649 -23.127 -15.809  0.00  0.00    +0.429 C 
ENDBRANCH  23  26
ENDBRANCH  22  23
ENDBRANCH  19  22
ENDBRANCH   6  20
TORSDOF 4
ENDMDL
MODEL 2
REMARK VINA RESULT:     -11.9      0.513      1.200
REMARK  Name = 16115747
REMARK  4 active torsions:
REMARK  status: ('A' for Active; 'I' for Inactive)
REMARK    1  A    between atoms: C_6  and  C_20
REMARK    2  A    between atoms: N_19  and  C_22
REMARK    3  A    between atoms: C_22  and  C_23
REMARK    4  A    between atoms: C_23  and  C_26
REMARK                            x       y       z     vdW  Elec       q    Type
REMARK                         _______ _______ _______ _____ _____    ______ ____
ROOT
ATOM      1  N   UNL     1      34.587 -16.932 -23.283  0.00  0.00    -0.279 N 
ATOM      2  N   UNL     1      33.438 -14.932 -22.636  0.00  0.00    -0.316 NA
ATOM      3  N   UNL     1      32.580 -13.435 -24.318  0.00  0.00    -0.336 NA
ATOM      4  N   UNL     1      32.317 -12.978 -22.052  0.00  0.00    -0.170 N 
ATOM      5  N   UNL     1      31.315 -11.235 -21.102  0.00  0.00    -0.224 NA
ATOM      6  C   UNL     1      34.989 -17.307 -21.928  0.00  0.00    +0.151 C 
ATOM      7  C   UNL     1      36.053 -18.386 -22.140  0.00  0.00    +0.031 C 
ATOM      8  C   UNL     1      35.646 -19.034 -23.455  0.00  0.00    +0.024 C 
ATOM      9  C   UNL     1      35.122 -17.862 -24.279  0.00  0.00    +0.093 C 
ATOM     10  C   UNL     1      33.919 -15.769 -23.614  0.00  0.00    +0.181 C 
ATOM     11  C   UNL     1      33.734 -15.445 -24.969  0.00  0.00    +0.131 C 
ATOM     12  C   UNL     1      33.063 -14.275 -25.258  0.00  0.00    +0.109 C 
ATOM     13  C   UNL     1      32.799 -13.819 -23.046  0.00  0.00    +0.212 C 
ATOM     14  C   UNL     1      32.840 -13.887 -26.681  0.00  0.00    +0.063 C 
ATOM     15  C   UNL     1      32.426 -13.169 -20.702  0.00  0.00    +0.104 C 
ATOM     16  C   UNL     1      31.642 -11.802 -22.242  0.00  0.00    +0.182 C 
ATOM     17  C   UNL     1      31.802 -12.082 -20.138  0.00  0.00    +0.118 C 
ENDROOT
BRANCH   6  20
ATOM     18  O   UNL     1      32.865 -17.173 -20.851  0.00  0.00    -0.273 OA
ATOM     19  N   UNL     1      33.960 -19.226 -20.935  0.00  0.00    -0.303 N 
ATOM     20  C   UNL     1      33.816 -17.872 -21.190  0.00  0.00    +0.241 C 
ATOM     21  H   UNL     1      34.771 -19.680 -21.258  0.00  0.00    +0.149 HD
BRANCH  19  22
ATOM     22  C   UNL     1      32.976 -20.004 -20.217  0.00  0.00    +0.094 C 
BRANCH  22  23
ATOM     23  C   UNL     1      33.276 -21.500 -20.248  0.00  0.00    +0.048 C 
BRANCH  23  26
ATOM     24  O   UNL     1      37.185 -22.008 -17.274  0.00  0.00    -0.435 OA
ATOM     25  O   UNL     1      35.927 -23.260 -15.644  0.00  0.00    -0.435 OA
ATOM     26  C   UNL     1      33.959 -21.990 -18.995  0.00  0.00    -0.017 C 
ATOM     27  C   UNL     1      35.306 -21.709 -18.804  0.00  0.00    +0.036 C 
ATOM     28  C   UNL     1      33.218 -22.716 -18.057  0.00  0.00    -0.001 C 
ATOM     29  C   UNL     1      35.885 -22.178 -17.642  0.00  0.00    +0.176 C 
ATOM     30  C   UNL     1      35.167 -22.892 -16.712  0.00  0.00    +0.176 C 
ATOM     31  C   UNL     1      33.829 -23.179 -16.890  0.00  0.00    +0.040 C 
ATOM     32  C   UNL     1      37.204 -22.695 -16.007  0.00  0.00    +0.429 C 
ENDBRANCH  23  26
ENDBRANCH  22  23
ENDBRANCH  19  22
ENDBRANCH   6  20
TORSDOF 4
ENDMDL
MODEL 3
REMARK VINA RESULT:     -11.3      3.758     10.016
REMARK  Name = 16115747
REMARK  4 active torsions:
REMARK  status: ('A' for Active; 'I' for Inactive)
REMARK    1  A    between atoms: C_6  and  C_20
REMARK    2  A    between atoms: N_19  and  C_22
REMARK    3  A    between atoms: C_22  and  C_23
REMARK    4  A    between atoms: C_23  and  C_26
REMARK                            x       y       z     vdW  Elec       q    Type
REMARK                         _______ _______ _______ _____ _____    ______ ____
ROOT
ATOM      1  N   UNL     1      35.159 -22.297 -18.178  0.00  0.00    -0.279 N 
ATOM      2  N   UNL     1      33.213 -23.003 -16.969  0.00  0.00    -0.316 NA
ATOM      3  N   UNL     1      33.370 -23.507 -14.618  0.00  0.00    -0.336 NA
ATOM      4  N   UNL     1      31.351 -23.693 -15.757  0.00  0.00    -0.170 N 
ATOM      5  N   UNL     1      29.369 -24.311 -14.962  0.00  0.00    -0.224 NA
ATOM      6  C   UNL     1      34.518 -22.309 -19.493  0.00  0.00    +0.151 C 
ATOM      7  C   UNL     1      35.687 -22.230 -20.478  0.00  0.00    +0.031 C 
ATOM      8  C   UNL     1      36.750 -21.462 -19.707  0.00  0.00    +0.024 C 
ATOM      9  C   UNL     1      36.580 -21.962 -18.276  0.00  0.00    +0.093 C 
ATOM     10  C   UNL     1      34.554 -22.699 -17.002  0.00  0.00    +0.181 C 
ATOM     11  C   UNL     1      35.325 -22.797 -15.832  0.00  0.00    +0.131 C 
ATOM     12  C   UNL     1      34.684 -23.203 -14.679  0.00  0.00    +0.109 C 
ATOM     13  C   UNL     1      32.705 -23.386 -15.782  0.00  0.00    +0.212 C 
ATOM     14  C   UNL     1      35.460 -23.321 -13.410  0.00  0.00    +0.063 C 
ATOM     15  C   UNL     1      30.486 -23.641 -16.816  0.00  0.00    +0.104 C 
ATOM     16  C   UNL     1      30.632 -24.101 -14.665  0.00  0.00    +0.182 C 
ATOM     17  C   UNL     1      29.271 -24.027 -16.301  0.00  0.00    +0.118 C 
ENDROOT
BRANCH   6  20
ATOM     18  O   UNL     1      32.520 -21.059 -19.125  0.00  0.00    -0.273 OA
ATOM     19  N   UNL     1      34.219 -20.119 -20.411  0.00  0.00    -0.303 N 
ATOM     20  C   UNL     1      33.636 -21.108 -19.636  0.00  0.00    +0.241 C 
ATOM     21  H   UNL     1      35.122 -20.276 -20.768  0.00  0.00    +0.149 HD
BRANCH  19  22
ATOM     22  C   UNL     1      33.564 -18.868 -20.720  0.00  0.00    +0.094 C 
BRANCH  22  23
ATOM     23  C   UNL     1      34.552 -17.766 -21.092  0.00  0.00    +0.048 C 
BRANCH  23  26
ATOM     24  O   UNL     1      33.250 -14.381 -24.443  0.00  0.00    -0.435 OA
ATOM     25  O   UNL     1      33.850 -15.811 -26.289  0.00  0.00    -0.435 OA
ATOM     26  C   UNL     1      34.376 -17.271 -22.507  0.00  0.00    -0.017 C 
ATOM     27  C   UNL     1      33.870 -15.995 -22.719  0.00  0.00    +0.036 C 
ATOM     28  C   UNL     1      34.728 -18.110 -23.568  0.00  0.00    -0.001 C 
ATOM     29  C   UNL     1      33.727 -15.588 -24.030  0.00  0.00    +0.176 C 
ATOM     30  C   UNL     1      34.070 -16.403 -25.083  0.00  0.00    +0.176 C 
ATOM     31  C   UNL     1      34.573 -17.673 -24.885  0.00  0.00    +0.040 C 
ATOM     32  C   UNL     1      33.331 -14.529 -25.875  0.00  0.00    +0.429 C 
ENDBRANCH  23  26
ENDBRANCH  22  23
ENDBRANCH  19  22
ENDBRANCH   6  20
TORSDOF 4
ENDMDL
MODEL 4
REMARK VINA RESULT:     -10.8      6.056     11.352
REMARK  Name = 16115747
REMARK  4 active torsions:
REMARK  status: ('A' for Active; 'I' for Inactive)
REMARK    1  A    between atoms: C_6  and  C_20
REMARK    2  A    between atoms: N_19  and  C_22
REMARK    3  A    between atoms: C_22  and  C_23
REMARK    4  A    between atoms: C_23  and  C_26
REMARK                            x       y       z     vdW  Elec       q    Type
REMARK                         _______ _______ _______ _____ _____    ______ ____
ROOT
ATOM      1  N   UNL     1      33.053 -13.270 -24.874  0.00  0.00    -0.279 N 
ATOM      2  N   UNL     1      32.543 -12.116 -22.836  0.00  0.00    -0.316 NA
ATOM      3  N   UNL     1      32.302 -13.347 -20.780  0.00  0.00    -0.336 NA
ATOM      4  N   UNL     1      32.048 -11.036 -20.836  0.00  0.00    -0.170 N 
ATOM      5  N   UNL     1      31.579  -9.657 -19.156  0.00  0.00    -0.224 NA
ATOM      6  C   UNL     1      32.913 -12.098 -25.738  0.00  0.00    +0.151 C 
ATOM      7  C   UNL     1      32.847 -12.682 -27.151  0.00  0.00    +0.031 C 
ATOM      8  C   UNL     1      33.666 -13.960 -27.046  0.00  0.00    +0.024 C 
ATOM      9  C   UNL     1      33.335 -14.479 -25.650  0.00  0.00    +0.093 C 
ATOM     10  C   UNL     1      32.803 -13.283 -23.515  0.00  0.00    +0.181 C 
ATOM     11  C   UNL     1      32.814 -14.508 -22.826  0.00  0.00    +0.131 C 
ATOM     12  C   UNL     1      32.558 -14.478 -21.471  0.00  0.00    +0.109 C 
ATOM     13  C   UNL     1      32.310 -12.219 -21.514  0.00  0.00    +0.212 C 
ATOM     14  C   UNL     1      32.561 -15.753 -20.695  0.00  0.00    +0.063 C 
ATOM     15  C   UNL     1      32.005  -9.781 -21.378  0.00  0.00    +0.104 C 
ATOM     16  C   UNL     1      31.785 -10.909 -19.498  0.00  0.00    +0.182 C 
ATOM     17  C   UNL     1      31.714  -8.949 -20.323  0.00  0.00    +0.118 C 
ENDROOT
BRANCH   6  20
ATOM     18  O   UNL     1      35.115 -11.367 -26.291  0.00  0.00    -0.273 OA
ATOM     19  N   UNL     1      33.955 -10.272 -24.595  0.00  0.00    -0.303 N 
ATOM     20  C   UNL     1      34.115 -11.217 -25.594  0.00  0.00    +0.241 C 
ATOM     21  H   UNL     1      33.104 -10.250 -24.102  0.00  0.00    +0.149 HD
BRANCH  19  22
ATOM     22  C   UNL     1      34.979  -9.315 -24.241  0.00  0.00    +0.094 C 
BRANCH  22  23
ATOM     23  C   UNL     1      34.462  -8.219 -23.313  0.00  0.00    +0.048 C 
BRANCH  23  26
ATOM     24  O   UNL     1      30.864  -4.906 -23.987  0.00  0.00    -0.435 OA
ATOM     25  O   UNL     1      31.903  -4.010 -25.968  0.00  0.00    -0.435 OA
ATOM     26  C   UNL     1      33.799  -7.084 -24.054  0.00  0.00    -0.017 C 
ATOM     27  C   UNL     1      32.598  -6.575 -23.577  0.00  0.00    +0.036 C 
ATOM     28  C   UNL     1      34.412  -6.574 -25.202  0.00  0.00    -0.001 C 
ATOM     29  C   UNL     1      32.031  -5.537 -24.289  0.00  0.00    +0.176 C 
ATOM     30  C   UNL     1      32.624  -5.025 -25.420  0.00  0.00    +0.176 C 
ATOM     31  C   UNL     1      33.817  -5.523 -25.903  0.00  0.00    +0.040 C 
ATOM     32  C   UNL     1      30.789  -3.940 -25.054  0.00  0.00    +0.429 C 
ENDBRANCH  23  26
ENDBRANCH  22  23
ENDBRANCH  19  22
ENDBRANCH   6  20
TORSDOF 4
ENDMDL
MODEL 5
REMARK VINA RESULT:     -10.6      5.920     10.933
REMARK  Name = 16115747
REMARK  4 active torsions:
REMARK  status: ('A' for Active; 'I' for Inactive)
REMARK    1  A    between atoms: C_6  and  C_20
REMARK    2  A    between atoms: N_19  and  C_22
REMARK    3  A    between atoms: C_22  and  C_23
REMARK    4  A    between atoms: C_23  and  C_26
REMARK                            x       y       z     vdW  Elec       q    Type
REMARK                         _______ _______ _______ _____ _____    ______ ____
ROOT
ATOM      1  N   UNL     1      33.166 -13.230 -24.895  0.00  0.00    -0.279 N 
ATOM      2  N   UNL     1      32.533 -12.302 -22.778  0.00  0.00    -0.316 NA
ATOM      3  N   UNL     1      32.292 -13.734 -20.856  0.00  0.00    -0.336 NA
ATOM      4  N   UNL     1      31.920 -11.444 -20.704  0.00  0.00    -0.170 N 
ATOM      5  N   UNL     1      31.328 -10.256 -18.920  0.00  0.00    -0.224 NA
ATOM      6  C   UNL     1      32.992 -11.988 -25.650  0.00  0.00    +0.151 C 
ATOM      7  C   UNL     1      33.001 -12.437 -27.112  0.00  0.00    +0.031 C 
ATOM      8  C   UNL     1      33.881 -13.678 -27.099  0.00  0.00    +0.024 C 
ATOM      9  C   UNL     1      33.534 -14.344 -25.771  0.00  0.00    +0.093 C 
ATOM     10  C   UNL     1      32.874 -13.385 -23.554  0.00  0.00    +0.181 C 
ATOM     11  C   UNL     1      32.928 -14.668 -22.983  0.00  0.00    +0.131 C 
ATOM     12  C   UNL     1      32.628 -14.780 -21.641  0.00  0.00    +0.109 C 
ATOM     13  C   UNL     1      32.264 -12.542 -21.481  0.00  0.00    +0.212 C 
ATOM     14  C   UNL     1      32.672 -16.122 -20.988  0.00  0.00    +0.063 C 
ATOM     15  C   UNL     1      31.830 -10.145 -21.128  0.00  0.00    +0.104 C 
ATOM     16  C   UNL     1      31.609 -11.458 -19.371  0.00  0.00    +0.182 C 
ATOM     17  C   UNL     1      31.463  -9.433 -20.010  0.00  0.00    +0.118 C 
ENDROOT
BRANCH   6  20
ATOM     18  O   UNL     1      35.196 -11.149 -26.005  0.00  0.00    -0.273 OA
ATOM     19  N   UNL     1      33.869 -10.173 -24.359  0.00  0.00    -0.303 N 
ATOM     20  C   UNL     1      34.142 -11.068 -25.381  0.00  0.00    +0.241 C 
ATOM     21  H   UNL     1      32.983 -10.206 -23.932  0.00  0.00    +0.149 HD
BRANCH  19  22
ATOM     22  C   UNL     1      34.822  -9.193 -23.892  0.00  0.00    +0.094 C 
BRANCH  22  23
ATOM     23  C   UNL     1      34.756  -7.889 -24.682  0.00  0.00    +0.048 C 
BRANCH  23  26
ATOM     24  O   UNL     1      31.428  -6.290 -21.404  0.00  0.00    -0.435 OA
ATOM     25  O   UNL     1      30.580  -4.611 -22.911  0.00  0.00    -0.435 OA
ATOM     26  C   UNL     1      33.631  -6.987 -24.238  0.00  0.00    -0.017 C 
ATOM     27  C   UNL     1      33.103  -7.144 -22.962  0.00  0.00    +0.036 C 
ATOM     28  C   UNL     1      33.148  -6.017 -25.121  0.00  0.00    -0.001 C 
ATOM     29  C   UNL     1      32.075  -6.296 -22.602  0.00  0.00    +0.176 C 
ATOM     30  C   UNL     1      31.591  -5.337 -23.462  0.00  0.00    +0.176 C 
ATOM     31  C   UNL     1      32.107  -5.173 -24.731  0.00  0.00    +0.040 C 
ATOM     32  C   UNL     1      30.483  -5.221 -21.607  0.00  0.00    +0.429 C 
ENDBRANCH  23  26
ENDBRANCH  22  23
ENDBRANCH  19  22
ENDBRANCH   6  20
TORSDOF 4
ENDMDL
MODEL 6
REMARK VINA RESULT:     -10.1      3.971      9.933
REMARK  Name = 16115747
REMARK  4 active torsions:
REMARK  status: ('A' for Active; 'I' for Inactive)
REMARK    1  A    between atoms: C_6  and  C_20
REMARK    2  A    between atoms: N_19  and  C_22
REMARK    3  A    between atoms: C_22  and  C_23
REMARK    4  A    between atoms: C_23  and  C_26
REMARK                            x       y       z     vdW  Elec       q    Type
REMARK                         _______ _______ _______ _____ _____    ______ ____
ROOT
ATOM      1  N   UNL     1      34.213 -22.518 -18.129  0.00  0.00    -0.279 N 
ATOM      2  N   UNL     1      32.002 -22.795 -17.246  0.00  0.00    -0.316 NA
ATOM      3  N   UNL     1      31.693 -23.411 -14.937  0.00  0.00    -0.336 NA
ATOM      4  N   UNL     1      29.875 -23.075 -16.347  0.00  0.00    -0.170 N 
ATOM      5  N   UNL     1      27.709 -23.242 -15.872  0.00  0.00    -0.224 NA
ATOM      6  C   UNL     1      33.787 -22.328 -19.515  0.00  0.00    +0.151 C 
ATOM      7  C   UNL     1      35.075 -22.488 -20.326  0.00  0.00    +0.031 C 
ATOM      8  C   UNL     1      36.159 -22.020 -19.367  0.00  0.00    +0.024 C 
ATOM      9  C   UNL     1      35.672 -22.521 -18.010  0.00  0.00    +0.093 C 
ATOM     10  C   UNL     1      33.367 -22.812 -17.077  0.00  0.00    +0.181 C 
ATOM     11  C   UNL     1      33.915 -23.133 -15.823  0.00  0.00    +0.131 C 
ATOM     12  C   UNL     1      33.036 -23.422 -14.800  0.00  0.00    +0.109 C 
ATOM     13  C   UNL     1      31.251 -23.094 -16.169  0.00  0.00    +0.212 C 
ATOM     14  C   UNL     1      33.570 -23.768 -13.450  0.00  0.00    +0.063 C 
ATOM     15  C   UNL     1      29.209 -22.781 -17.506  0.00  0.00    +0.104 C 
ATOM     16  C   UNL     1      28.929 -23.345 -15.394  0.00  0.00    +0.182 C 
ATOM     17  C   UNL     1      27.876 -22.892 -17.188  0.00  0.00    +0.118 C 
ENDROOT
BRANCH   6  20
ATOM     18  O   UNL     1      32.207 -20.587 -19.115  0.00  0.00    -0.273 OA
ATOM     19  N   UNL     1      33.984 -20.188 -20.567  0.00  0.00    -0.303 N 
ATOM     20  C   UNL     1      33.230 -20.949 -19.689  0.00  0.00    +0.241 C 
ATOM     21  H   UNL     1      34.787 -20.591 -20.967  0.00  0.00    +0.149 HD
BRANCH  19  22
ATOM     22  C   UNL     1      33.646 -18.828 -20.923  0.00  0.00    +0.094 C 
BRANCH  22  23
ATOM     23  C   UNL     1      34.772 -18.123 -21.675  0.00  0.00    +0.048 C 
BRANCH  23  26
ATOM     24  O   UNL     1      34.101 -15.910 -26.038  0.00  0.00    -0.435 OA
ATOM     25  O   UNL     1      32.995 -14.017 -25.036  0.00  0.00    -0.435 OA
ATOM     26  C   UNL     1      34.280 -16.998 -22.552  0.00  0.00    -0.017 C 
ATOM     27  C   UNL     1      34.474 -17.075 -23.925  0.00  0.00    +0.036 C 
ATOM     28  C   UNL     1      33.640 -15.905 -21.959  0.00  0.00    -0.001 C 
ATOM     29  C   UNL     1      34.007 -16.021 -24.684  0.00  0.00    +0.176 C 
ATOM     30  C   UNL     1      33.375 -14.941 -24.113  0.00  0.00    +0.176 C 
ATOM     31  C   UNL     1      33.177 -14.853 -22.750  0.00  0.00    +0.040 C 
ATOM     32  C   UNL     1      33.458 -14.638 -26.254  0.00  0.00    +0.429 C 
ENDBRANCH  23  26
ENDBRANCH  22  23
ENDBRANCH  19  22
ENDBRANCH   6  20
TORSDOF 4
ENDMDL
MODEL 7
REMARK VINA RESULT:      -9.9      2.621      5.889
REMARK  Name = 16115747
REMARK  4 active torsions:
REMARK  status: ('A' for Active; 'I' for Inactive)
REMARK    1  A    between atoms: C_6  and  C_20
REMARK    2  A    between atoms: N_19  and  C_22
REMARK    3  A    between atoms: C_22  and  C_23
REMARK    4  A    between atoms: C_23  and  C_26
REMARK                            x       y       z     vdW  Elec       q    Type
REMARK                         _______ _______ _______ _____ _____    ______ ____
ROOT
ATOM      1  N   UNL     1      32.199 -10.650 -21.860  0.00  0.00    -0.279 N 
ATOM      2  N   UNL     1      32.776 -11.934 -23.799  0.00  0.00    -0.316 NA
ATOM      3  N   UNL     1      34.283 -11.025 -25.444  0.00  0.00    -0.336 NA
ATOM      4  N   UNL     1      33.362 -13.145 -25.697  0.00  0.00    -0.170 N 
ATOM      5  N   UNL     1      33.673 -14.598 -27.351  0.00  0.00    -0.224 NA
ATOM      6  C   UNL     1      31.194 -11.590 -21.363  0.00  0.00    +0.151 C 
ATOM      7  C   UNL     1      30.430 -10.794 -20.304  0.00  0.00    +0.031 C 
ATOM      8  C   UNL     1      31.468  -9.814 -19.778  0.00  0.00    +0.024 C 
ATOM      9  C   UNL     1      32.275  -9.453 -21.021  0.00  0.00    +0.093 C 
ATOM     10  C   UNL     1      32.886 -10.786 -23.050  0.00  0.00    +0.181 C 
ATOM     11  C   UNL     1      33.704  -9.734 -23.495  0.00  0.00    +0.131 C 
ATOM     12  C   UNL     1      34.373  -9.909 -24.690  0.00  0.00    +0.109 C 
ATOM     13  C   UNL     1      33.480 -11.984 -24.946  0.00  0.00    +0.212 C 
ATOM     14  C   UNL     1      35.255  -8.821 -25.204  0.00  0.00    +0.063 C 
ATOM     15  C   UNL     1      32.605 -14.242 -25.385  0.00  0.00    +0.104 C 
ATOM     16  C   UNL     1      33.985 -13.408 -26.888  0.00  0.00    +0.182 C 
ATOM     17  C   UNL     1      32.813 -15.123 -26.420  0.00  0.00    +0.118 C 
ENDROOT
BRANCH   6  20
ATOM     18  O   UNL     1      32.271 -12.749 -19.579  0.00  0.00    -0.273 OA
ATOM     19  N   UNL     1      31.996 -13.830 -21.623  0.00  0.00    -0.303 N 
ATOM     20  C   UNL     1      31.871 -12.771 -20.739  0.00  0.00    +0.241 C 
ATOM     21  H   UNL     1      31.634 -13.727 -22.532  0.00  0.00    +0.149 HD
BRANCH  19  22
ATOM     22  C   UNL     1      32.634 -15.079 -21.273  0.00  0.00    +0.094 C 
BRANCH  22  23
ATOM     23  C   UNL     1      33.669 -15.517 -22.306  0.00  0.00    +0.048 C 
BRANCH  23  26
ATOM     24  O   UNL     1      33.699 -19.974 -20.181  0.00  0.00    -0.435 OA
ATOM     25  O   UNL     1      35.902 -20.484 -21.015  0.00  0.00    -0.435 OA
ATOM     26  C   UNL     1      34.301 -16.847 -21.977  0.00  0.00    -0.017 C 
ATOM     27  C   UNL     1      33.599 -17.756 -21.197  0.00  0.00    +0.036 C 
ATOM     28  C   UNL     1      35.580 -17.131 -22.468  0.00  0.00    -0.001 C 
ATOM     29  C   UNL     1      34.219 -18.959 -20.924  0.00  0.00    +0.176 C 
ATOM     30  C   UNL     1      35.476 -19.250 -21.400  0.00  0.00    +0.176 C 
ATOM     31  C   UNL     1      36.184 -18.355 -22.176  0.00  0.00    +0.040 C 
ATOM     32  C   UNL     1      34.770 -20.937 -20.243  0.00  0.00    +0.429 C 
ENDBRANCH  23  26
ENDBRANCH  22  23
ENDBRANCH  19  22
ENDBRANCH   6  20
TORSDOF 4
ENDMDL
MODEL 8
REMARK VINA RESULT:      -9.8      3.941      6.836
REMARK  Name = 16115747
REMARK  4 active torsions:
REMARK  status: ('A' for Active; 'I' for Inactive)
REMARK    1  A    between atoms: C_6  and  C_20
REMARK    2  A    between atoms: N_19  and  C_22
REMARK    3  A    between atoms: C_22  and  C_23
REMARK    4  A    between atoms: C_23  and  C_26
REMARK                            x       y       z     vdW  Elec       q    Type
REMARK                         _______ _______ _______ _____ _____    ______ ____
ROOT
ATOM      1  N   UNL     1      32.092 -10.345 -21.509  0.00  0.00    -0.279 N 
ATOM      2  N   UNL     1      32.767 -11.399 -23.552  0.00  0.00    -0.316 NA
ATOM      3  N   UNL     1      34.205 -10.233 -25.094  0.00  0.00    -0.336 NA
ATOM      4  N   UNL     1      33.446 -12.384 -25.548  0.00  0.00    -0.170 N 
ATOM      5  N   UNL     1      33.868 -13.651 -27.325  0.00  0.00    -0.224 NA
ATOM      6  C   UNL     1      31.160 -11.399 -21.109  0.00  0.00    +0.151 C 
ATOM      7  C   UNL     1      30.337 -10.763 -19.987  0.00  0.00    +0.031 C 
ATOM      8  C   UNL     1      31.298  -9.760 -19.365  0.00  0.00    +0.024 C 
ATOM      9  C   UNL     1      32.078  -9.228 -20.563  0.00  0.00    +0.093 C 
ATOM     10  C   UNL     1      32.790 -10.320 -22.701  0.00  0.00    +0.181 C 
ATOM     11  C   UNL     1      33.528  -9.173 -23.041  0.00  0.00    +0.131 C 
ATOM     12  C   UNL     1      34.209  -9.187 -24.241  0.00  0.00    +0.109 C 
ATOM     13  C   UNL     1      33.474 -11.290 -24.693  0.00  0.00    +0.212 C 
ATOM     14  C   UNL     1      35.008  -7.994 -24.646  0.00  0.00    +0.063 C 
ATOM     15  C   UNL     1      32.773 -13.558 -25.344  0.00  0.00    +0.104 C 
ATOM     16  C   UNL     1      34.088 -12.489 -26.753  0.00  0.00    +0.182 C 
ATOM     17  C   UNL     1      33.048 -14.322 -26.453  0.00  0.00    +0.118 C 
ENDROOT
BRANCH   6  20
ATOM     18  O   UNL     1      32.260 -12.664 -19.412  0.00  0.00    -0.273 OA
ATOM     19  N   UNL     1      32.201 -13.501 -21.584  0.00  0.00    -0.303 N 
ATOM     20  C   UNL     1      31.923 -12.578 -20.589  0.00  0.00    +0.241 C 
ATOM     21  H   UNL     1      31.877 -13.320 -22.495  0.00  0.00    +0.149 HD
BRANCH  19  22
ATOM     22  C   UNL     1      32.946 -14.717 -21.347  0.00  0.00    +0.094 C 
BRANCH  22  23
ATOM     23  C   UNL     1      34.207 -14.807 -22.202  0.00  0.00    +0.048 C 
BRANCH  23  26
ATOM     24  O   UNL     1      34.417 -18.452 -25.527  0.00  0.00    -0.435 OA
ATOM     25  O   UNL     1      35.342 -20.007 -23.934  0.00  0.00    -0.435 OA
ATOM     26  C   UNL     1      34.525 -16.217 -22.635  0.00  0.00    -0.017 C 
ATOM     27  C   UNL     1      34.278 -16.594 -23.949  0.00  0.00    +0.036 C 
ATOM     28  C   UNL     1      35.061 -17.110 -21.701  0.00  0.00    -0.001 C 
ATOM     29  C   UNL     1      34.586 -17.894 -24.296  0.00  0.00    +0.176 C 
ATOM     30  C   UNL     1      35.113 -18.781 -23.388  0.00  0.00    +0.176 C 
ATOM     31  C   UNL     1      35.362 -18.419 -22.080  0.00  0.00    +0.040 C 
ATOM     32  C   UNL     1      34.899 -19.790 -25.290  0.00  0.00    +0.429 C 
ENDBRANCH  23  26
ENDBRANCH  22  23
ENDBRANCH  19  22
ENDBRANCH   6  20
TORSDOF 4
ENDMDL
MODEL 9
REMARK VINA RESULT:      -9.7      6.214     12.846
REMARK  Name = 16115747
REMARK  4 active torsions:
REMARK  status: ('A' for Active; 'I' for Inactive)
REMARK    1  A    between atoms: C_6  and  C_20
REMARK    2  A    between atoms: N_19  and  C_22
REMARK    3  A    between atoms: C_22  and  C_23
REMARK    4  A    between atoms: C_23  and  C_26
REMARK                            x       y       z     vdW  Elec       q    Type
REMARK                         _______ _______ _______ _____ _____    ______ ____
ROOT
ATOM      1  N   UNL     1      32.262 -10.739 -21.150  0.00  0.00    -0.279 N 
ATOM      2  N   UNL     1      32.720 -12.085 -23.078  0.00  0.00    -0.316 NA
ATOM      3  N   UNL     1      32.657 -14.488 -22.915  0.00  0.00    -0.336 NA
ATOM      4  N   UNL     1      33.159 -13.431 -24.925  0.00  0.00    -0.170 N 
ATOM      5  N   UNL     1      33.630 -14.355 -26.891  0.00  0.00    -0.224 NA
ATOM      6  C   UNL     1      32.598  -9.465 -21.786  0.00  0.00    +0.151 C 
ATOM      7  C   UNL     1      32.718  -8.485 -20.616  0.00  0.00    +0.031 C 
ATOM      8  C   UNL     1      31.763  -9.051 -19.577  0.00  0.00    +0.024 C 
ATOM      9  C   UNL     1      31.919 -10.560 -19.738  0.00  0.00    +0.093 C 
ATOM     10  C   UNL     1      32.396 -11.977 -21.746  0.00  0.00    +0.181 C 
ATOM     11  C   UNL     1      32.197 -13.136 -20.977  0.00  0.00    +0.131 C 
ATOM     12  C   UNL     1      32.340 -14.353 -21.609  0.00  0.00    +0.109 C 
ATOM     13  C   UNL     1      32.830 -13.330 -23.580  0.00  0.00    +0.212 C 
ATOM     14  C   UNL     1      32.138 -15.612 -20.835  0.00  0.00    +0.063 C 
ATOM     15  C   UNL     1      33.380 -12.392 -25.787  0.00  0.00    +0.104 C 
ATOM     16  C   UNL     1      33.322 -14.590 -25.636  0.00  0.00    +0.182 C 
ATOM     17  C   UNL     1      33.669 -12.988 -26.993  0.00  0.00    +0.118 C 
ENDROOT
BRANCH   6  20
ATOM     18  O   UNL     1      30.469  -9.721 -22.830  0.00  0.00    -0.273 OA
ATOM     19  N   UNL     1      31.774  -7.868 -23.366  0.00  0.00    -0.303 N 
ATOM     20  C   UNL     1      31.488  -9.049 -22.700  0.00  0.00    +0.241 C 
ATOM     21  H   UNL     1      32.628  -7.419 -23.178  0.00  0.00    +0.149 HD
BRANCH  19  22
ATOM     22  C   UNL     1      30.875  -7.264 -24.323  0.00  0.00    +0.094 C 
BRANCH  22  23
ATOM     23  C   UNL     1      30.781  -5.748 -24.163  0.00  0.00    +0.048 C 
BRANCH  23  26
ATOM     24  O   UNL     1      34.889  -5.280 -26.862  0.00  0.00    -0.435 OA
ATOM     25  O   UNL     1      34.275  -3.078 -27.624  0.00  0.00    -0.435 OA
ATOM     26  C   UNL     1      31.699  -5.000 -25.097  0.00  0.00    -0.017 C 
ATOM     27  C   UNL     1      32.887  -5.597 -25.501  0.00  0.00    +0.036 C 
ATOM     28  C   UNL     1      31.331  -3.723 -25.532  0.00  0.00    -0.001 C 
ATOM     29  C   UNL     1      33.693  -4.872 -26.356  0.00  0.00    +0.176 C 
ATOM     30  C   UNL     1      33.342  -3.616 -26.791  0.00  0.00    +0.176 C 
ATOM     31  C   UNL     1      32.166  -3.012 -26.396  0.00  0.00    +0.040 C 
ATOM     32  C   UNL     1      35.252  -4.139 -27.664  0.00  0.00    +0.429 C 
ENDBRANCH  23  26
ENDBRANCH  22  23
ENDBRANCH  19  22
ENDBRANCH   6  20
TORSDOF 4
ENDMDL
