MODEL 1
REMARK VINA RESULT:     -11.3      0.000      0.000
REMARK  Name = 491941
REMARK  5 active torsions:
REMARK  status: ('A' for Active; 'I' for Inactive)
REMARK    1  A    between atoms: C_5  and  C_17
REMARK    2  A    between atoms: C_7  and  S_11
REMARK    3  A    between atoms: S_11  and  N_14
REMARK    4  A    between atoms: C_17  and  C_18
REMARK    5  A    between atoms: C_21  and  C_25
REMARK                            x       y       z     vdW  Elec       q    Type
REMARK                         _______ _______ _______ _____ _____    ______ ____
ROOT
ATOM      1  S   UNL     1      34.328 -24.341 -13.852  0.00  0.00    -0.035 S 
ATOM      2  O   UNL     1      35.724 -22.728 -17.702  0.00  0.00    -0.274 OA
ATOM      3  N   UNL     1      34.005 -23.099 -16.138  0.00  0.00    -0.227 N 
ATOM      4  N   UNL     1      36.061 -22.752 -14.929  0.00  0.00    -0.386 NA
ATOM      5  C   UNL     1      34.525 -22.821 -17.426  0.00  0.00    +0.236 C 
ATOM      6  C   UNL     1      34.906 -23.294 -15.048  0.00  0.00    +0.217 C 
ATOM      7  C   UNL     1      35.801 -24.075 -13.016  0.00  0.00    +0.247 C 
ATOM      8  C   UNL     1      36.592 -23.205 -13.738  0.00  0.00    +0.123 C 
ATOM      9  C   UNL     1      32.556 -23.191 -15.899  0.00  0.00    +0.123 C 
ATOM     10  C   UNL     1      37.935 -22.730 -13.346  0.00  0.00    +0.064 C 
ENDROOT
BRANCH   7  11
ATOM     11  S   UNL     1      35.970 -24.925 -11.493  0.00  0.00    +0.052 S 
ATOM     12  O   UNL     1      34.613 -25.201 -11.030  0.00  0.00    -0.157 OA
ATOM     13  O   UNL     1      36.895 -26.019 -11.765  0.00  0.00    -0.157 OA
BRANCH  11  14
ATOM     14  N   UNL     1      36.704 -23.872 -10.348  0.00  0.00    -0.206 NA
ATOM     15  H   UNL     1      36.016 -23.196 -10.019  0.00  0.00    +0.144 HD
ATOM     16  H   UNL     1      37.482 -23.380 -10.789  0.00  0.00    +0.144 HD
ENDBRANCH  11  14
ENDBRANCH   7  11
BRANCH   5  17
ATOM     17  C   UNL     1      33.495 -22.667 -18.552  0.00  0.00    +0.112 C 
BRANCH  17  18
ATOM     18  C   UNL     1      33.766 -21.527 -19.473  0.00  0.00    -0.013 C 
ATOM     19  C   UNL     1      35.071 -21.266 -19.895  0.00  0.00    -0.004 C 
ATOM     20  C   UNL     1      32.716 -20.721 -19.914  0.00  0.00    -0.004 C 
ATOM     21  C   UNL     1      34.275 -19.393 -21.196  0.00  0.00    +0.018 C 
ATOM     22  C   UNL     1      35.325 -20.199 -20.756  0.00  0.00    +0.001 C 
ATOM     23  C   UNL     1      32.971 -19.653 -20.775  0.00  0.00    +0.001 C 
BRANCH  21  25
ATOM     24  N   UNL     1      34.552 -17.071 -21.501  0.00  0.00    -0.244 NA
ATOM     25  C   UNL     1      34.538 -18.286 -22.090  0.00  0.00    +0.081 C 
ATOM     26  C   UNL     1      34.755 -18.500 -23.440  0.00  0.00    +0.019 C 
ATOM     27  C   UNL     1      35.002 -17.390 -24.241  0.00  0.00    +0.003 C 
ATOM     28  C   UNL     1      34.796 -16.016 -22.311  0.00  0.00    +0.099 C 
ATOM     29  C   UNL     1      35.025 -16.121 -23.673  0.00  0.00    +0.021 C 
ENDBRANCH  21  25
ENDBRANCH  17  18
ENDBRANCH   5  17
TORSDOF 5
ENDMDL
MODEL 2
REMARK VINA RESULT:     -10.6      8.578     13.192
REMARK  Name = 491941
REMARK  5 active torsions:
REMARK  status: ('A' for Active; 'I' for Inactive)
REMARK    1  A    between atoms: C_5  and  C_17
REMARK    2  A    between atoms: C_7  and  S_11
REMARK    3  A    between atoms: S_11  and  N_14
REMARK    4  A    between atoms: C_17  and  C_18
REMARK    5  A    between atoms: C_21  and  C_25
REMARK                            x       y       z     vdW  Elec       q    Type
REMARK                         _______ _______ _______ _____ _____    ______ ____
ROOT
ATOM      1  S   UNL     1      32.740  -9.073 -23.724  0.00  0.00    -0.035 S 
ATOM      2  O   UNL     1      32.034 -13.198 -22.361  0.00  0.00    -0.274 OA
ATOM      3  N   UNL     1      33.285 -11.634 -23.598  0.00  0.00    -0.227 N 
ATOM      4  N   UNL     1      32.464 -10.541 -21.613  0.00  0.00    -0.386 NA
ATOM      5  C   UNL     1      32.828 -12.934 -23.269  0.00  0.00    +0.236 C 
ATOM      6  C   UNL     1      32.814 -10.516 -22.845  0.00  0.00    +0.217 C 
ATOM      7  C   UNL     1      32.157  -8.324 -22.296  0.00  0.00    +0.247 C 
ATOM      8  C   UNL     1      32.078  -9.257 -21.283  0.00  0.00    +0.123 C 
ATOM      9  C   UNL     1      34.236 -11.410 -24.699  0.00  0.00    +0.123 C 
ATOM     10  C   UNL     1      31.621  -8.997 -19.903  0.00  0.00    +0.064 C 
ENDROOT
BRANCH   7  11
ATOM     11  S   UNL     1      31.809  -6.611 -22.429  0.00  0.00    +0.052 S 
ATOM     12  O   UNL     1      32.700  -6.096 -23.465  0.00  0.00    -0.157 OA
ATOM     13  O   UNL     1      30.362  -6.525 -22.589  0.00  0.00    -0.157 OA
BRANCH  11  14
ATOM     14  N   UNL     1      32.234  -5.842 -20.950  0.00  0.00    -0.206 NA
ATOM     15  H   UNL     1      31.886  -4.884 -20.954  0.00  0.00    +0.144 HD
ATOM     16  H   UNL     1      33.249  -5.836 -20.850  0.00  0.00    +0.144 HD
ENDBRANCH  11  14
ENDBRANCH   7  11
BRANCH   5  17
ATOM     17  C   UNL     1      33.347 -14.076 -24.151  0.00  0.00    +0.112 C 
BRANCH  17  18
ATOM     18  C   UNL     1      33.780 -15.283 -23.391  0.00  0.00    -0.013 C 
ATOM     19  C   UNL     1      33.711 -15.292 -21.997  0.00  0.00    -0.004 C 
ATOM     20  C   UNL     1      34.255 -16.404 -24.072  0.00  0.00    -0.004 C 
ATOM     21  C   UNL     1      34.592 -17.540 -21.967  0.00  0.00    +0.018 C 
ATOM     22  C   UNL     1      34.116 -16.420 -21.285  0.00  0.00    +0.001 C 
ATOM     23  C   UNL     1      34.661 -17.533 -23.360  0.00  0.00    +0.001 C 
BRANCH  21  25
ATOM     24  N   UNL     1      36.331 -18.761 -20.945  0.00  0.00    -0.244 NA
ATOM     25  C   UNL     1      35.012 -18.712 -21.229  0.00  0.00    +0.081 C 
ATOM     26  C   UNL     1      34.099 -19.684 -20.861  0.00  0.00    +0.019 C 
ATOM     27  C   UNL     1      34.572 -20.783 -20.153  0.00  0.00    +0.003 C 
ATOM     28  C   UNL     1      36.755 -19.844 -20.255  0.00  0.00    +0.099 C 
ATOM     29  C   UNL     1      35.925 -20.872 -19.840  0.00  0.00    +0.021 C 
ENDBRANCH  21  25
ENDBRANCH  17  18
ENDBRANCH   5  17
TORSDOF 5
ENDMDL
MODEL 3
REMARK VINA RESULT:     -10.5      5.515     10.698
REMARK  Name = 491941
REMARK  5 active torsions:
REMARK  status: ('A' for Active; 'I' for Inactive)
REMARK    1  A    between atoms: C_5  and  C_17
REMARK    2  A    between atoms: C_7  and  S_11
REMARK    3  A    between atoms: S_11  and  N_14
REMARK    4  A    between atoms: C_17  and  C_18
REMARK    5  A    between atoms: C_21  and  C_25
REMARK                            x       y       z     vdW  Elec       q    Type
REMARK                         _______ _______ _______ _____ _____    ______ ____
ROOT
ATOM      1  S   UNL     1      34.207 -15.691 -23.712  0.00  0.00    -0.035 S 
ATOM      2  O   UNL     1      33.329 -18.696 -20.617  0.00  0.00    -0.274 OA
ATOM      3  N   UNL     1      34.744 -17.823 -22.284  0.00  0.00    -0.227 N 
ATOM      4  N   UNL     1      33.620 -15.981 -21.210  0.00  0.00    -0.386 NA
ATOM      5  C   UNL     1      34.251 -18.837 -21.426  0.00  0.00    +0.236 C 
ATOM      6  C   UNL     1      34.155 -16.523 -22.240  0.00  0.00    +0.217 C 
ATOM      7  C   UNL     1      33.406 -14.398 -22.920  0.00  0.00    +0.247 C 
ATOM      8  C   UNL     1      33.179 -14.733 -21.601  0.00  0.00    +0.123 C 
ATOM      9  C   UNL     1      35.851 -18.080 -23.220  0.00  0.00    +0.123 C 
ATOM     10  C   UNL     1      32.514 -13.880 -20.595  0.00  0.00    +0.064 C 
ENDROOT
BRANCH   7  11
ATOM     11  S   UNL     1      33.071 -12.995 -23.914  0.00  0.00    +0.052 S 
ATOM     12  O   UNL     1      33.008 -13.478 -25.291  0.00  0.00    -0.157 OA
ATOM     13  O   UNL     1      31.911 -12.358 -23.302  0.00  0.00    -0.157 OA
BRANCH  11  14
ATOM     14  N   UNL     1      34.400 -11.908 -23.807  0.00  0.00    -0.206 NA
ATOM     15  H   UNL     1      34.061 -10.949 -23.884  0.00  0.00    +0.144 HD
ATOM     16  H   UNL     1      35.057 -12.099 -24.564  0.00  0.00    +0.144 HD
ENDBRANCH  11  14
ENDBRANCH   7  11
BRANCH   5  17
ATOM     17  C   UNL     1      34.907 -20.217 -21.564  0.00  0.00    +0.112 C 
BRANCH  17  18
ATOM     18  C   UNL     1      35.154 -20.904 -20.265  0.00  0.00    -0.013 C 
ATOM     19  C   UNL     1      36.404 -20.811 -19.651  0.00  0.00    -0.004 C 
ATOM     20  C   UNL     1      34.135 -21.641 -19.661  0.00  0.00    -0.004 C 
ATOM     21  C   UNL     1      35.616 -22.191 -17.833  0.00  0.00    +0.018 C 
ATOM     22  C   UNL     1      36.635 -21.454 -18.436  0.00  0.00    +0.001 C 
ATOM     23  C   UNL     1      34.366 -22.285 -18.445  0.00  0.00    +0.001 C 
BRANCH  21  25
ATOM     24  N   UNL     1      34.858 -23.672 -16.162  0.00  0.00    -0.244 NA
ATOM     25  C   UNL     1      35.855 -22.859 -16.572  0.00  0.00    +0.081 C 
ATOM     26  C   UNL     1      37.030 -22.652 -15.871  0.00  0.00    +0.019 C 
ATOM     27  C   UNL     1      37.194 -23.327 -14.666  0.00  0.00    +0.003 C 
ATOM     28  C   UNL     1      35.052 -24.311 -14.986  0.00  0.00    +0.099 C 
ATOM     29  C   UNL     1      36.190 -24.174 -14.208  0.00  0.00    +0.021 C 
ENDBRANCH  21  25
ENDBRANCH  17  18
ENDBRANCH   5  17
TORSDOF 5
ENDMDL
MODEL 4
REMARK VINA RESULT:     -10.5      5.499     10.754
REMARK  Name = 491941
REMARK  5 active torsions:
REMARK  status: ('A' for Active; 'I' for Inactive)
REMARK    1  A    between atoms: C_5  and  C_17
REMARK    2  A    between atoms: C_7  and  S_11
REMARK    3  A    between atoms: S_11  and  N_14
REMARK    4  A    between atoms: C_17  and  C_18
REMARK    5  A    between atoms: C_21  and  C_25
REMARK                            x       y       z     vdW  Elec       q    Type
REMARK                         _______ _______ _______ _____ _____    ______ ____
ROOT
ATOM      1  S   UNL     1      34.208 -15.713 -23.719  0.00  0.00    -0.035 S 
ATOM      2  O   UNL     1      33.293 -18.679 -20.598  0.00  0.00    -0.274 OA
ATOM      3  N   UNL     1      34.729 -17.825 -22.255  0.00  0.00    -0.227 N 
ATOM      4  N   UNL     1      33.587 -15.971 -21.222  0.00  0.00    -0.386 NA
ATOM      5  C   UNL     1      34.226 -18.829 -21.391  0.00  0.00    +0.236 C 
ATOM      6  C   UNL     1      34.137 -16.526 -22.237  0.00  0.00    +0.217 C 
ATOM      7  C   UNL     1      33.394 -14.412 -22.956  0.00  0.00    +0.247 C 
ATOM      8  C   UNL     1      33.148 -14.729 -21.636  0.00  0.00    +0.123 C 
ATOM      9  C   UNL     1      35.850 -18.092 -23.172  0.00  0.00    +0.123 C 
ATOM     10  C   UNL     1      32.468 -13.864 -20.651  0.00  0.00    +0.064 C 
ENDROOT
BRANCH   7  11
ATOM     11  S   UNL     1      33.070 -13.023 -23.974  0.00  0.00    +0.052 S 
ATOM     12  O   UNL     1      33.026 -13.525 -25.344  0.00  0.00    -0.157 OA
ATOM     13  O   UNL     1      31.901 -12.379 -23.385  0.00  0.00    -0.157 OA
BRANCH  11  14
ATOM     14  N   UNL     1      34.396 -11.933 -23.864  0.00  0.00    -0.206 NA
ATOM     15  H   UNL     1      34.945 -11.978 -24.722  0.00  0.00    +0.144 HD
ATOM     16  H   UNL     1      34.982 -12.190 -23.069  0.00  0.00    +0.144 HD
ENDBRANCH  11  14
ENDBRANCH   7  11
BRANCH   5  17
ATOM     17  C   UNL     1      34.887 -20.209 -21.501  0.00  0.00    +0.112 C 
BRANCH  17  18
ATOM     18  C   UNL     1      34.971 -20.946 -20.209  0.00  0.00    -0.013 C 
ATOM     19  C   UNL     1      33.836 -21.565 -19.683  0.00  0.00    -0.004 C 
ATOM     20  C   UNL     1      36.185 -21.019 -19.525  0.00  0.00    -0.004 C 
ATOM     21  C   UNL     1      35.128 -22.327 -17.790  0.00  0.00    +0.018 C 
ATOM     22  C   UNL     1      33.915 -22.255 -18.474  0.00  0.00    +0.001 C 
ATOM     23  C   UNL     1      36.263 -21.710 -18.315  0.00  0.00    +0.001 C 
BRANCH  21  25
ATOM     24  N   UNL     1      36.466 -23.271 -16.093  0.00  0.00    -0.244 NA
ATOM     25  C   UNL     1      35.211 -23.044 -16.535  0.00  0.00    +0.081 C 
ATOM     26  C   UNL     1      34.065 -23.446 -15.872  0.00  0.00    +0.019 C 
ATOM     27  C   UNL     1      34.218 -24.130 -14.670  0.00  0.00    +0.003 C 
ATOM     28  C   UNL     1      36.576 -23.939 -14.922  0.00  0.00    +0.099 C 
ATOM     29  C   UNL     1      35.495 -24.385 -14.180  0.00  0.00    +0.021 C 
ENDBRANCH  21  25
ENDBRANCH  17  18
ENDBRANCH   5  17
TORSDOF 5
ENDMDL
MODEL 5
REMARK VINA RESULT:     -10.0      4.878     10.389
REMARK  Name = 491941
REMARK  5 active torsions:
REMARK  status: ('A' for Active; 'I' for Inactive)
REMARK    1  A    between atoms: C_5  and  C_17
REMARK    2  A    between atoms: C_7  and  S_11
REMARK    3  A    between atoms: S_11  and  N_14
REMARK    4  A    between atoms: C_17  and  C_18
REMARK    5  A    between atoms: C_21  and  C_25
REMARK                            x       y       z     vdW  Elec       q    Type
REMARK                         _______ _______ _______ _____ _____    ______ ____
ROOT
ATOM      1  S   UNL     1      35.120 -16.987 -22.764  0.00  0.00    -0.035 S 
ATOM      2  O   UNL     1      33.608 -20.112 -20.057  0.00  0.00    -0.274 OA
ATOM      3  N   UNL     1      35.398 -18.992 -21.100  0.00  0.00    -0.227 N 
ATOM      4  N   UNL     1      33.653 -17.386 -20.672  0.00  0.00    -0.386 NA
ATOM      5  C   UNL     1      34.784 -20.082 -20.434  0.00  0.00    +0.236 C 
ATOM      6  C   UNL     1      34.632 -17.820 -21.375  0.00  0.00    +0.217 C 
ATOM      7  C   UNL     1      33.869 -15.862 -22.434  0.00  0.00    +0.247 C 
ATOM      8  C   UNL     1      33.200 -16.236 -21.288  0.00  0.00    +0.123 C 
ATOM      9  C   UNL     1      36.810 -19.044 -21.513  0.00  0.00    +0.123 C 
ATOM     10  C   UNL     1      32.061 -15.520 -20.678  0.00  0.00    +0.064 C 
ENDROOT
BRANCH   7  11
ATOM     11  S   UNL     1      33.724 -14.538 -23.573  0.00  0.00    +0.052 S 
ATOM     12  O   UNL     1      34.515 -13.441 -23.024  0.00  0.00    -0.157 OA
ATOM     13  O   UNL     1      34.057 -15.111 -24.872  0.00  0.00    -0.157 OA
BRANCH  11  14
ATOM     14  N   UNL     1      32.083 -14.022 -23.619  0.00  0.00    -0.206 NA
ATOM     15  H   UNL     1      31.478 -14.829 -23.764  0.00  0.00    +0.144 HD
ATOM     16  H   UNL     1      31.957 -13.358 -24.383  0.00  0.00    +0.144 HD
ENDBRANCH  11  14
ENDBRANCH   7  11
BRANCH   5  17
ATOM     17  C   UNL     1      35.661 -21.321 -20.213  0.00  0.00    +0.112 C 
BRANCH  17  18
ATOM     18  C   UNL     1      35.652 -21.829 -18.812  0.00  0.00    -0.013 C 
ATOM     19  C   UNL     1      34.550 -22.539 -18.334  0.00  0.00    -0.004 C 
ATOM     20  C   UNL     1      36.746 -21.596 -17.978  0.00  0.00    -0.004 C 
ATOM     21  C   UNL     1      35.635 -22.781 -16.189  0.00  0.00    +0.018 C 
ATOM     22  C   UNL     1      34.541 -23.015 -17.023  0.00  0.00    +0.001 C 
ATOM     23  C   UNL     1      36.737 -22.072 -16.666  0.00  0.00    +0.001 C 
BRANCH  21  25
ATOM     24  N   UNL     1      34.436 -23.748 -14.404  0.00  0.00    -0.244 NA
ATOM     25  C   UNL     1      35.627 -23.274 -14.829  0.00  0.00    +0.081 C 
ATOM     26  C   UNL     1      36.775 -23.245 -14.057  0.00  0.00    +0.019 C 
ATOM     27  C   UNL     1      36.696 -23.736 -12.758  0.00  0.00    +0.003 C 
ATOM     28  C   UNL     1      34.397 -24.217 -13.136  0.00  0.00    +0.099 C 
ATOM     29  C   UNL     1      35.488 -24.233 -12.281  0.00  0.00    +0.021 C 
ENDBRANCH  21  25
ENDBRANCH  17  18
ENDBRANCH   5  17
TORSDOF 5
ENDMDL
MODEL 6
REMARK VINA RESULT:      -9.8      1.649      2.116
REMARK  Name = 491941
REMARK  5 active torsions:
REMARK  status: ('A' for Active; 'I' for Inactive)
REMARK    1  A    between atoms: C_5  and  C_17
REMARK    2  A    between atoms: C_7  and  S_11
REMARK    3  A    between atoms: S_11  and  N_14
REMARK    4  A    between atoms: C_17  and  C_18
REMARK    5  A    between atoms: C_21  and  C_25
REMARK                            x       y       z     vdW  Elec       q    Type
REMARK                         _______ _______ _______ _____ _____    ______ ____
ROOT
ATOM      1  S   UNL     1      35.494 -24.969 -15.019  0.00  0.00    -0.035 S 
ATOM      2  O   UNL     1      35.909 -22.348 -18.530  0.00  0.00    -0.274 OA
ATOM      3  N   UNL     1      34.686 -23.094 -16.662  0.00  0.00    -0.227 N 
ATOM      4  N   UNL     1      37.032 -23.205 -16.119  0.00  0.00    -0.386 NA
ATOM      5  C   UNL     1      34.840 -22.469 -17.924  0.00  0.00    +0.236 C 
ATOM      6  C   UNL     1      35.832 -23.640 -16.008  0.00  0.00    +0.217 C 
ATOM      7  C   UNL     1      37.168 -25.023 -14.653  0.00  0.00    +0.247 C 
ATOM      8  C   UNL     1      37.822 -24.013 -15.326  0.00  0.00    +0.123 C 
ATOM      9  C   UNL     1      33.370 -23.193 -16.011  0.00  0.00    +0.123 C 
ATOM     10  C   UNL     1      39.271 -23.731 -15.267  0.00  0.00    +0.064 C 
ENDROOT
BRANCH   7  11
ATOM     11  S   UNL     1      37.660 -26.292 -13.548  0.00  0.00    +0.052 S 
ATOM     12  O   UNL     1      36.452 -27.055 -13.243  0.00  0.00    -0.157 OA
ATOM     13  O   UNL     1      38.799 -26.939 -14.189  0.00  0.00    -0.157 OA
BRANCH  11  14
ATOM     14  N   UNL     1      38.203 -25.574 -12.083  0.00  0.00    -0.206 NA
ATOM     15  H   UNL     1      38.775 -26.242 -11.569  0.00  0.00    +0.144 HD
ATOM     16  H   UNL     1      37.398 -25.307 -11.516  0.00  0.00    +0.144 HD
ENDBRANCH  11  14
ENDBRANCH   7  11
BRANCH   5  17
ATOM     17  C   UNL     1      33.556 -21.947 -18.582  0.00  0.00    +0.112 C 
BRANCH  17  18
ATOM     18  C   UNL     1      33.792 -20.981 -19.692  0.00  0.00    -0.013 C 
ATOM     19  C   UNL     1      32.719 -20.289 -20.255  0.00  0.00    -0.004 C 
ATOM     20  C   UNL     1      35.086 -20.767 -20.168  0.00  0.00    -0.004 C 
ATOM     21  C   UNL     1      34.232 -19.172 -21.770  0.00  0.00    +0.018 C 
ATOM     22  C   UNL     1      32.939 -19.385 -21.294  0.00  0.00    +0.001 C 
ATOM     23  C   UNL     1      35.306 -19.863 -21.208  0.00  0.00    +0.001 C 
BRANCH  21  25
ATOM     24  N   UNL     1      34.358 -18.758 -24.088  0.00  0.00    -0.244 NA
ATOM     25  C   UNL     1      34.462 -18.235 -22.848  0.00  0.00    +0.081 C 
ATOM     26  C   UNL     1      34.761 -16.910 -22.584  0.00  0.00    +0.019 C 
ATOM     27  C   UNL     1      34.969 -16.063 -23.667  0.00  0.00    +0.003 C 
ATOM     28  C   UNL     1      34.567 -17.906 -25.117  0.00  0.00    +0.099 C 
ATOM     29  C   UNL     1      34.872 -16.563 -24.962  0.00  0.00    +0.021 C 
ENDBRANCH  21  25
ENDBRANCH  17  18
ENDBRANCH   5  17
TORSDOF 5
ENDMDL
MODEL 7
REMARK VINA RESULT:      -9.6      3.728      6.467
REMARK  Name = 491941
REMARK  5 active torsions:
REMARK  status: ('A' for Active; 'I' for Inactive)
REMARK    1  A    between atoms: C_5  and  C_17
REMARK    2  A    between atoms: C_7  and  S_11
REMARK    3  A    between atoms: S_11  and  N_14
REMARK    4  A    between atoms: C_17  and  C_18
REMARK    5  A    between atoms: C_21  and  C_25
REMARK                            x       y       z     vdW  Elec       q    Type
REMARK                         _______ _______ _______ _____ _____    ______ ____
ROOT
ATOM      1  S   UNL     1      33.676 -21.269 -20.181  0.00  0.00    -0.035 S 
ATOM      2  O   UNL     1      37.010 -18.913 -21.827  0.00  0.00    -0.274 OA
ATOM      3  N   UNL     1      34.716 -19.177 -21.371  0.00  0.00    -0.227 N 
ATOM      4  N   UNL     1      35.961 -20.214 -19.588  0.00  0.00    -0.386 NA
ATOM      5  C   UNL     1      35.830 -18.624 -22.049  0.00  0.00    +0.236 C 
ATOM      6  C   UNL     1      34.931 -20.147 -20.346  0.00  0.00    +0.217 C 
ATOM      7  C   UNL     1      34.587 -21.984 -18.917  0.00  0.00    +0.247 C 
ATOM      8  C   UNL     1      35.766 -21.290 -18.745  0.00  0.00    +0.123 C 
ATOM      9  C   UNL     1      33.339 -18.773 -21.701  0.00  0.00    +0.123 C 
ATOM     10  C   UNL     1      36.815 -21.600 -17.753  0.00  0.00    +0.064 C 
ENDROOT
BRANCH   7  11
ATOM     11  S   UNL     1      33.850 -23.378 -18.150  0.00  0.00    +0.052 S 
ATOM     12  O   UNL     1      33.720 -24.392 -19.192  0.00  0.00    -0.157 OA
ATOM     13  O   UNL     1      34.658 -23.636 -16.964  0.00  0.00    -0.157 OA
BRANCH  11  14
ATOM     14  N   UNL     1      32.263 -22.955 -17.637  0.00  0.00    -0.206 NA
ATOM     15  H   UNL     1      32.232 -22.927 -16.619  0.00  0.00    +0.144 HD
ATOM     16  H   UNL     1      31.599 -23.648 -17.981  0.00  0.00    +0.144 HD
ENDBRANCH  11  14
ENDBRANCH   7  11
BRANCH   5  17
ATOM     17  C   UNL     1      35.513 -17.621 -23.166  0.00  0.00    +0.112 C 
BRANCH  17  18
ATOM     18  C   UNL     1      34.730 -16.436 -22.714  0.00  0.00    -0.013 C 
ATOM     19  C   UNL     1      33.872 -15.786 -23.602  0.00  0.00    -0.004 C 
ATOM     20  C   UNL     1      34.855 -15.977 -21.402  0.00  0.00    -0.004 C 
ATOM     21  C   UNL     1      33.265 -14.218 -21.868  0.00  0.00    +0.018 C 
ATOM     22  C   UNL     1      33.140 -14.678 -23.179  0.00  0.00    +0.001 C 
ATOM     23  C   UNL     1      34.123 -14.867 -20.980  0.00  0.00    +0.001 C 
BRANCH  21  25
ATOM     24  N   UNL     1      32.049 -12.275 -22.422  0.00  0.00    -0.244 NA
ATOM     25  C   UNL     1      32.506 -13.067 -21.429  0.00  0.00    +0.081 C 
ATOM     26  C   UNL     1      32.286 -12.835 -20.082  0.00  0.00    +0.019 C 
ATOM     27  C   UNL     1      31.547 -11.710 -19.731  0.00  0.00    +0.003 C 
ATOM     28  C   UNL     1      31.335 -11.191 -22.043  0.00  0.00    +0.099 C 
ATOM     29  C   UNL     1      31.058 -10.868 -20.724  0.00  0.00    +0.021 C 
ENDBRANCH  21  25
ENDBRANCH  17  18
ENDBRANCH   5  17
TORSDOF 5
ENDMDL
MODEL 8
REMARK VINA RESULT:      -8.9      8.729     12.750
REMARK  Name = 491941
REMARK  5 active torsions:
REMARK  status: ('A' for Active; 'I' for Inactive)
REMARK    1  A    between atoms: C_5  and  C_17
REMARK    2  A    between atoms: C_7  and  S_11
REMARK    3  A    between atoms: S_11  and  N_14
REMARK    4  A    between atoms: C_17  and  C_18
REMARK    5  A    between atoms: C_21  and  C_25
REMARK                            x       y       z     vdW  Elec       q    Type
REMARK                         _______ _______ _______ _____ _____    ______ ____
ROOT
ATOM      1  S   UNL     1      31.905 -10.356 -21.746  0.00  0.00    -0.035 S 
ATOM      2  O   UNL     1      34.639 -12.101 -24.721  0.00  0.00    -0.274 OA
ATOM      3  N   UNL     1      32.501 -11.936 -23.750  0.00  0.00    -0.227 N 
ATOM      4  N   UNL     1      33.537  -9.763 -23.661  0.00  0.00    -0.386 NA
ATOM      5  C   UNL     1      33.518 -12.571 -24.505  0.00  0.00    +0.236 C 
ATOM      6  C   UNL     1      32.752 -10.652 -23.179  0.00  0.00    +0.217 C 
ATOM      7  C   UNL     1      32.659  -8.817 -21.710  0.00  0.00    +0.247 C 
ATOM      8  C   UNL     1      33.487  -8.681 -22.804  0.00  0.00    +0.123 C 
ATOM      9  C   UNL     1      31.189 -12.572 -23.543  0.00  0.00    +0.123 C 
ATOM     10  C   UNL     1      34.308  -7.496 -23.125  0.00  0.00    +0.064 C 
ENDROOT
BRANCH   7  11
ATOM     11  S   UNL     1      32.227  -7.796 -20.352  0.00  0.00    +0.052 S 
ATOM     12  O   UNL     1      31.408  -6.718 -20.899  0.00  0.00    -0.157 OA
ATOM     13  O   UNL     1      31.681  -8.702 -19.348  0.00  0.00    -0.157 OA
BRANCH  11  14
ATOM     14  N   UNL     1      33.658  -7.087 -19.714  0.00  0.00    -0.206 NA
ATOM     15  H   UNL     1      34.268  -6.804 -20.481  0.00  0.00    +0.144 HD
ATOM     16  H   UNL     1      34.142  -7.766 -19.127  0.00  0.00    +0.144 HD
ENDBRANCH  11  14
ENDBRANCH   7  11
BRANCH   5  17
ATOM     17  C   UNL     1      33.186 -13.967 -25.049  0.00  0.00    +0.112 C 
BRANCH  17  18
ATOM     18  C   UNL     1      33.687 -15.085 -24.200  0.00  0.00    -0.013 C 
ATOM     19  C   UNL     1      33.600 -14.999 -22.810  0.00  0.00    -0.004 C 
ATOM     20  C   UNL     1      34.242 -16.218 -24.795  0.00  0.00    -0.004 C 
ATOM     21  C   UNL     1      34.625 -17.177 -22.611  0.00  0.00    +0.018 C 
ATOM     22  C   UNL     1      34.068 -16.045 -22.015  0.00  0.00    +0.001 C 
ATOM     23  C   UNL     1      34.712 -17.264 -24.000  0.00  0.00    +0.001 C 
BRANCH  21  25
ATOM     24  N   UNL     1      36.452 -18.304 -21.634  0.00  0.00    -0.244 NA
ATOM     25  C   UNL     1      35.111 -18.263 -21.787  0.00  0.00    +0.081 C 
ATOM     26  C   UNL     1      34.234 -19.169 -21.218  0.00  0.00    +0.019 C 
ATOM     27  C   UNL     1      34.770 -20.188 -20.437  0.00  0.00    +0.003 C 
ATOM     28  C   UNL     1      36.937 -19.308 -20.870  0.00  0.00    +0.099 C 
ATOM     29  C   UNL     1      36.147 -20.265 -20.255  0.00  0.00    +0.021 C 
ENDBRANCH  21  25
ENDBRANCH  17  18
ENDBRANCH   5  17
TORSDOF 5
ENDMDL
MODEL 9
REMARK VINA RESULT:      -8.8      7.766     11.797
REMARK  Name = 491941
REMARK  5 active torsions:
REMARK  status: ('A' for Active; 'I' for Inactive)
REMARK    1  A    between atoms: C_5  and  C_17
REMARK    2  A    between atoms: C_7  and  S_11
REMARK    3  A    between atoms: S_11  and  N_14
REMARK    4  A    between atoms: C_17  and  C_18
REMARK    5  A    between atoms: C_21  and  C_25
REMARK                            x       y       z     vdW  Elec       q    Type
REMARK                         _______ _______ _______ _____ _____    ______ ____
ROOT
ATOM      1  S   UNL     1      33.952 -16.523 -21.384  0.00  0.00    -0.035 S 
ATOM      2  O   UNL     1      32.049 -13.317 -23.724  0.00  0.00    -0.274 OA
ATOM      3  N   UNL     1      33.139 -14.062 -21.776  0.00  0.00    -0.227 N 
ATOM      4  N   UNL     1      34.034 -15.282 -23.651  0.00  0.00    -0.386 NA
ATOM      5  C   UNL     1      32.321 -13.183 -22.528  0.00  0.00    +0.236 C 
ATOM      6  C   UNL     1      33.711 -15.204 -22.414  0.00  0.00    +0.217 C 
ATOM      7  C   UNL     1      34.583 -17.365 -22.737  0.00  0.00    +0.247 C 
ATOM      8  C   UNL     1      34.547 -16.549 -23.848  0.00  0.00    +0.123 C 
ATOM      9  C   UNL     1      33.412 -13.823 -20.349  0.00  0.00    +0.123 C 
ATOM     10  C   UNL     1      35.006 -16.914 -25.204  0.00  0.00    +0.064 C 
ENDROOT
BRANCH   7  11
ATOM     11  S   UNL     1      35.114 -19.006 -22.425  0.00  0.00    +0.052 S 
ATOM     12  O   UNL     1      35.020 -19.712 -23.700  0.00  0.00    -0.157 OA
ATOM     13  O   UNL     1      36.399 -18.871 -21.749  0.00  0.00    -0.157 OA
BRANCH  11  14
ATOM     14  N   UNL     1      34.009 -19.750 -21.337  0.00  0.00    -0.206 NA
ATOM     15  H   UNL     1      34.459 -20.547 -20.889  0.00  0.00    +0.144 HD
ATOM     16  H   UNL     1      33.187 -20.067 -21.851  0.00  0.00    +0.144 HD
ENDBRANCH  11  14
ENDBRANCH   7  11
BRANCH   5  17
ATOM     17  C   UNL     1      31.710 -12.004 -21.760  0.00  0.00    +0.112 C 
BRANCH  17  18
ATOM     18  C   UNL     1      31.872 -10.687 -22.438  0.00  0.00    -0.013 C 
ATOM     19  C   UNL     1      33.056 -10.393 -23.116  0.00  0.00    -0.004 C 
ATOM     20  C   UNL     1      30.841  -9.749 -22.397  0.00  0.00    -0.004 C 
ATOM     21  C   UNL     1      32.177  -8.222 -23.709  0.00  0.00    +0.018 C 
ATOM     22  C   UNL     1      33.208  -9.160 -23.751  0.00  0.00    +0.001 C 
ATOM     23  C   UNL     1      30.993  -8.516 -23.032  0.00  0.00    +0.001 C 
BRANCH  21  25
ATOM     24  N   UNL     1      31.241  -6.151 -24.336  0.00  0.00    -0.244 NA
ATOM     25  C   UNL     1      32.334  -6.944 -24.368  0.00  0.00    +0.081 C 
ATOM     26  C   UNL     1      33.530  -6.599 -24.971  0.00  0.00    +0.019 C 
ATOM     27  C   UNL     1      33.611  -5.354 -25.585  0.00  0.00    +0.003 C 
ATOM     28  C   UNL     1      31.357  -4.948 -24.944  0.00  0.00    +0.099 C 
ATOM     29  C   UNL     1      32.508  -4.507 -25.576  0.00  0.00    +0.021 C 
ENDBRANCH  21  25
ENDBRANCH  17  18
ENDBRANCH   5  17
TORSDOF 5
ENDMDL
