MODEL 1
REMARK VINA RESULT:      -6.7      0.000      0.000
REMARK  Name = 448810
REMARK  2 active torsions:
REMARK  status: ('A' for Active; 'I' for Inactive)
REMARK    1  A    between atoms: C_5  and  N_15
REMARK    2  A    between atoms: C_6  and  N_14
REMARK                            x       y       z     vdW  Elec       q    Type
REMARK                         _______ _______ _______ _____ _____    ______ ____
ROOT
ATOM      1  O   UNL     1      37.290 -26.386 -11.852  0.00  0.00    -0.207 OA
ATOM      2  N   UNL     1      35.827 -23.598 -14.279  0.00  0.00    -0.262 N 
ATOM      3  N   UNL     1      35.556 -24.968 -12.367  0.00  0.00    -0.301 NA
ATOM      4  N   UNL     1      33.890 -23.455 -13.046  0.00  0.00    -0.320 N 
ATOM      5  C   UNL     1      37.088 -24.079 -14.600  0.00  0.00    +0.136 C 
ATOM      6  C   UNL     1      37.565 -25.023 -13.764  0.00  0.00    +0.263 C 
ATOM      7  C   UNL     1      35.115 -24.053 -13.192  0.00  0.00    +0.249 C 
ATOM      8  C   UNL     1      36.806 -25.525 -12.581  0.00  0.00    +0.233 C 
ATOM      9  H   UNL     1      35.425 -22.907 -14.851  0.00  0.00    +0.157 HD
ATOM     10  H   UNL     1      33.597 -22.769 -13.691  0.00  0.00    +0.146 HD
ATOM     11  H   UNL     1      33.303 -23.710 -12.299  0.00  0.00    +0.146 HD
ENDROOT
BRANCH   6  14
ATOM     12  O   UNL     1      38.901 -26.634 -14.653  0.00  0.00    -0.125 OA
ATOM     13  O   UNL     1      39.830 -24.955 -13.574  0.00  0.00    -0.125 OA
ATOM     14  N   UNL     1      38.854 -25.575 -14.014  0.00  0.00    +0.072 N 
ENDBRANCH   6  14
BRANCH   5  15
ATOM     15  N   UNL     1      37.747 -23.586 -15.696  0.00  0.00    -0.318 N 
ATOM     16  C   UNL     1      37.381 -22.359 -16.347  0.00  0.00    +0.110 C 
ATOM     17  H   UNL     1      38.507 -24.098 -16.056  0.00  0.00    +0.148 HD
ENDBRANCH   5  15
TORSDOF 2
ENDMDL
MODEL 2
REMARK VINA RESULT:      -6.7      2.194      3.776
REMARK  Name = 448810
REMARK  2 active torsions:
REMARK  status: ('A' for Active; 'I' for Inactive)
REMARK    1  A    between atoms: C_5  and  N_15
REMARK    2  A    between atoms: C_6  and  N_14
REMARK                            x       y       z     vdW  Elec       q    Type
REMARK                         _______ _______ _______ _____ _____    ______ ____
ROOT
ATOM      1  O   UNL     1      38.162 -24.332 -11.204  0.00  0.00    -0.207 OA
ATOM      2  N   UNL     1      37.285 -25.083 -15.008  0.00  0.00    -0.262 N 
ATOM      3  N   UNL     1      38.923 -24.725 -13.337  0.00  0.00    -0.301 NA
ATOM      4  N   UNL     1      39.514 -25.145 -15.574  0.00  0.00    -0.320 N 
ATOM      5  C   UNL     1      36.201 -24.940 -14.154  0.00  0.00    +0.136 C 
ATOM      6  C   UNL     1      36.521 -24.686 -12.869  0.00  0.00    +0.263 C 
ATOM      7  C   UNL     1      38.588 -24.972 -14.577  0.00  0.00    +0.249 C 
ATOM      8  C   UNL     1      37.929 -24.563 -12.387  0.00  0.00    +0.233 C 
ATOM      9  H   UNL     1      37.115 -25.270 -15.958  0.00  0.00    +0.157 HD
ATOM     10  H   UNL     1      39.217 -25.329 -16.495  0.00  0.00    +0.146 HD
ATOM     11  H   UNL     1      40.475 -25.085 -15.369  0.00  0.00    +0.146 HD
ENDROOT
BRANCH   6  14
ATOM     12  O   UNL     1      34.675 -23.596 -12.109  0.00  0.00    -0.125 OA
ATOM     13  O   UNL     1      35.438 -25.322 -10.973  0.00  0.00    -0.125 OA
ATOM     14  N   UNL     1      35.473 -24.524 -11.918  0.00  0.00    +0.072 N 
ENDBRANCH   6  14
BRANCH   5  15
ATOM     15  N   UNL     1      34.926 -25.062 -14.643  0.00  0.00    -0.318 N 
ATOM     16  C   UNL     1      34.293 -24.052 -15.445  0.00  0.00    +0.110 C 
ATOM     17  H   UNL     1      34.420 -25.880 -14.434  0.00  0.00    +0.148 HD
ENDBRANCH   5  15
TORSDOF 2
ENDMDL
MODEL 3
REMARK VINA RESULT:      -6.7      2.229      3.707
REMARK  Name = 448810
REMARK  2 active torsions:
REMARK  status: ('A' for Active; 'I' for Inactive)
REMARK    1  A    between atoms: C_5  and  N_15
REMARK    2  A    between atoms: C_6  and  N_14
REMARK                            x       y       z     vdW  Elec       q    Type
REMARK                         _______ _______ _______ _____ _____    ______ ____
ROOT
ATOM      1  O   UNL     1      38.329 -25.913 -11.575  0.00  0.00    -0.207 OA
ATOM      2  N   UNL     1      35.554 -25.384 -14.372  0.00  0.00    -0.262 N 
ATOM      3  N   UNL     1      37.499 -26.514 -13.633  0.00  0.00    -0.301 NA
ATOM      4  N   UNL     1      36.505 -26.997 -15.708  0.00  0.00    -0.320 N 
ATOM      5  C   UNL     1      35.438 -24.583 -13.245  0.00  0.00    +0.136 C 
ATOM      6  C   UNL     1      36.389 -24.779 -12.310  0.00  0.00    +0.263 C 
ATOM      7  C   UNL     1      36.565 -26.306 -14.525  0.00  0.00    +0.249 C 
ATOM      8  C   UNL     1      37.490 -25.776 -12.461  0.00  0.00    +0.233 C 
ATOM      9  H   UNL     1      34.889 -25.288 -15.090  0.00  0.00    +0.157 HD
ATOM     10  H   UNL     1      35.784 -26.808 -16.352  0.00  0.00    +0.146 HD
ATOM     11  H   UNL     1      37.183 -27.680 -15.914  0.00  0.00    +0.146 HD
ENDROOT
BRANCH   6  14
ATOM     12  O   UNL     1      37.069 -22.994 -11.075  0.00  0.00    -0.125 OA
ATOM     13  O   UNL     1      35.603 -24.391 -10.211  0.00  0.00    -0.125 OA
ATOM     14  N   UNL     1      36.351 -24.002 -11.117  0.00  0.00    +0.072 N 
ENDBRANCH   6  14
BRANCH   5  15
ATOM     15  N   UNL     1      34.409 -23.682 -13.151  0.00  0.00    -0.318 N 
ATOM     16  C   UNL     1      33.089 -23.943 -13.653  0.00  0.00    +0.110 C 
ATOM     17  H   UNL     1      34.583 -22.814 -12.720  0.00  0.00    +0.148 HD
ENDBRANCH   5  15
TORSDOF 2
ENDMDL
MODEL 4
REMARK VINA RESULT:      -6.6      2.589      4.155
REMARK  Name = 448810
REMARK  2 active torsions:
REMARK  status: ('A' for Active; 'I' for Inactive)
REMARK    1  A    between atoms: C_5  and  N_15
REMARK    2  A    between atoms: C_6  and  N_14
REMARK                            x       y       z     vdW  Elec       q    Type
REMARK                         _______ _______ _______ _____ _____    ______ ____
ROOT
ATOM      1  O   UNL     1      36.317 -27.032 -15.896  0.00  0.00    -0.207 OA
ATOM      2  N   UNL     1      38.787 -24.879 -13.646  0.00  0.00    -0.262 N 
ATOM      3  N   UNL     1      38.403 -26.814 -14.956  0.00  0.00    -0.301 NA
ATOM      4  N   UNL     1      40.476 -26.418 -13.919  0.00  0.00    -0.320 N 
ATOM      5  C   UNL     1      37.515 -24.355 -13.820  0.00  0.00    +0.136 C 
ATOM      6  C   UNL     1      36.694 -25.101 -14.586  0.00  0.00    +0.263 C 
ATOM      7  C   UNL     1      39.181 -26.072 -14.210  0.00  0.00    +0.249 C 
ATOM      8  C   UNL     1      37.107 -26.395 -15.206  0.00  0.00    +0.233 C 
ATOM      9  H   UNL     1      39.432 -24.380 -13.097  0.00  0.00    +0.157 HD
ATOM     10  H   UNL     1      41.027 -25.830 -13.353  0.00  0.00    +0.146 HD
ATOM     11  H   UNL     1      40.854 -27.254 -14.275  0.00  0.00    +0.146 HD
ENDROOT
BRANCH   6  14
ATOM     12  O   UNL     1      34.585 -24.655 -13.862  0.00  0.00    -0.125 OA
ATOM     13  O   UNL     1      35.094 -24.262 -15.967  0.00  0.00    -0.125 OA
ATOM     14  N   UNL     1      35.366 -24.641 -14.822  0.00  0.00    +0.072 N 
ENDBRANCH   6  14
BRANCH   5  15
ATOM     15  N   UNL     1      37.182 -23.162 -13.232  0.00  0.00    -0.318 N 
ATOM     16  C   UNL     1      37.103 -22.983 -11.809  0.00  0.00    +0.110 C 
ATOM     17  H   UNL     1      36.988 -22.391 -13.812  0.00  0.00    +0.148 HD
ENDBRANCH   5  15
TORSDOF 2
ENDMDL
MODEL 5
REMARK VINA RESULT:      -6.6      2.065      2.878
REMARK  Name = 448810
REMARK  2 active torsions:
REMARK  status: ('A' for Active; 'I' for Inactive)
REMARK    1  A    between atoms: C_5  and  N_15
REMARK    2  A    between atoms: C_6  and  N_14
REMARK                            x       y       z     vdW  Elec       q    Type
REMARK                         _______ _______ _______ _____ _____    ______ ____
ROOT
ATOM      1  O   UNL     1      37.392 -26.348 -11.583  0.00  0.00    -0.207 OA
ATOM      2  N   UNL     1      37.076 -25.127 -15.353  0.00  0.00    -0.262 N 
ATOM      3  N   UNL     1      37.102 -26.908 -13.793  0.00  0.00    -0.301 NA
ATOM      4  N   UNL     1      36.814 -27.288 -16.096  0.00  0.00    -0.320 N 
ATOM      5  C   UNL     1      37.266 -24.130 -14.408  0.00  0.00    +0.136 C 
ATOM      6  C   UNL     1      37.370 -24.565 -13.136  0.00  0.00    +0.263 C 
ATOM      7  C   UNL     1      37.003 -26.460 -15.019  0.00  0.00    +0.249 C 
ATOM      8  C   UNL     1      37.292 -26.008 -12.758  0.00  0.00    +0.233 C 
ATOM      9  H   UNL     1      36.992 -24.871 -16.299  0.00  0.00    +0.157 HD
ATOM     10  H   UNL     1      36.744 -26.908 -17.002  0.00  0.00    +0.146 HD
ATOM     11  H   UNL     1      36.748 -28.261 -15.963  0.00  0.00    +0.146 HD
ENDROOT
BRANCH   6  14
ATOM     12  O   UNL     1      38.733 -23.374 -11.760  0.00  0.00    -0.125 OA
ATOM     13  O   UNL     1      36.555 -23.093 -11.607  0.00  0.00    -0.125 OA
ATOM     14  N   UNL     1      37.566 -23.612 -12.096  0.00  0.00    +0.072 N 
ENDBRANCH   6  14
BRANCH   5  15
ATOM     15  N   UNL     1      37.330 -22.818 -14.803  0.00  0.00    -0.318 N 
ATOM     16  C   UNL     1      37.428 -22.417 -16.179  0.00  0.00    +0.110 C 
ATOM     17  H   UNL     1      37.310 -22.118 -14.112  0.00  0.00    +0.148 HD
ENDBRANCH   5  15
TORSDOF 2
ENDMDL
MODEL 6
REMARK VINA RESULT:      -6.5      1.309      3.507
REMARK  Name = 448810
REMARK  2 active torsions:
REMARK  status: ('A' for Active; 'I' for Inactive)
REMARK    1  A    between atoms: C_5  and  N_15
REMARK    2  A    between atoms: C_6  and  N_14
REMARK                            x       y       z     vdW  Elec       q    Type
REMARK                         _______ _______ _______ _____ _____    ______ ____
ROOT
ATOM      1  O   UNL     1      39.385 -24.932 -13.533  0.00  0.00    -0.207 OA
ATOM      2  N   UNL     1      36.163 -23.061 -14.918  0.00  0.00    -0.262 N 
ATOM      3  N   UNL     1      38.421 -23.705 -15.220  0.00  0.00    -0.301 NA
ATOM      4  N   UNL     1      37.269 -22.450 -16.841  0.00  0.00    -0.320 N 
ATOM      5  C   UNL     1      36.027 -23.660 -13.675  0.00  0.00    +0.136 C 
ATOM      6  C   UNL     1      37.131 -24.289 -13.224  0.00  0.00    +0.263 C 
ATOM      7  C   UNL     1      37.337 -23.102 -15.636  0.00  0.00    +0.249 C 
ATOM      8  C   UNL     1      38.410 -24.343 -13.992  0.00  0.00    +0.233 C 
ATOM      9  H   UNL     1      35.391 -22.587 -15.301  0.00  0.00    +0.157 HD
ATOM     10  H   UNL     1      36.432 -22.009 -17.115  0.00  0.00    +0.146 HD
ATOM     11  H   UNL     1      38.057 -22.421 -17.431  0.00  0.00    +0.146 HD
ENDROOT
BRANCH   6  14
ATOM     12  O   UNL     1      37.365 -24.250 -10.962  0.00  0.00    -0.125 OA
ATOM     13  O   UNL     1      36.769 -26.131 -11.940  0.00  0.00    -0.125 OA
ATOM     14  N   UNL     1      37.085 -24.934 -11.955  0.00  0.00    +0.072 N 
ENDBRANCH   6  14
BRANCH   5  15
ATOM     15  N   UNL     1      34.831 -23.584 -13.008  0.00  0.00    -0.318 N 
ATOM     16  C   UNL     1      33.610 -24.142 -13.519  0.00  0.00    +0.110 C 
ATOM     17  H   UNL     1      34.808 -23.124 -12.138  0.00  0.00    +0.148 HD
ENDBRANCH   5  15
TORSDOF 2
ENDMDL
MODEL 7
REMARK VINA RESULT:      -6.5      1.783      1.943
REMARK  Name = 448810
REMARK  2 active torsions:
REMARK  status: ('A' for Active; 'I' for Inactive)
REMARK    1  A    between atoms: C_5  and  N_15
REMARK    2  A    between atoms: C_6  and  N_14
REMARK                            x       y       z     vdW  Elec       q    Type
REMARK                         _______ _______ _______ _____ _____    ______ ____
ROOT
ATOM      1  O   UNL     1      36.277 -24.341 -10.413  0.00  0.00    -0.207 OA
ATOM      2  N   UNL     1      35.151 -24.026 -14.212  0.00  0.00    -0.262 N 
ATOM      3  N   UNL     1      34.590 -24.514 -11.965  0.00  0.00    -0.301 NA
ATOM      4  N   UNL     1      32.995 -24.634 -13.689  0.00  0.00    -0.320 N 
ATOM      5  C   UNL     1      36.484 -23.744 -13.950  0.00  0.00    +0.136 C 
ATOM      6  C   UNL     1      36.844 -23.856 -12.656  0.00  0.00    +0.263 C 
ATOM      7  C   UNL     1      34.265 -24.397 -13.227  0.00  0.00    +0.249 C 
ATOM      8  C   UNL     1      35.894 -24.256 -11.576  0.00  0.00    +0.233 C 
ATOM      9  H   UNL     1      34.828 -23.961 -15.139  0.00  0.00    +0.157 HD
ATOM     10  H   UNL     1      32.794 -24.534 -14.648  0.00  0.00    +0.146 HD
ATOM     11  H   UNL     1      32.286 -24.905 -13.063  0.00  0.00    +0.146 HD
ENDROOT
BRANCH   6  14
ATOM     12  O   UNL     1      39.054 -24.393 -12.665  0.00  0.00    -0.125 OA
ATOM     13  O   UNL     1      38.406 -22.561 -11.630  0.00  0.00    -0.125 OA
ATOM     14  N   UNL     1      38.194 -23.585 -12.292  0.00  0.00    +0.072 N 
ENDBRANCH   6  14
BRANCH   5  15
ATOM     15  N   UNL     1      37.318 -23.380 -14.976  0.00  0.00    -0.318 N 
ATOM     16  C   UNL     1      36.937 -22.458 -16.009  0.00  0.00    +0.110 C 
ATOM     17  H   UNL     1      38.222 -23.769 -15.006  0.00  0.00    +0.148 HD
ENDBRANCH   5  15
TORSDOF 2
ENDMDL
MODEL 8
REMARK VINA RESULT:      -6.4      6.613      8.382
REMARK  Name = 448810
REMARK  2 active torsions:
REMARK  status: ('A' for Active; 'I' for Inactive)
REMARK    1  A    between atoms: C_5  and  N_15
REMARK    2  A    between atoms: C_6  and  N_14
REMARK                            x       y       z     vdW  Elec       q    Type
REMARK                         _______ _______ _______ _____ _____    ______ ____
ROOT
ATOM      1  O   UNL     1      32.292 -20.576 -20.818  0.00  0.00    -0.207 OA
ATOM      2  N   UNL     1      36.176 -19.996 -20.197  0.00  0.00    -0.262 N 
ATOM      3  N   UNL     1      34.165 -19.312 -21.242  0.00  0.00    -0.301 NA
ATOM      4  N   UNL     1      36.179 -18.140 -21.556  0.00  0.00    -0.320 N 
ATOM      5  C   UNL     1      35.616 -21.088 -19.550  0.00  0.00    +0.136 C 
ATOM      6  C   UNL     1      34.299 -21.266 -19.774  0.00  0.00    +0.263 C 
ATOM      7  C   UNL     1      35.443 -19.160 -21.008  0.00  0.00    +0.249 C 
ATOM      8  C   UNL     1      33.491 -20.367 -20.650  0.00  0.00    +0.233 C 
ATOM      9  H   UNL     1      37.134 -19.814 -20.072  0.00  0.00    +0.157 HD
ATOM     10  H   UNL     1      37.140 -18.063 -21.353  0.00  0.00    +0.146 HD
ATOM     11  H   UNL     1      35.747 -17.486 -22.151  0.00  0.00    +0.146 HD
ENDROOT
BRANCH   6  14
ATOM     12  O   UNL     1      32.744 -22.095 -18.336  0.00  0.00    -0.125 OA
ATOM     13  O   UNL     1      34.003 -23.501 -19.471  0.00  0.00    -0.125 OA
ATOM     14  N   UNL     1      33.637 -22.362 -19.151  0.00  0.00    +0.072 N 
ENDBRANCH   6  14
BRANCH   5  15
ATOM     15  N   UNL     1      36.399 -21.885 -18.755  0.00  0.00    -0.318 N 
ATOM     16  C   UNL     1      36.843 -21.494 -17.446  0.00  0.00    +0.110 C 
ATOM     17  H   UNL     1      36.670 -22.767 -19.097  0.00  0.00    +0.148 HD
ENDBRANCH   5  15
TORSDOF 2
ENDMDL
MODEL 9
REMARK VINA RESULT:      -6.4      1.809      3.495
REMARK  Name = 448810
REMARK  2 active torsions:
REMARK  status: ('A' for Active; 'I' for Inactive)
REMARK    1  A    between atoms: C_5  and  N_15
REMARK    2  A    between atoms: C_6  and  N_14
REMARK                            x       y       z     vdW  Elec       q    Type
REMARK                         _______ _______ _______ _____ _____    ______ ____
ROOT
ATOM      1  O   UNL     1      36.736 -26.076 -11.802  0.00  0.00    -0.207 OA
ATOM      2  N   UNL     1      38.677 -24.921 -15.073  0.00  0.00    -0.262 N 
ATOM      3  N   UNL     1      38.644 -26.195 -13.079  0.00  0.00    -0.301 NA
ATOM      4  N   UNL     1      40.508 -26.194 -14.512  0.00  0.00    -0.320 N 
ATOM      5  C   UNL     1      37.404 -24.394 -14.907  0.00  0.00    +0.136 C 
ATOM      6  C   UNL     1      36.764 -24.799 -13.791  0.00  0.00    +0.263 C 
ATOM      7  C   UNL     1      39.244 -25.788 -14.168  0.00  0.00    +0.249 C 
ATOM      8  C   UNL     1      37.366 -25.740 -12.801  0.00  0.00    +0.233 C 
ATOM      9  H   UNL     1      39.194 -24.663 -15.869  0.00  0.00    +0.157 HD
ATOM     10  H   UNL     1      40.922 -25.863 -15.342  0.00  0.00    +0.146 HD
ATOM     11  H   UNL     1      41.001 -26.816 -13.930  0.00  0.00    +0.146 HD
ENDROOT
BRANCH   6  14
ATOM     12  O   UNL     1      34.545 -24.709 -14.280  0.00  0.00    -0.125 OA
ATOM     13  O   UNL     1      35.313 -23.525 -12.590  0.00  0.00    -0.125 OA
ATOM     14  N   UNL     1      35.451 -24.310 -13.536  0.00  0.00    +0.072 N 
ENDBRANCH   6  14
BRANCH   5  15
ATOM     15  N   UNL     1      36.894 -23.534 -15.844  0.00  0.00    -0.318 N 
ATOM     16  C   UNL     1      37.471 -22.250 -16.129  0.00  0.00    +0.110 C 
ATOM     17  H   UNL     1      36.093 -23.808 -16.346  0.00  0.00    +0.148 HD
ENDBRANCH   5  15
TORSDOF 2
ENDMDL
