MODEL 1
REMARK VINA RESULT:      -7.8      0.000      0.000
REMARK  Name = 16122585
REMARK  11 active torsions:
REMARK  status: ('A' for Active; 'I' for Inactive)
REMARK    1  A    between atoms: C_1  and  C_4
REMARK    2  A    between atoms: C_1  and  C_14
REMARK    3  A    between atoms: N_3  and  C_8
REMARK    4  A    between atoms: C_14  and  C_15
REMARK    5  A    between atoms: C_15  and  C_16
REMARK    6  A    between atoms: C_16  and  C_17
REMARK    7  A    between atoms: C_17  and  C_18
REMARK    8  A    between atoms: C_18  and  C_19
REMARK    9  A    between atoms: C_19  and  C_20
REMARK   10  A    between atoms: C_20  and  C_21
REMARK   11  A    between atoms: C_21  and  C_22
REMARK                            x       y       z     vdW  Elec       q    Type
REMARK                         _______ _______ _______ _____ _____    ______ ____
ROOT
ATOM      1  C   UNL     1      34.572 -21.469 -19.815  0.00  0.00    +0.149 C 
ENDROOT
BRANCH   1   4
ATOM      2  O   UNL     1      34.013 -23.804 -19.637  0.00  0.00    -0.275 OA
ATOM      3  N   UNL     1      33.509 -22.385 -17.865  0.00  0.00    -0.298 N 
ATOM      4  C   UNL     1      34.004 -22.688 -19.123  0.00  0.00    +0.230 C 
ATOM      5  H   UNL     1      33.554 -21.452 -17.556  0.00  0.00    +0.150 HD
BRANCH   3   8
ATOM      6  O   UNL     1      30.719 -22.359 -17.229  0.00  0.00    -0.273 OA
ATOM      7  N   UNL     1      31.435 -23.299 -15.208  0.00  0.00    -0.303 N 
ATOM      8  C   UNL     1      32.935 -23.363 -16.994  0.00  0.00    +0.150 C 
ATOM      9  C   UNL     1      33.692 -23.536 -15.679  0.00  0.00    +0.050 C 
ATOM     10  C   UNL     1      32.609 -23.962 -14.708  0.00  0.00    +0.092 C 
ATOM     11  C   UNL     1      31.562 -22.912 -16.541  0.00  0.00    +0.240 C 
ATOM     12  H   UNL     1      30.629 -23.135 -14.667  0.00  0.00    +0.149 HD
ENDBRANCH   3   8
ENDBRANCH   1   4
BRANCH   1  14
ATOM     13  O   UNL     1      32.387 -20.506 -19.722  0.00  0.00    -0.296 OA
ATOM     14  C   UNL     1      33.535 -20.423 -20.157  0.00  0.00    +0.160 C 
BRANCH  14  15
ATOM     15  C   UNL     1      33.984 -19.288 -21.061  0.00  0.00    +0.065 C 
BRANCH  15  16
ATOM     16  C   UNL     1      35.503 -19.161 -21.163  0.00  0.00    +0.008 C 
BRANCH  16  17
ATOM     17  C   UNL     1      35.994 -18.295 -22.329  0.00  0.00    +0.000 C 
BRANCH  17  18
ATOM     18  C   UNL     1      34.938 -18.086 -23.417  0.00  0.00    +0.000 C 
BRANCH  18  19
ATOM     19  C   UNL     1      35.040 -16.686 -24.027  0.00  0.00    +0.000 C 
BRANCH  19  20
ATOM     20  C   UNL     1      33.992 -15.708 -23.488  0.00  0.00    +0.000 C 
BRANCH  20  21
ATOM     21  C   UNL     1      34.474 -14.743 -22.401  0.00  0.00    +0.000 C 
BRANCH  21  22
ATOM     22  C   UNL     1      34.184 -15.231 -20.981  0.00  0.00    +0.000 C 
ATOM     23  C   UNL     1      32.727 -15.640 -20.824  0.00  0.00    +0.000 C 
ENDBRANCH  21  22
ENDBRANCH  20  21
ENDBRANCH  19  20
ENDBRANCH  18  19
ENDBRANCH  17  18
ENDBRANCH  16  17
ENDBRANCH  15  16
ENDBRANCH  14  15
ENDBRANCH   1  14
TORSDOF 11
ENDMDL
MODEL 2
REMARK VINA RESULT:      -7.7      3.000      4.398
REMARK  Name = 16122585
REMARK  11 active torsions:
REMARK  status: ('A' for Active; 'I' for Inactive)
REMARK    1  A    between atoms: C_1  and  C_4
REMARK    2  A    between atoms: C_1  and  C_14
REMARK    3  A    between atoms: N_3  and  C_8
REMARK    4  A    between atoms: C_14  and  C_15
REMARK    5  A    between atoms: C_15  and  C_16
REMARK    6  A    between atoms: C_16  and  C_17
REMARK    7  A    between atoms: C_17  and  C_18
REMARK    8  A    between atoms: C_18  and  C_19
REMARK    9  A    between atoms: C_19  and  C_20
REMARK   10  A    between atoms: C_20  and  C_21
REMARK   11  A    between atoms: C_21  and  C_22
REMARK                            x       y       z     vdW  Elec       q    Type
REMARK                         _______ _______ _______ _____ _____    ______ ____
ROOT
ATOM      1  C   UNL     1      33.944 -23.008 -16.841  0.00  0.00    +0.149 C 
ENDROOT
BRANCH   1   4
ATOM      2  O   UNL     1      36.323 -22.742 -16.584  0.00  0.00    -0.275 OA
ATOM      3  N   UNL     1      35.237 -24.402 -15.371  0.00  0.00    -0.298 N 
ATOM      4  C   UNL     1      35.303 -23.352 -16.274  0.00  0.00    +0.230 C 
ATOM      5  H   UNL     1      34.361 -24.818 -15.200  0.00  0.00    +0.150 HD
BRANCH   3   8
ATOM      6  O   UNL     1      36.373 -26.944 -16.033  0.00  0.00    -0.273 OA
ATOM      7  N   UNL     1      36.969 -26.977 -13.769  0.00  0.00    -0.303 N 
ATOM      8  C   UNL     1      36.379 -24.910 -14.677  0.00  0.00    +0.150 C 
ATOM      9  C   UNL     1      36.246 -24.861 -13.157  0.00  0.00    +0.050 C 
ATOM     10  C   UNL     1      37.097 -26.028 -12.696  0.00  0.00    +0.092 C 
ATOM     11  C   UNL     1      36.542 -26.390 -14.958  0.00  0.00    +0.240 C 
ATOM     12  H   UNL     1      37.161 -27.937 -13.673  0.00  0.00    +0.149 HD
ENDBRANCH   3   8
ENDBRANCH   1   4
BRANCH   1  14
ATOM     13  O   UNL     1      33.722 -24.217 -18.892  0.00  0.00    -0.296 OA
ATOM     14  C   UNL     1      33.865 -23.122 -18.348  0.00  0.00    +0.160 C 
BRANCH  14  15
ATOM     15  C   UNL     1      33.981 -21.830 -19.136  0.00  0.00    +0.065 C 
BRANCH  15  16
ATOM     16  C   UNL     1      35.418 -21.481 -19.517  0.00  0.00    +0.008 C 
BRANCH  16  17
ATOM     17  C   UNL     1      35.550 -20.333 -20.526  0.00  0.00    +0.000 C 
BRANCH  17  18
ATOM     18  C   UNL     1      34.207 -19.715 -20.922  0.00  0.00    +0.000 C 
BRANCH  18  19
ATOM     19  C   UNL     1      34.386 -18.287 -21.442  0.00  0.00    +0.000 C 
BRANCH  19  20
ATOM     20  C   UNL     1      35.269 -18.200 -22.691  0.00  0.00    +0.000 C 
BRANCH  20  21
ATOM     21  C   UNL     1      34.887 -19.128 -23.847  0.00  0.00    +0.000 C 
BRANCH  21  22
ATOM     22  C   UNL     1      34.298 -18.391 -25.050  0.00  0.00    +0.000 C 
ATOM     23  C   UNL     1      34.770 -16.946 -25.099  0.00  0.00    +0.000 C 
ENDBRANCH  21  22
ENDBRANCH  20  21
ENDBRANCH  19  20
ENDBRANCH  18  19
ENDBRANCH  17  18
ENDBRANCH  16  17
ENDBRANCH  15  16
ENDBRANCH  14  15
ENDBRANCH   1  14
TORSDOF 11
ENDMDL
MODEL 3
REMARK VINA RESULT:      -7.7      0.845      1.969
REMARK  Name = 16122585
REMARK  11 active torsions:
REMARK  status: ('A' for Active; 'I' for Inactive)
REMARK    1  A    between atoms: C_1  and  C_4
REMARK    2  A    between atoms: C_1  and  C_14
REMARK    3  A    between atoms: N_3  and  C_8
REMARK    4  A    between atoms: C_14  and  C_15
REMARK    5  A    between atoms: C_15  and  C_16
REMARK    6  A    between atoms: C_16  and  C_17
REMARK    7  A    between atoms: C_17  and  C_18
REMARK    8  A    between atoms: C_18  and  C_19
REMARK    9  A    between atoms: C_19  and  C_20
REMARK   10  A    between atoms: C_20  and  C_21
REMARK   11  A    between atoms: C_21  and  C_22
REMARK                            x       y       z     vdW  Elec       q    Type
REMARK                         _______ _______ _______ _____ _____    ______ ____
ROOT
ATOM      1  C   UNL     1      34.836 -21.538 -19.679  0.00  0.00    +0.149 C 
ENDROOT
BRANCH   1   4
ATOM      2  O   UNL     1      33.942 -23.773 -19.638  0.00  0.00    -0.275 OA
ATOM      3  N   UNL     1      33.912 -22.511 -17.686  0.00  0.00    -0.298 N 
ATOM      4  C   UNL     1      34.180 -22.734 -19.027  0.00  0.00    +0.230 C 
ATOM      5  H   UNL     1      34.145 -21.635 -17.301  0.00  0.00    +0.150 HD
BRANCH   3   8
ATOM      6  O   UNL     1      31.085 -22.568 -17.242  0.00  0.00    -0.273 OA
ATOM      7  N   UNL     1      31.691 -23.441 -15.156  0.00  0.00    -0.303 N 
ATOM      8  C   UNL     1      33.312 -23.490 -16.834  0.00  0.00    +0.150 C 
ATOM      9  C   UNL     1      33.981 -23.609 -15.467  0.00  0.00    +0.050 C 
ATOM     10  C   UNL     1      32.848 -24.053 -14.563  0.00  0.00    +0.092 C 
ATOM     11  C   UNL     1      31.896 -23.077 -16.486  0.00  0.00    +0.240 C 
ATOM     12  H   UNL     1      30.845 -23.294 -14.675  0.00  0.00    +0.149 HD
ENDBRANCH   3   8
ENDBRANCH   1   4
BRANCH   1  14
ATOM     13  O   UNL     1      32.689 -20.503 -19.863  0.00  0.00    -0.296 OA
ATOM     14  C   UNL     1      33.854 -20.543 -20.257  0.00  0.00    +0.160 C 
BRANCH  14  15
ATOM     15  C   UNL     1      34.380 -19.619 -21.341  0.00  0.00    +0.065 C 
BRANCH  15  16
ATOM     16  C   UNL     1      33.950 -18.165 -21.156  0.00  0.00    +0.008 C 
BRANCH  16  17
ATOM     17  C   UNL     1      35.107 -17.159 -21.104  0.00  0.00    +0.000 C 
BRANCH  17  18
ATOM     18  C   UNL     1      34.657 -15.733 -20.778  0.00  0.00    +0.000 C 
BRANCH  18  19
ATOM     19  C   UNL     1      33.798 -15.151 -21.904  0.00  0.00    +0.000 C 
BRANCH  19  20
ATOM     20  C   UNL     1      34.529 -15.072 -23.248  0.00  0.00    +0.000 C 
BRANCH  20  21
ATOM     21  C   UNL     1      33.985 -15.976 -24.358  0.00  0.00    +0.000 C 
BRANCH  21  22
ATOM     22  C   UNL     1      34.970 -17.061 -24.796  0.00  0.00    +0.000 C 
ATOM     23  C   UNL     1      34.284 -18.413 -24.917  0.00  0.00    +0.000 C 
ENDBRANCH  21  22
ENDBRANCH  20  21
ENDBRANCH  19  20
ENDBRANCH  18  19
ENDBRANCH  17  18
ENDBRANCH  16  17
ENDBRANCH  15  16
ENDBRANCH  14  15
ENDBRANCH   1  14
TORSDOF 11
ENDMDL
MODEL 4
REMARK VINA RESULT:      -7.6      3.603      5.527
REMARK  Name = 16122585
REMARK  11 active torsions:
REMARK  status: ('A' for Active; 'I' for Inactive)
REMARK    1  A    between atoms: C_1  and  C_4
REMARK    2  A    between atoms: C_1  and  C_14
REMARK    3  A    between atoms: N_3  and  C_8
REMARK    4  A    between atoms: C_14  and  C_15
REMARK    5  A    between atoms: C_15  and  C_16
REMARK    6  A    between atoms: C_16  and  C_17
REMARK    7  A    between atoms: C_17  and  C_18
REMARK    8  A    between atoms: C_18  and  C_19
REMARK    9  A    between atoms: C_19  and  C_20
REMARK   10  A    between atoms: C_20  and  C_21
REMARK   11  A    between atoms: C_21  and  C_22
REMARK                            x       y       z     vdW  Elec       q    Type
REMARK                         _______ _______ _______ _____ _____    ______ ____
ROOT
ATOM      1  C   UNL     1      35.554 -17.214 -22.220  0.00  0.00    +0.149 C 
ENDROOT
BRANCH   1   4
ATOM      2  O   UNL     1      34.820 -19.259 -23.258  0.00  0.00    -0.275 OA
ATOM      3  N   UNL     1      35.068 -19.194 -20.947  0.00  0.00    -0.298 N 
ATOM      4  C   UNL     1      35.101 -18.657 -22.224  0.00  0.00    +0.230 C 
ATOM      5  H   UNL     1      35.314 -18.616 -20.190  0.00  0.00    +0.150 HD
BRANCH   3   8
ATOM      6  O   UNL     1      32.327 -19.937 -20.587  0.00  0.00    -0.273 OA
ATOM      7  N   UNL     1      33.227 -21.582 -19.185  0.00  0.00    -0.303 N 
ATOM      8  C   UNL     1      34.693 -20.547 -20.676  0.00  0.00    +0.150 C 
ATOM      9  C   UNL     1      35.484 -21.188 -19.539  0.00  0.00    +0.050 C 
ATOM     10  C   UNL     1      34.508 -22.195 -18.962  0.00  0.00    +0.092 C 
ATOM     11  C   UNL     1      33.265 -20.599 -20.172  0.00  0.00    +0.240 C 
ATOM     12  H   UNL     1      32.411 -21.829 -18.693  0.00  0.00    +0.149 HD
ENDBRANCH   3   8
ENDBRANCH   1   4
BRANCH   1  14
ATOM     13  O   UNL     1      35.118 -16.294 -20.058  0.00  0.00    -0.296 OA
ATOM     14  C   UNL     1      34.798 -16.340 -21.245  0.00  0.00    +0.160 C 
BRANCH  14  15
ATOM     15  C   UNL     1      33.633 -15.544 -21.806  0.00  0.00    +0.065 C 
BRANCH  15  16
ATOM     16  C   UNL     1      32.656 -15.065 -20.734  0.00  0.00    +0.008 C 
BRANCH  16  17
ATOM     17  C   UNL     1      32.566 -13.541 -20.587  0.00  0.00    +0.000 C 
BRANCH  17  18
ATOM     18  C   UNL     1      31.886 -12.856 -21.774  0.00  0.00    +0.000 C 
BRANCH  18  19
ATOM     19  C   UNL     1      31.210 -11.550 -21.349  0.00  0.00    +0.000 C 
BRANCH  19  20
ATOM     20  C   UNL     1      31.305 -11.277 -19.845  0.00  0.00    +0.000 C 
BRANCH  20  21
ATOM     21  C   UNL     1      31.951  -9.947 -19.445  0.00  0.00    +0.000 C 
BRANCH  21  22
ATOM     22  C   UNL     1      32.163  -8.996 -20.623  0.00  0.00    +0.000 C 
ATOM     23  C   UNL     1      32.301  -7.556 -20.153  0.00  0.00    +0.000 C 
ENDBRANCH  21  22
ENDBRANCH  20  21
ENDBRANCH  19  20
ENDBRANCH  18  19
ENDBRANCH  17  18
ENDBRANCH  16  17
ENDBRANCH  15  16
ENDBRANCH  14  15
ENDBRANCH   1  14
TORSDOF 11
ENDMDL
MODEL 5
REMARK VINA RESULT:      -7.6      2.914      3.915
REMARK  Name = 16122585
REMARK  11 active torsions:
REMARK  status: ('A' for Active; 'I' for Inactive)
REMARK    1  A    between atoms: C_1  and  C_4
REMARK    2  A    between atoms: C_1  and  C_14
REMARK    3  A    between atoms: N_3  and  C_8
REMARK    4  A    between atoms: C_14  and  C_15
REMARK    5  A    between atoms: C_15  and  C_16
REMARK    6  A    between atoms: C_16  and  C_17
REMARK    7  A    between atoms: C_17  and  C_18
REMARK    8  A    between atoms: C_18  and  C_19
REMARK    9  A    between atoms: C_19  and  C_20
REMARK   10  A    between atoms: C_20  and  C_21
REMARK   11  A    between atoms: C_21  and  C_22
REMARK                            x       y       z     vdW  Elec       q    Type
REMARK                         _______ _______ _______ _____ _____    ______ ____
ROOT
ATOM      1  C   UNL     1      33.641 -23.178 -16.868  0.00  0.00    +0.149 C 
ENDROOT
BRANCH   1   4
ATOM      2  O   UNL     1      36.010 -22.782 -16.698  0.00  0.00    -0.275 OA
ATOM      3  N   UNL     1      35.051 -24.459 -15.403  0.00  0.00    -0.298 N 
ATOM      4  C   UNL     1      35.033 -23.435 -16.337  0.00  0.00    +0.230 C 
ATOM      5  H   UNL     1      34.205 -24.914 -15.191  0.00  0.00    +0.150 HD
BRANCH   3   8
ATOM      6  O   UNL     1      36.331 -26.930 -16.071  0.00  0.00    -0.273 OA
ATOM      7  N   UNL     1      36.982 -26.902 -13.822  0.00  0.00    -0.303 N 
ATOM      8  C   UNL     1      36.240 -24.886 -14.733  0.00  0.00    +0.150 C 
ATOM      9  C   UNL     1      36.142 -24.830 -13.211  0.00  0.00    +0.050 C 
ATOM     10  C   UNL     1      37.076 -25.936 -12.762  0.00  0.00    +0.092 C 
ATOM     11  C   UNL     1      36.489 -26.355 -15.006  0.00  0.00    +0.240 C 
ATOM     12  H   UNL     1      37.237 -27.847 -13.723  0.00  0.00    +0.149 HD
ENDBRANCH   3   8
ENDBRANCH   1   4
BRANCH   1  14
ATOM     13  O   UNL     1      33.900 -23.968 -19.109  0.00  0.00    -0.296 OA
ATOM     14  C   UNL     1      33.578 -23.036 -18.372  0.00  0.00    +0.160 C 
BRANCH  14  15
ATOM     15  C   UNL     1      33.112 -21.696 -18.912  0.00  0.00    +0.065 C 
BRANCH  15  16
ATOM     16  C   UNL     1      34.107 -21.053 -19.877  0.00  0.00    +0.008 C 
BRANCH  16  17
ATOM     17  C   UNL     1      33.537 -19.892 -20.701  0.00  0.00    +0.000 C 
BRANCH  17  18
ATOM     18  C   UNL     1      34.437 -19.477 -21.867  0.00  0.00    +0.000 C 
BRANCH  18  19
ATOM     19  C   UNL     1      35.322 -18.286 -21.488  0.00  0.00    +0.000 C 
BRANCH  19  20
ATOM     20  C   UNL     1      35.242 -17.126 -22.485  0.00  0.00    +0.000 C 
BRANCH  20  21
ATOM     21  C   UNL     1      34.705 -15.803 -21.932  0.00  0.00    +0.000 C 
BRANCH  21  22
ATOM     22  C   UNL     1      33.462 -15.969 -21.057  0.00  0.00    +0.000 C 
ATOM     23  C   UNL     1      32.576 -14.735 -21.115  0.00  0.00    +0.000 C 
ENDBRANCH  21  22
ENDBRANCH  20  21
ENDBRANCH  19  20
ENDBRANCH  18  19
ENDBRANCH  17  18
ENDBRANCH  16  17
ENDBRANCH  15  16
ENDBRANCH  14  15
ENDBRANCH   1  14
TORSDOF 11
ENDMDL
MODEL 6
REMARK VINA RESULT:      -7.5      3.730      4.541
REMARK  Name = 16122585
REMARK  11 active torsions:
REMARK  status: ('A' for Active; 'I' for Inactive)
REMARK    1  A    between atoms: C_1  and  C_4
REMARK    2  A    between atoms: C_1  and  C_14
REMARK    3  A    between atoms: N_3  and  C_8
REMARK    4  A    between atoms: C_14  and  C_15
REMARK    5  A    between atoms: C_15  and  C_16
REMARK    6  A    between atoms: C_16  and  C_17
REMARK    7  A    between atoms: C_17  and  C_18
REMARK    8  A    between atoms: C_18  and  C_19
REMARK    9  A    between atoms: C_19  and  C_20
REMARK   10  A    between atoms: C_20  and  C_21
REMARK   11  A    between atoms: C_21  and  C_22
REMARK                            x       y       z     vdW  Elec       q    Type
REMARK                         _______ _______ _______ _____ _____    ______ ____
ROOT
ATOM      1  C   UNL     1      36.928 -21.620 -17.260  0.00  0.00    +0.149 C 
ENDROOT
BRANCH   1   4
ATOM      2  O   UNL     1      35.674 -22.317 -15.326  0.00  0.00    -0.275 OA
ATOM      3  N   UNL     1      37.631 -23.449 -15.869  0.00  0.00    -0.298 N 
ATOM      4  C   UNL     1      36.658 -22.477 -16.044  0.00  0.00    +0.230 C 
ATOM      5  H   UNL     1      38.379 -23.483 -16.508  0.00  0.00    +0.150 HD
BRANCH   3   8
ATOM      6  O   UNL     1      40.041 -24.570 -14.806  0.00  0.00    -0.273 OA
ATOM      7  N   UNL     1      38.681 -26.428 -14.379  0.00  0.00    -0.303 N 
ATOM      8  C   UNL     1      37.601 -24.403 -14.804  0.00  0.00    +0.150 C 
ATOM      9  C   UNL     1      36.636 -25.562 -15.044  0.00  0.00    +0.050 C 
ATOM     10  C   UNL     1      37.274 -26.708 -14.284  0.00  0.00    +0.092 C 
ATOM     11  C   UNL     1      38.945 -25.095 -14.691  0.00  0.00    +0.240 C 
ATOM     12  H   UNL     1      39.382 -27.104 -14.238  0.00  0.00    +0.149 HD
ENDBRANCH   3   8
ENDBRANCH   1   4
BRANCH   1  14
ATOM     13  O   UNL     1      34.931 -22.466 -18.265  0.00  0.00    -0.296 OA
ATOM     14  C   UNL     1      36.023 -21.925 -18.434  0.00  0.00    +0.160 C 
BRANCH  14  15
ATOM     15  C   UNL     1      36.538 -21.539 -19.809  0.00  0.00    +0.065 C 
BRANCH  15  16
ATOM     16  C   UNL     1      36.164 -20.115 -20.217  0.00  0.00    +0.008 C 
BRANCH  16  17
ATOM     17  C   UNL     1      34.741 -19.964 -20.770  0.00  0.00    +0.000 C 
BRANCH  17  18
ATOM     18  C   UNL     1      34.696 -19.329 -22.163  0.00  0.00    +0.000 C 
BRANCH  18  19
ATOM     19  C   UNL     1      35.731 -18.209 -22.295  0.00  0.00    +0.000 C 
BRANCH  19  20
ATOM     20  C   UNL     1      35.108 -16.816 -22.422  0.00  0.00    +0.000 C 
BRANCH  20  21
ATOM     21  C   UNL     1      34.701 -16.143 -21.108  0.00  0.00    +0.000 C 
BRANCH  21  22
ATOM     22  C   UNL     1      33.191 -15.945 -20.968  0.00  0.00    +0.000 C 
ATOM     23  C   UNL     1      32.853 -14.503 -20.619  0.00  0.00    +0.000 C 
ENDBRANCH  21  22
ENDBRANCH  20  21
ENDBRANCH  19  20
ENDBRANCH  18  19
ENDBRANCH  17  18
ENDBRANCH  16  17
ENDBRANCH  15  16
ENDBRANCH  14  15
ENDBRANCH   1  14
TORSDOF 11
ENDMDL
MODEL 7
REMARK VINA RESULT:      -7.4      5.604      8.685
REMARK  Name = 16122585
REMARK  11 active torsions:
REMARK  status: ('A' for Active; 'I' for Inactive)
REMARK    1  A    between atoms: C_1  and  C_4
REMARK    2  A    between atoms: C_1  and  C_14
REMARK    3  A    between atoms: N_3  and  C_8
REMARK    4  A    between atoms: C_14  and  C_15
REMARK    5  A    between atoms: C_15  and  C_16
REMARK    6  A    between atoms: C_16  and  C_17
REMARK    7  A    between atoms: C_17  and  C_18
REMARK    8  A    between atoms: C_18  and  C_19
REMARK    9  A    between atoms: C_19  and  C_20
REMARK   10  A    between atoms: C_20  and  C_21
REMARK   11  A    between atoms: C_21  and  C_22
REMARK                            x       y       z     vdW  Elec       q    Type
REMARK                         _______ _______ _______ _____ _____    ______ ____
ROOT
ATOM      1  C   UNL     1      32.623 -14.166 -20.522  0.00  0.00    +0.149 C 
ENDROOT
BRANCH   1   4
ATOM      2  O   UNL     1      34.973 -14.623 -20.268  0.00  0.00    -0.275 OA
ATOM      3  N   UNL     1      33.623 -16.207 -21.305  0.00  0.00    -0.298 N 
ATOM      4  C   UNL     1      33.877 -14.997 -20.677  0.00  0.00    +0.230 C 
ATOM      5  H   UNL     1      32.701 -16.400 -21.592  0.00  0.00    +0.150 HD
BRANCH   3   8
ATOM      6  O   UNL     1      35.446 -15.938 -23.495  0.00  0.00    -0.273 OA
ATOM      7  N   UNL     1      35.432 -18.279 -23.457  0.00  0.00    -0.303 N 
ATOM      8  C   UNL     1      34.634 -17.186 -21.556  0.00  0.00    +0.150 C 
ATOM      9  C   UNL     1      34.108 -18.619 -21.584  0.00  0.00    +0.050 C 
ATOM     10  C   UNL     1      35.058 -19.318 -22.537  0.00  0.00    +0.092 C 
ATOM     11  C   UNL     1      35.200 -17.002 -22.949  0.00  0.00    +0.240 C 
ATOM     12  H   UNL     1      35.809 -18.451 -24.349  0.00  0.00    +0.149 HD
ENDBRANCH   3   8
ENDBRANCH   1   4
BRANCH   1  14
ATOM     13  O   UNL     1      32.679 -13.610 -22.846  0.00  0.00    -0.296 OA
ATOM     14  C   UNL     1      32.325 -13.284 -21.713  0.00  0.00    +0.160 C 
BRANCH  14  15
ATOM     15  C   UNL     1      31.583 -11.989 -21.433  0.00  0.00    +0.065 C 
BRANCH  15  16
ATOM     16  C   UNL     1      31.522 -11.636 -19.949  0.00  0.00    +0.008 C 
BRANCH  16  17
ATOM     17  C   UNL     1      31.946 -10.200 -19.616  0.00  0.00    +0.000 C 
BRANCH  17  18
ATOM     18  C   UNL     1      31.991  -9.282 -20.839  0.00  0.00    +0.000 C 
BRANCH  18  19
ATOM     19  C   UNL     1      32.612  -7.926 -20.492  0.00  0.00    +0.000 C 
BRANCH  19  20
ATOM     20  C   UNL     1      32.469  -6.887 -21.608  0.00  0.00    +0.000 C 
BRANCH  20  21
ATOM     21  C   UNL     1      32.341  -7.445 -23.029  0.00  0.00    +0.000 C 
BRANCH  21  22
ATOM     22  C   UNL     1      33.489  -7.031 -23.951  0.00  0.00    +0.000 C 
ATOM     23  C   UNL     1      34.825  -7.540 -23.433  0.00  0.00    +0.000 C 
ENDBRANCH  21  22
ENDBRANCH  20  21
ENDBRANCH  19  20
ENDBRANCH  18  19
ENDBRANCH  17  18
ENDBRANCH  16  17
ENDBRANCH  15  16
ENDBRANCH  14  15
ENDBRANCH   1  14
TORSDOF 11
ENDMDL
MODEL 8
REMARK VINA RESULT:      -7.4      2.791      5.099
REMARK  Name = 16122585
REMARK  11 active torsions:
REMARK  status: ('A' for Active; 'I' for Inactive)
REMARK    1  A    between atoms: C_1  and  C_4
REMARK    2  A    between atoms: C_1  and  C_14
REMARK    3  A    between atoms: N_3  and  C_8
REMARK    4  A    between atoms: C_14  and  C_15
REMARK    5  A    between atoms: C_15  and  C_16
REMARK    6  A    between atoms: C_16  and  C_17
REMARK    7  A    between atoms: C_17  and  C_18
REMARK    8  A    between atoms: C_18  and  C_19
REMARK    9  A    between atoms: C_19  and  C_20
REMARK   10  A    between atoms: C_20  and  C_21
REMARK   11  A    between atoms: C_21  and  C_22
REMARK                            x       y       z     vdW  Elec       q    Type
REMARK                         _______ _______ _______ _____ _____    ______ ____
ROOT
ATOM      1  C   UNL     1      35.158 -16.799 -22.204  0.00  0.00    +0.149 C 
ENDROOT
BRANCH   1   4
ATOM      2  O   UNL     1      34.967 -18.912 -23.340  0.00  0.00    -0.275 OA
ATOM      3  N   UNL     1      34.961 -18.878 -21.015  0.00  0.00    -0.298 N 
ATOM      4  C   UNL     1      35.013 -18.302 -22.275  0.00  0.00    +0.230 C 
ATOM      5  H   UNL     1      35.006 -18.288 -20.228  0.00  0.00    +0.150 HD
BRANCH   3   8
ATOM      6  O   UNL     1      32.446 -20.087 -20.379  0.00  0.00    -0.273 OA
ATOM      7  N   UNL     1      33.774 -21.632 -19.226  0.00  0.00    -0.303 N 
ATOM      8  C   UNL     1      34.845 -20.288 -20.804  0.00  0.00    +0.150 C 
ATOM      9  C   UNL     1      35.872 -20.848 -19.823  0.00  0.00    +0.050 C 
ATOM     10  C   UNL     1      35.154 -22.034 -19.208  0.00  0.00    +0.092 C 
ATOM     11  C   UNL     1      33.524 -20.604 -20.133  0.00  0.00    +0.240 C 
ATOM     12  H   UNL     1      33.080 -22.039 -18.658  0.00  0.00    +0.149 HD
ENDBRANCH   3   8
ENDBRANCH   1   4
BRANCH   1  14
ATOM     13  O   UNL     1      35.121 -16.048 -19.935  0.00  0.00    -0.296 OA
ATOM     14  C   UNL     1      34.502 -16.179 -20.990  0.00  0.00    +0.160 C 
BRANCH  14  15
ATOM     15  C   UNL     1      33.056 -15.744 -21.145  0.00  0.00    +0.065 C 
BRANCH  15  16
ATOM     16  C   UNL     1      32.668 -14.593 -20.219  0.00  0.00    +0.008 C 
BRANCH  16  17
ATOM     17  C   UNL     1      32.281 -13.296 -20.940  0.00  0.00    +0.000 C 
BRANCH  17  18
ATOM     18  C   UNL     1      32.276 -13.427 -22.465  0.00  0.00    +0.000 C 
BRANCH  18  19
ATOM     19  C   UNL     1      33.636 -13.051 -23.058  0.00  0.00    +0.000 C 
BRANCH  19  20
ATOM     20  C   UNL     1      33.705 -13.223 -24.579  0.00  0.00    +0.000 C 
BRANCH  20  21
ATOM     21  C   UNL     1      33.372 -14.620 -25.110  0.00  0.00    +0.000 C 
BRANCH  21  22
ATOM     22  C   UNL     1      32.837 -14.614 -26.543  0.00  0.00    +0.000 C 
ATOM     23  C   UNL     1      33.294 -13.376 -27.299  0.00  0.00    +0.000 C 
ENDBRANCH  21  22
ENDBRANCH  20  21
ENDBRANCH  19  20
ENDBRANCH  18  19
ENDBRANCH  17  18
ENDBRANCH  16  17
ENDBRANCH  15  16
ENDBRANCH  14  15
ENDBRANCH   1  14
TORSDOF 11
ENDMDL
MODEL 9
REMARK VINA RESULT:      -7.4      5.580      8.812
REMARK  Name = 16122585
REMARK  11 active torsions:
REMARK  status: ('A' for Active; 'I' for Inactive)
REMARK    1  A    between atoms: C_1  and  C_4
REMARK    2  A    between atoms: C_1  and  C_14
REMARK    3  A    between atoms: N_3  and  C_8
REMARK    4  A    between atoms: C_14  and  C_15
REMARK    5  A    between atoms: C_15  and  C_16
REMARK    6  A    between atoms: C_16  and  C_17
REMARK    7  A    between atoms: C_17  and  C_18
REMARK    8  A    between atoms: C_18  and  C_19
REMARK    9  A    between atoms: C_19  and  C_20
REMARK   10  A    between atoms: C_20  and  C_21
REMARK   11  A    between atoms: C_21  and  C_22
REMARK                            x       y       z     vdW  Elec       q    Type
REMARK                         _______ _______ _______ _____ _____    ______ ____
ROOT
ATOM      1  C   UNL     1      33.760 -12.971 -23.093  0.00  0.00    +0.149 C 
ENDROOT
BRANCH   1   4
ATOM      2  O   UNL     1      32.283 -14.624 -22.152  0.00  0.00    -0.275 OA
ATOM      3  N   UNL     1      34.456 -15.238 -22.704  0.00  0.00    -0.298 N 
ATOM      4  C   UNL     1      33.398 -14.351 -22.589  0.00  0.00    +0.230 C 
ATOM      5  H   UNL     1      35.308 -14.906 -23.069  0.00  0.00    +0.150 HD
BRANCH   3   8
ATOM      6  O   UNL     1      34.922 -16.055 -20.000  0.00  0.00    -0.273 OA
ATOM      7  N   UNL     1      35.671 -18.035 -21.001  0.00  0.00    -0.303 N 
ATOM      8  C   UNL     1      34.371 -16.612 -22.316  0.00  0.00    +0.150 C 
ATOM      9  C   UNL     1      35.171 -17.554 -23.213  0.00  0.00    +0.050 C 
ATOM     10  C   UNL     1      35.549 -18.686 -22.277  0.00  0.00    +0.092 C 
ATOM     11  C   UNL     1      35.011 -16.808 -20.957  0.00  0.00    +0.240 C 
ATOM     12  H   UNL     1      36.167 -18.415 -20.240  0.00  0.00    +0.149 HD
ENDBRANCH   3   8
ENDBRANCH   1   4
BRANCH   1  14
ATOM     13  O   UNL     1      33.291 -13.765 -25.298  0.00  0.00    -0.296 OA
ATOM     14  C   UNL     1      33.623 -12.815 -24.591  0.00  0.00    +0.160 C 
BRANCH  14  15
ATOM     15  C   UNL     1      33.925 -11.440 -25.163  0.00  0.00    +0.065 C 
BRANCH  15  16
ATOM     16  C   UNL     1      34.003 -10.347 -24.099  0.00  0.00    +0.008 C 
BRANCH  16  17
ATOM     17  C   UNL     1      34.992  -9.219 -24.414  0.00  0.00    +0.000 C 
BRANCH  17  18
ATOM     18  C   UNL     1      34.775  -7.965 -23.563  0.00  0.00    +0.000 C 
BRANCH  18  19
ATOM     19  C   UNL     1      33.430  -7.306 -23.880  0.00  0.00    +0.000 C 
BRANCH  19  20
ATOM     20  C   UNL     1      32.524  -7.150 -22.655  0.00  0.00    +0.000 C 
BRANCH  20  21
ATOM     21  C   UNL     1      33.120  -7.607 -21.320  0.00  0.00    +0.000 C 
BRANCH  21  22
ATOM     22  C   UNL     1      32.152  -8.433 -20.472  0.00  0.00    +0.000 C 
ATOM     23  C   UNL     1      31.828  -9.762 -21.139  0.00  0.00    +0.000 C 
ENDBRANCH  21  22
ENDBRANCH  20  21
ENDBRANCH  19  20
ENDBRANCH  18  19
ENDBRANCH  17  18
ENDBRANCH  16  17
ENDBRANCH  15  16
ENDBRANCH  14  15
ENDBRANCH   1  14
TORSDOF 11
ENDMDL
