MODEL 1
REMARK VINA RESULT:      -8.8      0.000      0.000
REMARK  Name = 27200
REMARK  8 active torsions:
REMARK  status: ('A' for Active; 'I' for Inactive)
REMARK    1  A    between atoms: C_1  and  C_2
REMARK    2  A    between atoms: C_1  and  O_12
REMARK    3  A    between atoms: C_1  and  CA_14
REMARK    4  A    between atoms: C_5  and  S_8
REMARK    5  A    between atoms: CA_14  and  N_16
REMARK    6  A    between atoms: CA_14  and  C_22
REMARK    7  A    between atoms: C_17  and  C_21
REMARK    8  A    between atoms: C_22  and  O_23
REMARK                            x       y       z     vdW  Elec       q    Type
REMARK                         _______ _______ _______ _____ _____    ______ ____
ROOT
ATOM      1  C   UNL     1      35.087 -17.894 -22.034  0.00  0.00    +0.153 C 
ENDROOT
BRANCH   1   2
ATOM      2  C   UNL     1      34.738 -19.102 -21.193  0.00  0.00    +0.006 C 
ATOM      3  C   UNL     1      33.407 -19.395 -20.949  0.00  0.00    -0.001 C 
ATOM      4  C   UNL     1      35.756 -19.891 -20.687  0.00  0.00    -0.001 C 
ATOM      5  C   UNL     1      34.098 -21.314 -19.656  0.00  0.00    +0.106 C 
ATOM      6  C   UNL     1      33.084 -20.509 -20.174  0.00  0.00    +0.018 C 
ATOM      7  C   UNL     1      35.435 -21.006 -19.912  0.00  0.00    +0.018 C 
BRANCH   5   8
ATOM      8  S   UNL     1      33.696 -22.709 -18.684  0.00  0.00    +0.010 S 
ATOM      9  O   UNL     1      32.372 -22.495 -18.119  0.00  0.00    -0.169 OA
ATOM     10  O   UNL     1      33.967 -23.915 -19.456  0.00  0.00    -0.169 OA
ATOM     11  C   UNL     1      34.872 -22.673 -17.351  0.00  0.00    +0.182 C 
ENDBRANCH   5   8
ENDBRANCH   1   2
BRANCH   1  12
ATOM     12  O   UNL     1      34.862 -18.256 -23.400  0.00  0.00    -0.378 OA
ATOM     13  H   UNL     1      34.985 -17.478 -23.965  0.00  0.00    +0.211 HD
ENDBRANCH   1  12
BRANCH   1  14
ATOM     14  CA  UNL     1      34.262 -16.634 -21.694  0.00  0.00    +0.132 C 
BRANCH  14  16
ATOM     15  O   UNL     1      32.322 -14.660 -22.442  0.00  0.00    -0.272 OA
ATOM     16  N   UNL     1      34.383 -15.669 -22.770  0.00  0.00    -0.299 N 
ATOM     17  C   UNL     1      33.385 -14.754 -23.052  0.00  0.00    +0.253 C 
ATOM     18  H   UNL     1      35.202 -15.666 -23.317  0.00  0.00    +0.150 HD
BRANCH  17  21
ATOM     19 CL   UNL     1      32.759 -14.337 -25.605  0.00  0.00    -0.087 Cl
ATOM     20 CL   UNL     1      33.396 -12.183 -23.738  0.00  0.00    -0.087 Cl
ATOM     21  C   UNL     1      33.741 -13.854 -24.213  0.00  0.00    +0.234 C 
ENDBRANCH  17  21
ENDBRANCH  14  16
BRANCH  14  22
ATOM     22  C   UNL     1      34.649 -15.969 -20.368  0.00  0.00    +0.159 C 
BRANCH  22  23
ATOM     23  O   UNL     1      35.009 -14.606 -20.551  0.00  0.00    -0.380 OA
ATOM     24  H   UNL     1      35.295 -14.468 -21.468  0.00  0.00    +0.211 HD
ENDBRANCH  22  23
ENDBRANCH  14  22
ENDBRANCH   1  14
TORSDOF 8
ENDMDL
MODEL 2
REMARK VINA RESULT:      -8.7      1.931      2.781
REMARK  Name = 27200
REMARK  8 active torsions:
REMARK  status: ('A' for Active; 'I' for Inactive)
REMARK    1  A    between atoms: C_1  and  C_2
REMARK    2  A    between atoms: C_1  and  O_12
REMARK    3  A    between atoms: C_1  and  CA_14
REMARK    4  A    between atoms: C_5  and  S_8
REMARK    5  A    between atoms: CA_14  and  N_16
REMARK    6  A    between atoms: CA_14  and  C_22
REMARK    7  A    between atoms: C_17  and  C_21
REMARK    8  A    between atoms: C_22  and  O_23
REMARK                            x       y       z     vdW  Elec       q    Type
REMARK                         _______ _______ _______ _____ _____    ______ ____
ROOT
ATOM      1  C   UNL     1      35.948 -18.217 -21.939  0.00  0.00    +0.153 C 
ENDROOT
BRANCH   1   2
ATOM      2  C   UNL     1      35.381 -19.347 -21.109  0.00  0.00    +0.006 C 
ATOM      3  C   UNL     1      36.242 -20.278 -20.553  0.00  0.00    -0.001 C 
ATOM      4  C   UNL     1      34.011 -19.426 -20.919  0.00  0.00    -0.001 C 
ATOM      5  C   UNL     1      34.342 -21.413 -19.586  0.00  0.00    +0.106 C 
ATOM      6  C   UNL     1      35.719 -21.319 -19.787  0.00  0.00    +0.018 C 
ATOM      7  C   UNL     1      33.488 -20.467 -20.153  0.00  0.00    +0.018 C 
BRANCH   5   8
ATOM      8  S   UNL     1      33.686 -22.718 -18.628  0.00  0.00    +0.010 S 
ATOM      9  O   UNL     1      32.338 -22.345 -18.226  0.00  0.00    -0.169 OA
ATOM     10  O   UNL     1      33.910 -23.976 -19.329  0.00  0.00    -0.169 OA
ATOM     11  C   UNL     1      34.703 -22.750 -17.170  0.00  0.00    +0.182 C 
ENDBRANCH   5   8
ENDBRANCH   1   2
BRANCH   1  12
ATOM     12  O   UNL     1      37.365 -18.408 -21.993  0.00  0.00    -0.378 OA
ATOM     13  H   UNL     1      37.662 -18.862 -21.191  0.00  0.00    +0.211 HD
ENDBRANCH   1  12
BRANCH   1  14
ATOM     14  CA  UNL     1      35.383 -18.150 -23.375  0.00  0.00    +0.132 C 
BRANCH  14  16
ATOM     15  O   UNL     1      34.797 -16.765 -25.815  0.00  0.00    -0.272 OA
ATOM     16  N   UNL     1      34.559 -16.966 -23.518  0.00  0.00    -0.299 N 
ATOM     17  C   UNL     1      34.336 -16.369 -24.746  0.00  0.00    +0.253 C 
ATOM     18  H   UNL     1      34.144 -16.573 -22.715  0.00  0.00    +0.150 HD
BRANCH  17  21
ATOM     19 CL   UNL     1      34.211 -14.002 -23.535  0.00  0.00    -0.087 Cl
ATOM     20 CL   UNL     1      33.271 -14.459 -26.263  0.00  0.00    -0.087 Cl
ATOM     21  C   UNL     1      33.445 -15.153 -24.642  0.00  0.00    +0.234 C 
ENDBRANCH  17  21
ENDBRANCH  14  16
BRANCH  14  22
ATOM     22  C   UNL     1      34.576 -19.386 -23.790  0.00  0.00    +0.159 C 
BRANCH  22  23
ATOM     23  O   UNL     1      34.957 -19.850 -25.079  0.00  0.00    -0.380 OA
ATOM     24  H   UNL     1      35.207 -19.095 -25.634  0.00  0.00    +0.211 HD
ENDBRANCH  22  23
ENDBRANCH  14  22
ENDBRANCH   1  14
TORSDOF 8
ENDMDL
MODEL 3
REMARK VINA RESULT:      -8.7      7.517     10.881
REMARK  Name = 27200
REMARK  8 active torsions:
REMARK  status: ('A' for Active; 'I' for Inactive)
REMARK    1  A    between atoms: C_1  and  C_2
REMARK    2  A    between atoms: C_1  and  O_12
REMARK    3  A    between atoms: C_1  and  CA_14
REMARK    4  A    between atoms: C_5  and  S_8
REMARK    5  A    between atoms: CA_14  and  N_16
REMARK    6  A    between atoms: CA_14  and  C_22
REMARK    7  A    between atoms: C_17  and  C_21
REMARK    8  A    between atoms: C_22  and  O_23
REMARK                            x       y       z     vdW  Elec       q    Type
REMARK                         _______ _______ _______ _____ _____    ______ ____
ROOT
ATOM      1  C   UNL     1      34.155 -23.796 -13.122  0.00  0.00    +0.153 C 
ENDROOT
BRANCH   1   2
ATOM      2  C   UNL     1      34.085 -23.499 -14.604  0.00  0.00    +0.006 C 
ATOM      3  C   UNL     1      35.218 -23.049 -15.259  0.00  0.00    -0.001 C 
ATOM      4  C   UNL     1      32.888 -23.685 -15.274  0.00  0.00    -0.001 C 
ATOM      5  C   UNL     1      33.956 -22.958 -17.316  0.00  0.00    +0.106 C 
ATOM      6  C   UNL     1      35.154 -22.777 -16.625  0.00  0.00    +0.018 C 
ATOM      7  C   UNL     1      32.822 -23.413 -16.640  0.00  0.00    +0.018 C 
BRANCH   5   8
ATOM      8  S   UNL     1      33.873 -22.615 -19.026  0.00  0.00    +0.010 S 
ATOM      9  O   UNL     1      34.022 -23.873 -19.744  0.00  0.00    -0.169 OA
ATOM     10  O   UNL     1      32.713 -21.770 -19.282  0.00  0.00    -0.169 OA
ATOM     11  C   UNL     1      35.314 -21.626 -19.349  0.00  0.00    +0.182 C 
ENDBRANCH   5   8
ENDBRANCH   1   2
BRANCH   1  12
ATOM     12  O   UNL     1      33.465 -25.031 -12.909  0.00  0.00    -0.378 OA
ATOM     13  H   UNL     1      33.580 -25.605 -13.682  0.00  0.00    +0.211 HD
ENDBRANCH   1  12
BRANCH   1  14
ATOM     14  CA  UNL     1      35.594 -23.911 -12.574  0.00  0.00    +0.132 C 
BRANCH  14  16
ATOM     15  O   UNL     1      38.314 -24.079 -13.467  0.00  0.00    -0.272 OA
ATOM     16  N   UNL     1      36.243 -25.072 -13.153  0.00  0.00    -0.299 N 
ATOM     17  C   UNL     1      37.567 -25.052 -13.553  0.00  0.00    +0.253 C 
ATOM     18  H   UNL     1      35.724 -25.902 -13.263  0.00  0.00    +0.150 HD
BRANCH  17  21
ATOM     19 CL   UNL     1      36.890 -26.837 -15.408  0.00  0.00    -0.087 Cl
ATOM     20 CL   UNL     1      39.658 -26.176 -14.755  0.00  0.00    -0.087 Cl
ATOM     21  C   UNL     1      38.017 -26.378 -14.122  0.00  0.00    +0.234 C 
ENDBRANCH  17  21
ENDBRANCH  14  16
BRANCH  14  22
ATOM     22  C   UNL     1      35.680 -23.988 -11.046  0.00  0.00    +0.159 C 
BRANCH  22  23
ATOM     23  O   UNL     1      35.236 -25.248 -10.560  0.00  0.00    -0.380 OA
ATOM     24  H   UNL     1      35.522 -25.949 -11.168  0.00  0.00    +0.211 HD
ENDBRANCH  22  23
ENDBRANCH  14  22
ENDBRANCH   1  14
TORSDOF 8
ENDMDL
MODEL 4
REMARK VINA RESULT:      -8.3      9.031     10.765
REMARK  Name = 27200
REMARK  8 active torsions:
REMARK  status: ('A' for Active; 'I' for Inactive)
REMARK    1  A    between atoms: C_1  and  C_2
REMARK    2  A    between atoms: C_1  and  O_12
REMARK    3  A    between atoms: C_1  and  CA_14
REMARK    4  A    between atoms: C_5  and  S_8
REMARK    5  A    between atoms: CA_14  and  N_16
REMARK    6  A    between atoms: CA_14  and  C_22
REMARK    7  A    between atoms: C_17  and  C_21
REMARK    8  A    between atoms: C_22  and  O_23
REMARK                            x       y       z     vdW  Elec       q    Type
REMARK                         _______ _______ _______ _____ _____    ______ ____
ROOT
ATOM      1  C   UNL     1      34.046 -23.630 -13.940  0.00  0.00    +0.153 C 
ENDROOT
BRANCH   1   2
ATOM      2  C   UNL     1      32.650 -23.462 -14.497  0.00  0.00    +0.006 C 
ATOM      3  C   UNL     1      31.568 -23.484 -13.633  0.00  0.00    -0.001 C 
ATOM      4  C   UNL     1      32.483 -23.288 -15.860  0.00  0.00    -0.001 C 
ATOM      5  C   UNL     1      30.095 -23.153 -15.518  0.00  0.00    +0.106 C 
ATOM      6  C   UNL     1      30.281 -23.329 -14.147  0.00  0.00    +0.018 C 
ATOM      7  C   UNL     1      31.196 -23.132 -16.375  0.00  0.00    +0.018 C 
BRANCH   5   8
ATOM      8  S   UNL     1      28.484 -22.960 -16.163  0.00  0.00    +0.010 S 
ATOM      9  O   UNL     1      27.556 -22.897 -15.042  0.00  0.00    -0.169 OA
ATOM     10  O   UNL     1      28.496 -21.888 -17.151  0.00  0.00    -0.169 OA
ATOM     11  C   UNL     1      28.176 -24.473 -17.044  0.00  0.00    +0.182 C 
ENDBRANCH   5   8
ENDBRANCH   1   2
BRANCH   1  12
ATOM     12  O   UNL     1      33.991 -24.695 -12.984  0.00  0.00    -0.378 OA
ATOM     13  H   UNL     1      33.138 -24.672 -12.523  0.00  0.00    +0.211 HD
ENDBRANCH   1  12
BRANCH   1  14
ATOM     14  CA  UNL     1      35.112 -23.954 -15.008  0.00  0.00    +0.132 C 
BRANCH  14  16
ATOM     15  O   UNL     1      36.069 -26.495 -15.930  0.00  0.00    -0.272 OA
ATOM     16  N   UNL     1      36.172 -24.745 -14.412  0.00  0.00    -0.299 N 
ATOM     17  C   UNL     1      36.562 -25.965 -14.936  0.00  0.00    +0.253 C 
ATOM     18  H   UNL     1      36.629 -24.403 -13.610  0.00  0.00    +0.150 HD
BRANCH  17  21
ATOM     19 CL   UNL     1      39.204 -25.837 -14.641  0.00  0.00    -0.087 Cl
ATOM     20 CL   UNL     1      37.366 -26.326 -12.425  0.00  0.00    -0.087 Cl
ATOM     21  C   UNL     1      37.684 -26.598 -14.146  0.00  0.00    +0.234 C 
ENDBRANCH  17  21
ENDBRANCH  14  16
BRANCH  14  22
ATOM     22  C   UNL     1      35.718 -22.720 -15.686  0.00  0.00    +0.159 C 
BRANCH  22  23
ATOM     23  O   UNL     1      35.706 -22.841 -17.102  0.00  0.00    -0.380 OA
ATOM     24  H   UNL     1      36.175 -22.088 -17.496  0.00  0.00    +0.211 HD
ENDBRANCH  22  23
ENDBRANCH  14  22
ENDBRANCH   1  14
TORSDOF 8
ENDMDL
MODEL 5
REMARK VINA RESULT:      -8.3      5.829      8.768
REMARK  Name = 27200
REMARK  8 active torsions:
REMARK  status: ('A' for Active; 'I' for Inactive)
REMARK    1  A    between atoms: C_1  and  C_2
REMARK    2  A    between atoms: C_1  and  O_12
REMARK    3  A    between atoms: C_1  and  CA_14
REMARK    4  A    between atoms: C_5  and  S_8
REMARK    5  A    between atoms: CA_14  and  N_16
REMARK    6  A    between atoms: CA_14  and  C_22
REMARK    7  A    between atoms: C_17  and  C_21
REMARK    8  A    between atoms: C_22  and  O_23
REMARK                            x       y       z     vdW  Elec       q    Type
REMARK                         _______ _______ _______ _____ _____    ______ ____
ROOT
ATOM      1  C   UNL     1      33.176 -23.072 -18.357  0.00  0.00    +0.153 C 
ENDROOT
BRANCH   1   2
ATOM      2  C   UNL     1      33.847 -21.954 -19.124  0.00  0.00    +0.006 C 
ATOM      3  C   UNL     1      35.229 -21.875 -19.136  0.00  0.00    -0.001 C 
ATOM      4  C   UNL     1      33.064 -21.034 -19.800  0.00  0.00    -0.001 C 
ATOM      5  C   UNL     1      35.075 -19.909 -20.530  0.00  0.00    +0.106 C 
ATOM      6  C   UNL     1      35.848 -20.845 -19.843  0.00  0.00    +0.018 C 
ATOM      7  C   UNL     1      33.683 -20.003 -20.509  0.00  0.00    +0.018 C 
BRANCH   5   8
ATOM      8  S   UNL     1      35.848 -18.618 -21.415  0.00  0.00    +0.010 S 
ATOM      9  O   UNL     1      35.405 -17.354 -20.844  0.00  0.00    -0.169 OA
ATOM     10  O   UNL     1      37.273 -18.904 -21.517  0.00  0.00    -0.169 OA
ATOM     11  C   UNL     1      35.176 -18.743 -23.057  0.00  0.00    +0.182 C 
ENDBRANCH   5   8
ENDBRANCH   1   2
BRANCH   1  12
ATOM     12  O   UNL     1      33.825 -24.290 -18.738  0.00  0.00    -0.378 OA
ATOM     13  H   UNL     1      33.169 -25.002 -18.794  0.00  0.00    +0.211 HD
ENDBRANCH   1  12
BRANCH   1  14
ATOM     14  CA  UNL     1      33.247 -22.910 -16.823  0.00  0.00    +0.132 C 
BRANCH  14  16
ATOM     15  O   UNL     1      35.635 -22.196 -15.406  0.00  0.00    -0.272 OA
ATOM     16  N   UNL     1      34.237 -23.823 -16.284  0.00  0.00    -0.299 N 
ATOM     17  C   UNL     1      35.361 -23.377 -15.612  0.00  0.00    +0.253 C 
ATOM     18  H   UNL     1      34.104 -24.792 -16.399  0.00  0.00    +0.150 HD
BRANCH  17  21
ATOM     19 CL   UNL     1      37.924 -23.970 -15.213  0.00  0.00    -0.087 Cl
ATOM     20 CL   UNL     1      35.771 -24.922 -13.485  0.00  0.00    -0.087 Cl
ATOM     21  C   UNL     1      36.240 -24.513 -15.143  0.00  0.00    +0.234 C 
ENDBRANCH  17  21
ENDBRANCH  14  16
BRANCH  14  22
ATOM     22  C   UNL     1      31.910 -23.127 -16.106  0.00  0.00    +0.159 C 
BRANCH  22  23
ATOM     23  O   UNL     1      30.813 -22.698 -16.902  0.00  0.00    -0.380 OA
ATOM     24  H   UNL     1      29.982 -22.906 -16.448  0.00  0.00    +0.211 HD
ENDBRANCH  22  23
ENDBRANCH  14  22
ENDBRANCH   1  14
TORSDOF 8
ENDMDL
MODEL 6
REMARK VINA RESULT:      -8.0      6.044      8.005
REMARK  Name = 27200
REMARK  8 active torsions:
REMARK  status: ('A' for Active; 'I' for Inactive)
REMARK    1  A    between atoms: C_1  and  C_2
REMARK    2  A    between atoms: C_1  and  O_12
REMARK    3  A    between atoms: C_1  and  CA_14
REMARK    4  A    between atoms: C_5  and  S_8
REMARK    5  A    between atoms: CA_14  and  N_16
REMARK    6  A    between atoms: CA_14  and  C_22
REMARK    7  A    between atoms: C_17  and  C_21
REMARK    8  A    between atoms: C_22  and  O_23
REMARK                            x       y       z     vdW  Elec       q    Type
REMARK                         _______ _______ _______ _____ _____    ______ ____
ROOT
ATOM      1  C   UNL     1      35.145 -23.686 -15.191  0.00  0.00    +0.153 C 
ENDROOT
BRANCH   1   2
ATOM      2  C   UNL     1      33.664 -23.441 -15.374  0.00  0.00    +0.006 C 
ATOM      3  C   UNL     1      33.141 -23.378 -16.654  0.00  0.00    -0.001 C 
ATOM      4  C   UNL     1      32.861 -23.287 -14.256  0.00  0.00    -0.001 C 
ATOM      5  C   UNL     1      30.952 -22.996 -15.708  0.00  0.00    +0.106 C 
ATOM      6  C   UNL     1      31.775 -23.154 -16.823  0.00  0.00    +0.018 C 
ATOM      7  C   UNL     1      31.495 -23.063 -14.424  0.00  0.00    +0.018 C 
BRANCH   5   8
ATOM      8  S   UNL     1      29.242 -22.713 -15.917  0.00  0.00    +0.010 S 
ATOM      9  O   UNL     1      28.809 -21.788 -14.879  0.00  0.00    -0.169 OA
ATOM     10  O   UNL     1      28.983 -22.399 -17.317  0.00  0.00    -0.169 OA
ATOM     11  C   UNL     1      28.489 -24.291 -15.593  0.00  0.00    +0.182 C 
ENDBRANCH   5   8
ENDBRANCH   1   2
BRANCH   1  12
ATOM     12  O   UNL     1      35.443 -24.940 -15.815  0.00  0.00    -0.378 OA
ATOM     13  H   UNL     1      34.929 -25.643 -15.390  0.00  0.00    +0.211 HD
ENDBRANCH   1  12
BRANCH   1  14
ATOM     14  CA  UNL     1      36.042 -22.585 -15.799  0.00  0.00    +0.132 C 
BRANCH  14  16
ATOM     15  O   UNL     1      37.177 -20.665 -17.600  0.00  0.00    -0.272 OA
ATOM     16  N   UNL     1      35.787 -22.481 -17.223  0.00  0.00    -0.299 N 
ATOM     17  C   UNL     1      36.387 -21.514 -18.009  0.00  0.00    +0.253 C 
ATOM     18  H   UNL     1      35.166 -23.120 -17.644  0.00  0.00    +0.150 HD
BRANCH  17  21
ATOM     19 CL   UNL     1      34.198 -21.611 -19.520  0.00  0.00    -0.087 Cl
ATOM     20 CL   UNL     1      36.634 -20.209 -20.314  0.00  0.00    -0.087 Cl
ATOM     21  C   UNL     1      35.968 -21.608 -19.458  0.00  0.00    +0.234 C 
ENDBRANCH  17  21
ENDBRANCH  14  16
BRANCH  14  22
ATOM     22  C   UNL     1      37.542 -22.796 -15.564  0.00  0.00    +0.159 C 
BRANCH  22  23
ATOM     23  O   UNL     1      37.785 -23.564 -14.393  0.00  0.00    -0.380 OA
ATOM     24  H   UNL     1      38.732 -23.537 -14.179  0.00  0.00    +0.211 HD
ENDBRANCH  22  23
ENDBRANCH  14  22
ENDBRANCH   1  14
TORSDOF 8
ENDMDL
MODEL 7
REMARK VINA RESULT:      -7.9      3.677      5.913
REMARK  Name = 27200
REMARK  8 active torsions:
REMARK  status: ('A' for Active; 'I' for Inactive)
REMARK    1  A    between atoms: C_1  and  C_2
REMARK    2  A    between atoms: C_1  and  O_12
REMARK    3  A    between atoms: C_1  and  CA_14
REMARK    4  A    between atoms: C_5  and  S_8
REMARK    5  A    between atoms: CA_14  and  N_16
REMARK    6  A    between atoms: CA_14  and  C_22
REMARK    7  A    between atoms: C_17  and  C_21
REMARK    8  A    between atoms: C_22  and  O_23
REMARK                            x       y       z     vdW  Elec       q    Type
REMARK                         _______ _______ _______ _____ _____    ______ ____
ROOT
ATOM      1  C   UNL     1      32.801 -13.143 -23.926  0.00  0.00    +0.153 C 
ENDROOT
BRANCH   1   2
ATOM      2  C   UNL     1      33.491 -14.384 -23.407  0.00  0.00    +0.006 C 
ATOM      3  C   UNL     1      33.785 -15.413 -24.286  0.00  0.00    -0.001 C 
ATOM      4  C   UNL     1      33.816 -14.466 -22.064  0.00  0.00    -0.001 C 
ATOM      5  C   UNL     1      34.757 -16.656 -22.457  0.00  0.00    +0.106 C 
ATOM      6  C   UNL     1      34.423 -16.558 -23.808  0.00  0.00    +0.018 C 
ATOM      7  C   UNL     1      34.455 -15.610 -21.585  0.00  0.00    +0.018 C 
BRANCH   5   8
ATOM      8  S   UNL     1      35.554 -18.089 -21.857  0.00  0.00    +0.010 S 
ATOM      9  O   UNL     1      36.709 -18.350 -22.705  0.00  0.00    -0.169 OA
ATOM     10  O   UNL     1      35.730 -17.963 -20.416  0.00  0.00    -0.169 OA
ATOM     11  C   UNL     1      34.375 -19.394 -22.122  0.00  0.00    +0.182 C 
ENDBRANCH   5   8
ENDBRANCH   1   2
BRANCH   1  12
ATOM     12  O   UNL     1      31.941 -12.674 -22.882  0.00  0.00    -0.378 OA
ATOM     13  H   UNL     1      31.066 -12.475 -23.248  0.00  0.00    +0.211 HD
ENDBRANCH   1  12
BRANCH   1  14
ATOM     14  CA  UNL     1      33.769 -12.014 -24.339  0.00  0.00    +0.132 C 
BRANCH  14  16
ATOM     15  O   UNL     1      35.280  -9.595 -24.038  0.00  0.00    -0.272 OA
ATOM     16  N   UNL     1      33.275 -10.744 -23.842  0.00  0.00    -0.299 N 
ATOM     17  C   UNL     1      34.089  -9.630 -23.735  0.00  0.00    +0.253 C 
ATOM     18  H   UNL     1      32.331 -10.672 -23.573  0.00  0.00    +0.150 HD
BRANCH  17  21
ATOM     19 CL   UNL     1      34.012  -6.980 -23.972  0.00  0.00    -0.087 Cl
ATOM     20 CL   UNL     1      31.630  -8.623 -23.574  0.00  0.00    -0.087 Cl
ATOM     21  C   UNL     1      33.350  -8.427 -23.195  0.00  0.00    +0.234 C 
ENDBRANCH  17  21
ENDBRANCH  14  16
BRANCH  14  22
ATOM     22  C   UNL     1      34.006 -11.912 -25.850  0.00  0.00    +0.159 C 
BRANCH  22  23
ATOM     23  O   UNL     1      33.241 -12.873 -26.566  0.00  0.00    -0.380 OA
ATOM     24  H   UNL     1      32.537 -12.424 -27.059  0.00  0.00    +0.211 HD
ENDBRANCH  22  23
ENDBRANCH  14  22
ENDBRANCH   1  14
TORSDOF 8
ENDMDL
MODEL 8
REMARK VINA RESULT:      -7.9      2.357      3.359
REMARK  Name = 27200
REMARK  8 active torsions:
REMARK  status: ('A' for Active; 'I' for Inactive)
REMARK    1  A    between atoms: C_1  and  C_2
REMARK    2  A    between atoms: C_1  and  O_12
REMARK    3  A    between atoms: C_1  and  CA_14
REMARK    4  A    between atoms: C_5  and  S_8
REMARK    5  A    between atoms: CA_14  and  N_16
REMARK    6  A    between atoms: CA_14  and  C_22
REMARK    7  A    between atoms: C_17  and  C_21
REMARK    8  A    between atoms: C_22  and  O_23
REMARK                            x       y       z     vdW  Elec       q    Type
REMARK                         _______ _______ _______ _____ _____    ______ ____
ROOT
ATOM      1  C   UNL     1      34.806 -20.304 -21.045  0.00  0.00    +0.153 C 
ENDROOT
BRANCH   1   2
ATOM      2  C   UNL     1      35.041 -21.042 -19.746  0.00  0.00    +0.006 C 
ATOM      3  C   UNL     1      33.998 -21.749 -19.171  0.00  0.00    -0.001 C 
ATOM      4  C   UNL     1      36.294 -20.996 -19.159  0.00  0.00    -0.001 C 
ATOM      5  C   UNL     1      35.471 -22.393 -17.368  0.00  0.00    +0.106 C 
ATOM      6  C   UNL     1      34.215 -22.429 -17.973  0.00  0.00    +0.018 C 
ATOM      7  C   UNL     1      36.511 -21.677 -17.961  0.00  0.00    +0.018 C 
BRANCH   5   8
ATOM      8  S   UNL     1      35.742 -23.244 -15.867  0.00  0.00    +0.010 S 
ATOM      9  O   UNL     1      35.092 -22.494 -14.802  0.00  0.00    -0.169 OA
ATOM     10  O   UNL     1      35.422 -24.653 -16.059  0.00  0.00    -0.169 OA
ATOM     11  C   UNL     1      37.499 -23.142 -15.613  0.00  0.00    +0.182 C 
ENDBRANCH   5   8
ENDBRANCH   1   2
BRANCH   1  12
ATOM     12  O   UNL     1      33.389 -20.208 -21.223  0.00  0.00    -0.378 OA
ATOM     13  H   UNL     1      33.181 -19.420 -21.747  0.00  0.00    +0.211 HD
ENDBRANCH   1  12
BRANCH   1  14
ATOM     14  CA  UNL     1      35.425 -18.891 -21.084  0.00  0.00    +0.132 C 
BRANCH  14  16
ATOM     15  O   UNL     1      35.130 -16.204 -20.126  0.00  0.00    -0.272 OA
ATOM     16  N   UNL     1      34.420 -17.931 -21.500  0.00  0.00    -0.299 N 
ATOM     17  C   UNL     1      34.362 -16.653 -20.975  0.00  0.00    +0.253 C 
ATOM     18  H   UNL     1      33.758 -18.198 -22.178  0.00  0.00    +0.150 HD
BRANCH  17  21
ATOM     19 CL   UNL     1      32.852 -14.528 -20.436  0.00  0.00    -0.087 Cl
ATOM     20 CL   UNL     1      33.773 -15.200 -23.125  0.00  0.00    -0.087 Cl
ATOM     21  C   UNL     1      33.233 -15.839 -21.564  0.00  0.00    +0.234 C 
ENDBRANCH  17  21
ENDBRANCH  14  16
BRANCH  14  22
ATOM     22  C   UNL     1      36.654 -18.767 -21.993  0.00  0.00    +0.159 C 
BRANCH  22  23
ATOM     23  O   UNL     1      36.324 -18.173 -23.241  0.00  0.00    -0.380 OA
ATOM     24  H   UNL     1      35.851 -18.817 -23.792  0.00  0.00    +0.211 HD
ENDBRANCH  22  23
ENDBRANCH  14  22
ENDBRANCH   1  14
TORSDOF 8
ENDMDL
MODEL 9
REMARK VINA RESULT:      -7.8      3.461      5.468
REMARK  Name = 27200
REMARK  8 active torsions:
REMARK  status: ('A' for Active; 'I' for Inactive)
REMARK    1  A    between atoms: C_1  and  C_2
REMARK    2  A    between atoms: C_1  and  O_12
REMARK    3  A    between atoms: C_1  and  CA_14
REMARK    4  A    between atoms: C_5  and  S_8
REMARK    5  A    between atoms: CA_14  and  N_16
REMARK    6  A    between atoms: CA_14  and  C_22
REMARK    7  A    between atoms: C_17  and  C_21
REMARK    8  A    between atoms: C_22  and  O_23
REMARK                            x       y       z     vdW  Elec       q    Type
REMARK                         _______ _______ _______ _____ _____    ______ ____
ROOT
ATOM      1  C   UNL     1      33.983 -22.317 -19.402  0.00  0.00    +0.153 C 
ENDROOT
BRANCH   1   2
ATOM      2  C   UNL     1      33.671 -22.759 -17.989  0.00  0.00    +0.006 C 
ATOM      3  C   UNL     1      34.712 -23.068 -17.131  0.00  0.00    -0.001 C 
ATOM      4  C   UNL     1      32.350 -22.843 -17.584  0.00  0.00    -0.001 C 
ATOM      5  C   UNL     1      33.099 -23.565 -15.403  0.00  0.00    +0.106 C 
ATOM      6  C   UNL     1      34.425 -23.475 -15.828  0.00  0.00    +0.018 C 
ATOM      7  C   UNL     1      32.062 -23.249 -16.281  0.00  0.00    +0.018 C 
BRANCH   5   8
ATOM      8  S   UNL     1      32.738 -24.076 -13.773  0.00  0.00    +0.010 S 
ATOM      9  O   UNL     1      32.002 -23.003 -13.119  0.00  0.00    -0.169 OA
ATOM     10  O   UNL     1      32.173 -25.419 -13.813  0.00  0.00    -0.169 OA
ATOM     11  C   UNL     1      34.328 -24.207 -12.987  0.00  0.00    +0.182 C 
ENDBRANCH   5   8
ENDBRANCH   1   2
BRANCH   1  12
ATOM     12  O   UNL     1      32.731 -22.093 -20.057  0.00  0.00    -0.378 OA
ATOM     13  H   UNL     1      32.279 -22.940 -20.192  0.00  0.00    +0.211 HD
ENDBRANCH   1  12
BRANCH   1  14
ATOM     14  CA  UNL     1      34.841 -21.036 -19.482  0.00  0.00    +0.132 C 
BRANCH  14  16
ATOM     15  O   UNL     1      36.056 -18.607 -20.402  0.00  0.00    -0.272 OA
ATOM     16  N   UNL     1      34.446 -20.259 -20.641  0.00  0.00    -0.299 N 
ATOM     17  C   UNL     1      35.100 -19.095 -21.003  0.00  0.00    +0.253 C 
ATOM     18  H   UNL     1      33.689 -20.570 -21.188  0.00  0.00    +0.150 HD
BRANCH  17  21
ATOM     19 CL   UNL     1      35.126 -16.810 -22.368  0.00  0.00    -0.087 Cl
ATOM     20 CL   UNL     1      35.005 -19.435 -23.641  0.00  0.00    -0.087 Cl
ATOM     21  C   UNL     1      34.510 -18.465 -22.244  0.00  0.00    +0.234 C 
ENDBRANCH  17  21
ENDBRANCH  14  16
BRANCH  14  22
ATOM     22  C   UNL     1      36.352 -21.294 -19.533  0.00  0.00    +0.159 C 
BRANCH  22  23
ATOM     23  O   UNL     1      37.022 -20.699 -18.429  0.00  0.00    -0.380 OA
ATOM     24  H   UNL     1      37.955 -20.963 -18.436  0.00  0.00    +0.211 HD
ENDBRANCH  22  23
ENDBRANCH  14  22
ENDBRANCH   1  14
TORSDOF 8
ENDMDL
