MODEL 1
REMARK VINA RESULT:      -4.3      0.000      0.000
REMARK  Name = 5565
REMARK  9 active torsions:
REMARK  status: ('A' for Active; 'I' for Inactive)
REMARK    1  A    between atoms: C_1  and  N_2
REMARK    2  A    between atoms: C_1  and  C_11
REMARK    3  A    between atoms: N_2  and  C_5
REMARK    4  A    between atoms: C_5  and  C_6
REMARK    5  A    between atoms: C_6  and  N_7
REMARK    6  A    between atoms: C_11  and  N_12
REMARK    7  A    between atoms: N_12  and  C_15
REMARK    8  A    between atoms: C_15  and  C_16
REMARK    9  A    between atoms: C_16  and  N_17
REMARK                            x       y       z     vdW  Elec       q    Type
REMARK                         _______ _______ _______ _____ _____    ______ ____
ROOT
ATOM      1  C   UNL     1      35.228 -19.665 -21.139  0.00  0.00    -0.106 C 
ENDROOT
BRANCH   1   2
ATOM      2  N   UNL     1      36.006 -20.320 -20.096  0.00  0.00    +0.381 N 
ATOM      3  H   UNL     1      36.285 -19.625 -19.403  0.00  0.00    -0.085 HD
ATOM      4  H   UNL     1      36.828 -20.748 -20.523  0.00  0.00    -0.085 HD
BRANCH   2   5
ATOM      5  C   UNL     1      35.225 -21.362 -19.442  0.00  0.00    -0.106 C 
BRANCH   5   6
ATOM      6  C   UNL     1      33.742 -21.177 -19.740  0.00  0.00    -0.110 C 
BRANCH   6   7
ATOM      7  N   UNL     1      32.985 -22.230 -19.105  0.00  0.00    +0.379 N 
ATOM      8  H   UNL     1      32.673 -21.918 -18.185  0.00  0.00    -0.089 HD
ATOM      9  H   UNL     1      33.575 -23.058 -19.001  0.00  0.00    -0.089 HD
ATOM     10  H   UNL     1      32.175 -22.461 -19.679  0.00  0.00    -0.089 HD
ENDBRANCH   6   7
ENDBRANCH   5   6
ENDBRANCH   2   5
ENDBRANCH   1   2
BRANCH   1  11
ATOM     11  C   UNL     1      35.768 -18.261 -21.377  0.00  0.00    -0.106 C 
BRANCH  11  12
ATOM     12  N   UNL     1      36.164 -18.099 -22.770  0.00  0.00    +0.381 N 
ATOM     13  H   UNL     1      37.115 -18.449 -22.890  0.00  0.00    -0.085 HD
ATOM     14  H   UNL     1      36.116 -17.109 -23.009  0.00  0.00    -0.085 HD
BRANCH  12  15
ATOM     15  C   UNL     1      35.270 -18.834 -23.653  0.00  0.00    -0.106 C 
BRANCH  15  16
ATOM     16  C   UNL     1      34.652 -17.896 -24.683  0.00  0.00    -0.110 C 
BRANCH  16  17
ATOM     17  N   UNL     1      35.224 -16.579 -24.544  0.00  0.00    +0.379 N 
ATOM     18  H   UNL     1      35.600 -16.275 -25.443  0.00  0.00    -0.089 HD
ATOM     19  H   UNL     1      35.974 -16.606 -23.853  0.00  0.00    -0.089 HD
ATOM     20  H   UNL     1      34.504 -15.925 -24.239  0.00  0.00    -0.089 HD
ENDBRANCH  16  17
ENDBRANCH  15  16
ENDBRANCH  12  15
ENDBRANCH  11  12
ENDBRANCH   1  11
TORSDOF 9
ENDMDL
MODEL 2
REMARK VINA RESULT:      -4.3      1.593      2.282
REMARK  Name = 5565
REMARK  9 active torsions:
REMARK  status: ('A' for Active; 'I' for Inactive)
REMARK    1  A    between atoms: C_1  and  N_2
REMARK    2  A    between atoms: C_1  and  C_11
REMARK    3  A    between atoms: N_2  and  C_5
REMARK    4  A    between atoms: C_5  and  C_6
REMARK    5  A    between atoms: C_6  and  N_7
REMARK    6  A    between atoms: C_11  and  N_12
REMARK    7  A    between atoms: N_12  and  C_15
REMARK    8  A    between atoms: C_15  and  C_16
REMARK    9  A    between atoms: C_16  and  N_17
REMARK                            x       y       z     vdW  Elec       q    Type
REMARK                         _______ _______ _______ _____ _____    ______ ____
ROOT
ATOM      1  C   UNL     1      33.296 -20.078 -20.575  0.00  0.00    -0.106 C 
ENDROOT
BRANCH   1   2
ATOM      2  N   UNL     1      32.855 -20.991 -19.530  0.00  0.00    +0.381 N 
ATOM      3  H   UNL     1      32.010 -21.470 -19.840  0.00  0.00    -0.085 HD
ATOM      4  H   UNL     1      32.670 -20.452 -18.683  0.00  0.00    -0.085 HD
BRANCH   2   5
ATOM      5  C   UNL     1      33.885 -21.981 -19.236  0.00  0.00    -0.106 C 
BRANCH   5   6
ATOM      6  C   UNL     1      33.466 -22.843 -18.051  0.00  0.00    -0.110 C 
BRANCH   6   7
ATOM      7  N   UNL     1      32.077 -22.601 -17.743  0.00  0.00    +0.379 N 
ATOM      8  H   UNL     1      31.570 -22.383 -18.601  0.00  0.00    -0.089 HD
ATOM      9  H   UNL     1      32.004 -21.815 -17.096  0.00  0.00    -0.089 HD
ATOM     10  H   UNL     1      31.674 -23.433 -17.312  0.00  0.00    -0.089 HD
ENDBRANCH   6   7
ENDBRANCH   5   6
ENDBRANCH   2   5
ENDBRANCH   1   2
BRANCH   1  11
ATOM     11  C   UNL     1      34.815 -20.123 -20.689  0.00  0.00    -0.106 C 
BRANCH  11  12
ATOM     12  N   UNL     1      35.359 -18.773 -20.748  0.00  0.00    +0.381 N 
ATOM     13  H   UNL     1      36.233 -18.788 -21.273  0.00  0.00    -0.085 HD
ATOM     14  H   UNL     1      35.521 -18.445 -19.796  0.00  0.00    -0.085 HD
BRANCH  12  15
ATOM     15  C   UNL     1      34.426 -17.865 -21.400  0.00  0.00    -0.106 C 
BRANCH  15  16
ATOM     16  C   UNL     1      35.144 -17.038 -22.460  0.00  0.00    -0.110 C 
BRANCH  16  17
ATOM     17  N   UNL     1      35.898 -17.911 -23.327  0.00  0.00    +0.379 N 
ATOM     18  H   UNL     1      35.628 -18.879 -23.153  0.00  0.00    -0.089 HD
ATOM     19  H   UNL     1      36.894 -17.797 -23.140  0.00  0.00    -0.089 HD
ATOM     20  H   UNL     1      35.706 -17.674 -24.300  0.00  0.00    -0.089 HD
ENDBRANCH  16  17
ENDBRANCH  15  16
ENDBRANCH  12  15
ENDBRANCH  11  12
ENDBRANCH   1  11
TORSDOF 9
ENDMDL
MODEL 3
REMARK VINA RESULT:      -4.3      2.178      2.500
REMARK  Name = 5565
REMARK  9 active torsions:
REMARK  status: ('A' for Active; 'I' for Inactive)
REMARK    1  A    between atoms: C_1  and  N_2
REMARK    2  A    between atoms: C_1  and  C_11
REMARK    3  A    between atoms: N_2  and  C_5
REMARK    4  A    between atoms: C_5  and  C_6
REMARK    5  A    between atoms: C_6  and  N_7
REMARK    6  A    between atoms: C_11  and  N_12
REMARK    7  A    between atoms: N_12  and  C_15
REMARK    8  A    between atoms: C_15  and  C_16
REMARK    9  A    between atoms: C_16  and  N_17
REMARK                            x       y       z     vdW  Elec       q    Type
REMARK                         _______ _______ _______ _____ _____    ______ ____
ROOT
ATOM      1  C   UNL     1      35.173 -17.571 -21.382  0.00  0.00    -0.106 C 
ENDROOT
BRANCH   1   2
ATOM      2  N   UNL     1      35.288 -18.830 -20.657  0.00  0.00    +0.381 N 
ATOM      3  H   UNL     1      34.991 -18.688 -19.692  0.00  0.00    -0.085 HD
ATOM      4  H   UNL     1      36.261 -19.136 -20.690  0.00  0.00    -0.085 HD
BRANCH   2   5
ATOM      5  C   UNL     1      34.457 -19.859 -21.268  0.00  0.00    -0.106 C 
BRANCH   5   6
ATOM      6  C   UNL     1      33.030 -19.767 -20.741  0.00  0.00    -0.110 C 
BRANCH   6   7
ATOM      7  N   UNL     1      32.823 -20.771 -19.724  0.00  0.00    +0.379 N 
ATOM      8  H   UNL     1      33.638 -20.808 -19.112  0.00  0.00    -0.089 HD
ATOM      9  H   UNL     1      32.688 -21.681 -20.166  0.00  0.00    -0.089 HD
ATOM     10  H   UNL     1      31.996 -20.534 -19.175  0.00  0.00    -0.089 HD
ENDBRANCH   6   7
ENDBRANCH   5   6
ENDBRANCH   2   5
ENDBRANCH   1   2
BRANCH   1  11
ATOM     11  C   UNL     1      35.605 -17.771 -22.829  0.00  0.00    -0.106 C 
BRANCH  11  12
ATOM     12  N   UNL     1      35.463 -16.529 -23.577  0.00  0.00    +0.381 N 
ATOM     13  H   UNL     1      34.996 -16.724 -24.462  0.00  0.00    -0.085 HD
ATOM     14  H   UNL     1      36.391 -16.140 -23.741  0.00  0.00    -0.085 HD
BRANCH  12  15
ATOM     15  C   UNL     1      34.678 -15.558 -22.827  0.00  0.00    -0.106 C 
BRANCH  15  16
ATOM     16  C   UNL     1      33.899 -14.657 -23.778  0.00  0.00    -0.110 C 
BRANCH  16  17
ATOM     17  N   UNL     1      34.177 -13.275 -23.472  0.00  0.00    +0.379 N 
ATOM     18  H   UNL     1      33.897 -12.690 -24.259  0.00  0.00    -0.089 HD
ATOM     19  H   UNL     1      35.176 -13.159 -23.300  0.00  0.00    -0.089 HD
ATOM     20  H   UNL     1      33.655 -12.998 -22.641  0.00  0.00    -0.089 HD
ENDBRANCH  16  17
ENDBRANCH  15  16
ENDBRANCH  12  15
ENDBRANCH  11  12
ENDBRANCH   1  11
TORSDOF 9
ENDMDL
MODEL 4
REMARK VINA RESULT:      -4.3      1.957      5.497
REMARK  Name = 5565
REMARK  9 active torsions:
REMARK  status: ('A' for Active; 'I' for Inactive)
REMARK    1  A    between atoms: C_1  and  N_2
REMARK    2  A    between atoms: C_1  and  C_11
REMARK    3  A    between atoms: N_2  and  C_5
REMARK    4  A    between atoms: C_5  and  C_6
REMARK    5  A    between atoms: C_6  and  N_7
REMARK    6  A    between atoms: C_11  and  N_12
REMARK    7  A    between atoms: N_12  and  C_15
REMARK    8  A    between atoms: C_15  and  C_16
REMARK    9  A    between atoms: C_16  and  N_17
REMARK                            x       y       z     vdW  Elec       q    Type
REMARK                         _______ _______ _______ _____ _____    ______ ____
ROOT
ATOM      1  C   UNL     1      35.760 -18.253 -22.894  0.00  0.00    -0.106 C 
ENDROOT
BRANCH   1   2
ATOM      2  N   UNL     1      35.408 -17.092 -23.699  0.00  0.00    +0.381 N 
ATOM      3  H   UNL     1      34.667 -17.350 -24.351  0.00  0.00    -0.085 HD
ATOM      4  H   UNL     1      36.238 -16.784 -24.206  0.00  0.00    -0.085 HD
BRANCH   2   5
ATOM      5  C   UNL     1      34.943 -15.997 -22.857  0.00  0.00    -0.106 C 
BRANCH   5   6
ATOM      6  C   UNL     1      34.122 -15.010 -23.677  0.00  0.00    -0.110 C 
BRANCH   6   7
ATOM      7  N   UNL     1      34.240 -13.689 -23.106  0.00  0.00    +0.379 N 
ATOM      8  H   UNL     1      34.585 -13.762 -22.149  0.00  0.00    -0.089 HD
ATOM      9  H   UNL     1      33.326 -13.236 -23.105  0.00  0.00    -0.089 HD
ATOM     10  H   UNL     1      34.893 -13.135 -23.661  0.00  0.00    -0.089 HD
ENDBRANCH   6   7
ENDBRANCH   5   6
ENDBRANCH   2   5
ENDBRANCH   1   2
BRANCH   1  11
ATOM     11  C   UNL     1      35.107 -18.143 -21.522  0.00  0.00    -0.106 C 
BRANCH  11  12
ATOM     12  N   UNL     1      35.721 -19.081 -20.591  0.00  0.00    +0.381 N 
ATOM     13  H   UNL     1      35.773 -18.649 -19.668  0.00  0.00    -0.085 HD
ATOM     14  H   UNL     1      36.655 -19.312 -20.930  0.00  0.00    -0.085 HD
BRANCH  12  15
ATOM     15  C   UNL     1      34.943 -20.308 -20.501  0.00  0.00    -0.106 C 
BRANCH  15  16
ATOM     16  C   UNL     1      33.457 -20.008 -20.652  0.00  0.00    -0.110 C 
BRANCH  16  17
ATOM     17  N   UNL     1      32.709 -20.749 -19.665  0.00  0.00    +0.379 N 
ATOM     18  H   UNL     1      31.842 -21.089 -20.081  0.00  0.00    -0.089 HD
ATOM     19  H   UNL     1      32.492 -20.140 -18.876  0.00  0.00    -0.089 HD
ATOM     20  H   UNL     1      33.263 -21.541 -19.341  0.00  0.00    -0.089 HD
ENDBRANCH  16  17
ENDBRANCH  15  16
ENDBRANCH  12  15
ENDBRANCH  11  12
ENDBRANCH   1  11
TORSDOF 9
ENDMDL
MODEL 5
REMARK VINA RESULT:      -4.2      1.772      5.578
REMARK  Name = 5565
REMARK  9 active torsions:
REMARK  status: ('A' for Active; 'I' for Inactive)
REMARK    1  A    between atoms: C_1  and  N_2
REMARK    2  A    between atoms: C_1  and  C_11
REMARK    3  A    between atoms: N_2  and  C_5
REMARK    4  A    between atoms: C_5  and  C_6
REMARK    5  A    between atoms: C_6  and  N_7
REMARK    6  A    between atoms: C_11  and  N_12
REMARK    7  A    between atoms: N_12  and  C_15
REMARK    8  A    between atoms: C_15  and  C_16
REMARK    9  A    between atoms: C_16  and  N_17
REMARK                            x       y       z     vdW  Elec       q    Type
REMARK                         _______ _______ _______ _____ _____    ______ ____
ROOT
ATOM      1  C   UNL     1      34.929 -19.458 -20.958  0.00  0.00    -0.106 C 
ENDROOT
BRANCH   1   2
ATOM      2  N   UNL     1      35.300 -18.055 -20.837  0.00  0.00    +0.381 N 
ATOM      3  H   UNL     1      36.180 -17.899 -21.328  0.00  0.00    -0.085 HD
ATOM      4  H   UNL     1      35.399 -17.829 -19.846  0.00  0.00    -0.085 HD
BRANCH   2   5
ATOM      5  C   UNL     1      34.272 -17.195 -21.410  0.00  0.00    -0.106 C 
BRANCH   5   6
ATOM      6  C   UNL     1      34.903 -16.163 -22.336  0.00  0.00    -0.110 C 
BRANCH   6   7
ATOM      7  N   UNL     1      35.593 -16.834 -23.412  0.00  0.00    +0.379 N 
ATOM      8  H   UNL     1      34.927 -17.395 -23.945  0.00  0.00    -0.089 HD
ATOM      9  H   UNL     1      36.317 -17.442 -23.026  0.00  0.00    -0.089 HD
ATOM     10  H   UNL     1      36.022 -16.142 -24.026  0.00  0.00    -0.089 HD
ENDBRANCH   6   7
ENDBRANCH   5   6
ENDBRANCH   2   5
ENDBRANCH   1   2
BRANCH   1  11
ATOM     11  C   UNL     1      33.412 -19.590 -20.962  0.00  0.00    -0.106 C 
BRANCH  11  12
ATOM     12  N   UNL     1      33.000 -20.741 -20.170  0.00  0.00    +0.381 N 
ATOM     13  H   UNL     1      32.485 -21.389 -20.765  0.00  0.00    -0.085 HD
ATOM     14  H   UNL     1      32.411 -20.415 -19.403  0.00  0.00    -0.085 HD
BRANCH  12  15
ATOM     15  C   UNL     1      34.156 -21.425 -19.607  0.00  0.00    -0.106 C 
BRANCH  15  16
ATOM     16  C   UNL     1      33.709 -22.580 -18.719  0.00  0.00    -0.110 C 
BRANCH  16  17
ATOM     17  N   UNL     1      32.378 -22.325 -18.226  0.00  0.00    +0.379 N 
ATOM     18  H   UNL     1      32.301 -22.660 -17.265  0.00  0.00    -0.089 HD
ATOM     19  H   UNL     1      31.699 -22.812 -18.812  0.00  0.00    -0.089 HD
ATOM     20  H   UNL     1      32.190 -21.323 -18.251  0.00  0.00    -0.089 HD
ENDBRANCH  16  17
ENDBRANCH  15  16
ENDBRANCH  12  15
ENDBRANCH  11  12
ENDBRANCH   1  11
TORSDOF 9
ENDMDL
MODEL 6
REMARK VINA RESULT:      -4.2      9.276     10.641
REMARK  Name = 5565
REMARK  9 active torsions:
REMARK  status: ('A' for Active; 'I' for Inactive)
REMARK    1  A    between atoms: C_1  and  N_2
REMARK    2  A    between atoms: C_1  and  C_11
REMARK    3  A    between atoms: N_2  and  C_5
REMARK    4  A    between atoms: C_5  and  C_6
REMARK    5  A    between atoms: C_6  and  N_7
REMARK    6  A    between atoms: C_11  and  N_12
REMARK    7  A    between atoms: N_12  and  C_15
REMARK    8  A    between atoms: C_15  and  C_16
REMARK    9  A    between atoms: C_16  and  N_17
REMARK                            x       y       z     vdW  Elec       q    Type
REMARK                         _______ _______ _______ _____ _____    ______ ____
ROOT
ATOM      1  C   UNL     1      35.892 -24.961 -15.066  0.00  0.00    -0.106 C 
ENDROOT
BRANCH   1   2
ATOM      2  N   UNL     1      35.905 -26.416 -14.990  0.00  0.00    +0.381 N 
ATOM      3  H   UNL     1      35.686 -26.800 -15.909  0.00  0.00    -0.085 HD
ATOM      4  H   UNL     1      35.208 -26.711 -14.305  0.00  0.00    -0.085 HD
BRANCH   2   5
ATOM      5  C   UNL     1      37.211 -26.903 -14.565  0.00  0.00    -0.106 C 
BRANCH   5   6
ATOM      6  C   UNL     1      38.245 -25.787 -14.649  0.00  0.00    -0.110 C 
BRANCH   6   7
ATOM      7  N   UNL     1      39.437 -26.177 -13.935  0.00  0.00    +0.379 N 
ATOM      8  H   UNL     1      40.135 -25.435 -14.006  0.00  0.00    -0.089 HD
ATOM      9  H   UNL     1      39.812 -27.035 -14.341  0.00  0.00    -0.089 HD
ATOM     10  H   UNL     1      39.210 -26.337 -12.953  0.00  0.00    -0.089 HD
ENDBRANCH   6   7
ENDBRANCH   5   6
ENDBRANCH   2   5
ENDBRANCH   1   2
BRANCH   1  11
ATOM     11  C   UNL     1      34.759 -24.413 -14.209  0.00  0.00    -0.106 C 
BRANCH  11  12
ATOM     12  N   UNL     1      35.241 -23.328 -13.364  0.00  0.00    +0.381 N 
ATOM     13  H   UNL     1      34.458 -22.721 -13.120  0.00  0.00    -0.085 HD
ATOM     14  H   UNL     1      35.950 -22.805 -13.877  0.00  0.00    -0.085 HD
BRANCH  12  15
ATOM     15  C   UNL     1      35.840 -23.848 -12.143  0.00  0.00    -0.106 C 
BRANCH  15  16
ATOM     16  C   UNL     1      37.037 -22.996 -11.735  0.00  0.00    -0.110 C 
BRANCH  16  17
ATOM     17  N   UNL     1      38.199 -23.836 -11.578  0.00  0.00    +0.379 N 
ATOM     18  H   UNL     1      38.976 -23.445 -12.110  0.00  0.00    -0.089 HD
ATOM     19  H   UNL     1      37.989 -24.774 -11.922  0.00  0.00    -0.089 HD
ATOM     20  H   UNL     1      38.454 -23.886 -10.592  0.00  0.00    -0.089 HD
ENDBRANCH  16  17
ENDBRANCH  15  16
ENDBRANCH  12  15
ENDBRANCH  11  12
ENDBRANCH   1  11
TORSDOF 9
ENDMDL
MODEL 7
REMARK VINA RESULT:      -4.2      9.271     10.523
REMARK  Name = 5565
REMARK  9 active torsions:
REMARK  status: ('A' for Active; 'I' for Inactive)
REMARK    1  A    between atoms: C_1  and  N_2
REMARK    2  A    between atoms: C_1  and  C_11
REMARK    3  A    between atoms: N_2  and  C_5
REMARK    4  A    between atoms: C_5  and  C_6
REMARK    5  A    between atoms: C_6  and  N_7
REMARK    6  A    between atoms: C_11  and  N_12
REMARK    7  A    between atoms: N_12  and  C_15
REMARK    8  A    between atoms: C_15  and  C_16
REMARK    9  A    between atoms: C_16  and  N_17
REMARK                            x       y       z     vdW  Elec       q    Type
REMARK                         _______ _______ _______ _____ _____    ______ ____
ROOT
ATOM      1  C   UNL     1      34.656 -24.414 -14.334  0.00  0.00    -0.106 C 
ENDROOT
BRANCH   1   2
ATOM      2  N   UNL     1      35.030 -23.355 -13.405  0.00  0.00    +0.381 N 
ATOM      3  H   UNL     1      34.188 -22.867 -13.100  0.00  0.00    -0.085 HD
ATOM      4  H   UNL     1      35.662 -22.712 -13.883  0.00  0.00    -0.085 HD
BRANCH   2   5
ATOM      5  C   UNL     1      35.715 -23.903 -12.242  0.00  0.00    -0.106 C 
BRANCH   5   6
ATOM      6  C   UNL     1      36.969 -23.093 -11.937  0.00  0.00    -0.110 C 
BRANCH   6   7
ATOM      7  N   UNL     1      38.015 -23.976 -11.475  0.00  0.00    +0.379 N 
ATOM      8  H   UNL     1      37.605 -24.858 -11.168  0.00  0.00    -0.089 HD
ATOM      9  H   UNL     1      38.508 -23.540 -10.695  0.00  0.00    -0.089 HD
ATOM     10  H   UNL     1      38.672 -24.152 -12.235  0.00  0.00    -0.089 HD
ENDBRANCH   6   7
ENDBRANCH   5   6
ENDBRANCH   2   5
ENDBRANCH   1   2
BRANCH   1  11
ATOM     11  C   UNL     1      35.900 -24.945 -15.034  0.00  0.00    -0.106 C 
BRANCH  11  12
ATOM     12  N   UNL     1      35.921 -26.401 -14.995  0.00  0.00    +0.381 N 
ATOM     13  H   UNL     1      35.698 -26.763 -15.922  0.00  0.00    -0.085 HD
ATOM     14  H   UNL     1      35.234 -26.719 -14.312  0.00  0.00    -0.085 HD
BRANCH  12  15
ATOM     15  C   UNL     1      37.233 -26.890 -14.595  0.00  0.00    -0.106 C 
BRANCH  15  16
ATOM     16  C   UNL     1      38.258 -25.763 -14.641  0.00  0.00    -0.110 C 
BRANCH  16  17
ATOM     17  N   UNL     1      39.445 -26.156 -13.923  0.00  0.00    +0.379 N 
ATOM     18  H   UNL     1      39.917 -26.905 -14.430  0.00  0.00    -0.089 HD
ATOM     19  H   UNL     1      39.186 -26.487 -12.993  0.00  0.00    -0.089 HD
ATOM     20  H   UNL     1      40.072 -25.357 -13.836  0.00  0.00    -0.089 HD
ENDBRANCH  16  17
ENDBRANCH  15  16
ENDBRANCH  12  15
ENDBRANCH  11  12
ENDBRANCH   1  11
TORSDOF 9
ENDMDL
MODEL 8
REMARK VINA RESULT:      -4.2      1.393      1.611
REMARK  Name = 5565
REMARK  9 active torsions:
REMARK  status: ('A' for Active; 'I' for Inactive)
REMARK    1  A    between atoms: C_1  and  N_2
REMARK    2  A    between atoms: C_1  and  C_11
REMARK    3  A    between atoms: N_2  and  C_5
REMARK    4  A    between atoms: C_5  and  C_6
REMARK    5  A    between atoms: C_6  and  N_7
REMARK    6  A    between atoms: C_11  and  N_12
REMARK    7  A    between atoms: N_12  and  C_15
REMARK    8  A    between atoms: C_15  and  C_16
REMARK    9  A    between atoms: C_16  and  N_17
REMARK                            x       y       z     vdW  Elec       q    Type
REMARK                         _______ _______ _______ _____ _____    ______ ____
ROOT
ATOM      1  C   UNL     1      34.454 -18.423 -21.525  0.00  0.00    -0.106 C 
ENDROOT
BRANCH   1   2
ATOM      2  N   UNL     1      35.348 -19.148 -20.632  0.00  0.00    +0.381 N 
ATOM      3  H   UNL     1      35.404 -18.653 -19.742  0.00  0.00    -0.085 HD
ATOM      4  H   UNL     1      36.269 -19.202 -21.069  0.00  0.00    -0.085 HD
BRANCH   2   5
ATOM      5  C   UNL     1      34.862 -20.502 -20.398  0.00  0.00    -0.106 C 
BRANCH   5   6
ATOM      6  C   UNL     1      33.347 -20.500 -20.238  0.00  0.00    -0.110 C 
BRANCH   6   7
ATOM      7  N   UNL     1      32.921 -21.746 -19.646  0.00  0.00    +0.379 N 
ATOM      8  H   UNL     1      32.815 -22.451 -20.377  0.00  0.00    -0.089 HD
ATOM      9  H   UNL     1      32.027 -21.610 -19.173  0.00  0.00    -0.089 HD
ATOM     10  H   UNL     1      33.619 -22.059 -18.972  0.00  0.00    -0.089 HD
ENDBRANCH   6   7
ENDBRANCH   5   6
ENDBRANCH   2   5
ENDBRANCH   1   2
BRANCH   1  11
ATOM     11  C   UNL     1      35.042 -18.397 -22.930  0.00  0.00    -0.106 C 
BRANCH  11  12
ATOM     12  N   UNL     1      35.763 -17.151 -23.155  0.00  0.00    +0.381 N 
ATOM     13  H   UNL     1      36.560 -17.331 -23.765  0.00  0.00    -0.085 HD
ATOM     14  H   UNL     1      36.079 -16.790 -22.255  0.00  0.00    -0.085 HD
BRANCH  12  15
ATOM     15  C   UNL     1      34.900 -16.156 -23.777  0.00  0.00    -0.106 C 
BRANCH  15  16
ATOM     16  C   UNL     1      34.427 -16.644 -25.142  0.00  0.00    -0.110 C 
BRANCH  16  17
ATOM     17  N   UNL     1      33.546 -15.663 -25.728  0.00  0.00    +0.379 N 
ATOM     18  H   UNL     1      32.582 -15.991 -25.666  0.00  0.00    -0.089 HD
ATOM     19  H   UNL     1      33.796 -15.524 -26.707  0.00  0.00    -0.089 HD
ATOM     20  H   UNL     1      33.636 -14.780 -25.226  0.00  0.00    -0.089 HD
ENDBRANCH  16  17
ENDBRANCH  15  16
ENDBRANCH  12  15
ENDBRANCH  11  12
ENDBRANCH   1  11
TORSDOF 9
ENDMDL
MODEL 9
REMARK VINA RESULT:      -4.2      2.335      3.769
REMARK  Name = 5565
REMARK  9 active torsions:
REMARK  status: ('A' for Active; 'I' for Inactive)
REMARK    1  A    between atoms: C_1  and  N_2
REMARK    2  A    between atoms: C_1  and  C_11
REMARK    3  A    between atoms: N_2  and  C_5
REMARK    4  A    between atoms: C_5  and  C_6
REMARK    5  A    between atoms: C_6  and  N_7
REMARK    6  A    between atoms: C_11  and  N_12
REMARK    7  A    between atoms: N_12  and  C_15
REMARK    8  A    between atoms: C_15  and  C_16
REMARK    9  A    between atoms: C_16  and  N_17
REMARK                            x       y       z     vdW  Elec       q    Type
REMARK                         _______ _______ _______ _____ _____    ______ ____
ROOT
ATOM      1  C   UNL     1      34.503 -18.322 -24.713  0.00  0.00    -0.106 C 
ENDROOT
BRANCH   1   2
ATOM      2  N   UNL     1      35.417 -18.698 -23.642  0.00  0.00    +0.381 N 
ATOM      3  H   UNL     1      35.841 -17.855 -23.254  0.00  0.00    -0.085 HD
ATOM      4  H   UNL     1      36.134 -19.313 -24.029  0.00  0.00    -0.085 HD
BRANCH   2   5
ATOM      5  C   UNL     1      34.713 -19.411 -22.585  0.00  0.00    -0.106 C 
BRANCH   5   6
ATOM      6  C   UNL     1      34.745 -18.606 -21.292  0.00  0.00    -0.110 C 
BRANCH   6   7
ATOM      7  N   UNL     1      36.032 -18.762 -20.656  0.00  0.00    +0.379 N 
ATOM      8  H   UNL     1      36.709 -19.106 -21.337  0.00  0.00    -0.089 HD
ATOM      9  H   UNL     1      35.953 -19.429 -19.887  0.00  0.00    -0.089 HD
ATOM     10  H   UNL     1      36.344 -17.861 -20.292  0.00  0.00    -0.089 HD
ENDBRANCH   6   7
ENDBRANCH   5   6
ENDBRANCH   2   5
ENDBRANCH   1   2
BRANCH   1  11
ATOM     11  C   UNL     1      34.618 -16.827 -24.983  0.00  0.00    -0.106 C 
BRANCH  11  12
ATOM     12  N   UNL     1      35.399 -16.181 -23.936  0.00  0.00    +0.381 N 
ATOM     13  H   UNL     1      36.131 -15.616 -24.366  0.00  0.00    -0.085 HD
ATOM     14  H   UNL     1      35.807 -16.902 -23.342  0.00  0.00    -0.085 HD
BRANCH  12  15
ATOM     15  C   UNL     1      34.556 -15.324 -23.114  0.00  0.00    -0.106 C 
BRANCH  15  16
ATOM     16  C   UNL     1      33.756 -14.367 -23.990  0.00  0.00    -0.110 C 
BRANCH  16  17
ATOM     17  N   UNL     1      34.097 -13.005 -23.658  0.00  0.00    +0.379 N 
ATOM     18  H   UNL     1      33.307 -12.396 -23.871  0.00  0.00    -0.089 HD
ATOM     19  H   UNL     1      34.908 -12.715 -24.203  0.00  0.00    -0.089 HD
ATOM     20  H   UNL     1      34.315 -12.941 -22.664  0.00  0.00    -0.089 HD
ENDBRANCH  16  17
ENDBRANCH  15  16
ENDBRANCH  12  15
ENDBRANCH  11  12
ENDBRANCH   1  11
TORSDOF 9
ENDMDL
