MODEL 1
REMARK VINA RESULT:      -5.3      0.000      0.000
REMARK  Name = 444720
REMARK  7 active torsions:
REMARK  status: ('A' for Active; 'I' for Inactive)
REMARK    1  A    between atoms: C_1  and  N_2
REMARK    2  A    between atoms: C_1  and  P_6
REMARK    3  A    between atoms: C_1  and  C_12
REMARK    4  A    between atoms: P_6  and  O_8
REMARK    5  A    between atoms: P_6  and  O_10
REMARK    6  A    between atoms: C_12  and  C_13
REMARK    7  A    between atoms: C_13  and  C_14
REMARK                            x       y       z     vdW  Elec       q    Type
REMARK                         _______ _______ _______ _____ _____    ______ ____
ROOT
ATOM      1  C   UNL     1      34.616 -16.997 -22.262  0.00  0.00    +0.042 C 
ENDROOT
BRANCH   1   2
ATOM      2  N   UNL     1      35.548 -16.617 -23.316  0.00  0.00    +0.389 N 
ATOM      3  H   UNL     1      36.499 -16.847 -23.028  0.00  0.00    -0.088 HD
ATOM      4  H   UNL     1      35.478 -15.614 -23.487  0.00  0.00    -0.088 HD
ATOM      5  H   UNL     1      35.320 -17.125 -24.171  0.00  0.00    -0.088 HD
ENDBRANCH   1   2
BRANCH   1   6
ATOM      6  P   UNL     1      34.064 -15.404 -21.675  0.00  0.00    +0.317 P 
ATOM      7  O   UNL     1      32.580 -15.216 -21.562  0.00  0.00    -0.260 OA
BRANCH   6   8
ATOM      8  O   UNL     1      34.876 -15.203 -20.290  0.00  0.00    -0.325 OA
ATOM      9  H   UNL     1      34.704 -14.315 -19.939  0.00  0.00    +0.220 HD
ENDBRANCH   6   8
BRANCH   6  10
ATOM     10  O   UNL     1      34.803 -14.365 -22.671  0.00  0.00    -0.325 OA
ATOM     11  H   UNL     1      34.195 -13.644 -22.897  0.00  0.00    +0.220 HD
ENDBRANCH   6  10
ENDBRANCH   1   6
BRANCH   1  12
ATOM     12  C   UNL     1      35.256 -17.925 -21.228  0.00  0.00    -0.010 C 
BRANCH  12  13
ATOM     13  C   UNL     1      34.854 -19.399 -21.339  0.00  0.00    -0.002 C 
BRANCH  13  14
ATOM     14  C   UNL     1      33.392 -19.604 -20.935  0.00  0.00    -0.000 C 
ATOM     15  C   UNL     1      33.244 -20.743 -19.939  0.00  0.00    -0.000 C 
ENDBRANCH  13  14
ENDBRANCH  12  13
ENDBRANCH   1  12
TORSDOF 7
ENDMDL
MODEL 2
REMARK VINA RESULT:      -5.3     11.541     12.480
REMARK  Name = 444720
REMARK  7 active torsions:
REMARK  status: ('A' for Active; 'I' for Inactive)
REMARK    1  A    between atoms: C_1  and  N_2
REMARK    2  A    between atoms: C_1  and  P_6
REMARK    3  A    between atoms: C_1  and  C_12
REMARK    4  A    between atoms: P_6  and  O_8
REMARK    5  A    between atoms: P_6  and  O_10
REMARK    6  A    between atoms: C_12  and  C_13
REMARK    7  A    between atoms: C_13  and  C_14
REMARK                            x       y       z     vdW  Elec       q    Type
REMARK                         _______ _______ _______ _____ _____    ______ ____
ROOT
ATOM      1  C   UNL     1      36.683 -25.383 -12.531  0.00  0.00    +0.042 C 
ENDROOT
BRANCH   1   2
ATOM      2  N   UNL     1      35.710 -25.297 -13.612  0.00  0.00    +0.389 N 
ATOM      3  H   UNL     1      35.258 -26.202 -13.736  0.00  0.00    -0.088 HD
ATOM      4  H   UNL     1      36.184 -25.032 -14.476  0.00  0.00    -0.088 HD
ATOM      5  H   UNL     1      35.007 -24.595 -13.381  0.00  0.00    -0.088 HD
ENDBRANCH   1   2
BRANCH   1   6
ATOM      6  P   UNL     1      36.076 -24.144 -11.398  0.00  0.00    +0.317 P 
ATOM      7  O   UNL     1      37.077 -23.137 -10.916  0.00  0.00    -0.260 OA
BRANCH   6   8
ATOM      8  O   UNL     1      34.802 -23.511 -12.169  0.00  0.00    -0.325 OA
ATOM      9  H   UNL     1      34.902 -22.548 -12.224  0.00  0.00    +0.220 HD
ENDBRANCH   6   8
BRANCH   6  10
ATOM     10  O   UNL     1      35.381 -25.020 -10.229  0.00  0.00    -0.325 OA
ATOM     11  H   UNL     1      35.335 -25.949 -10.504  0.00  0.00    +0.220 HD
ENDBRANCH   6  10
ENDBRANCH   1   6
BRANCH   1  12
ATOM     12  C   UNL     1      38.120 -25.213 -13.027  0.00  0.00    -0.010 C 
BRANCH  12  13
ATOM     13  C   UNL     1      38.257 -24.762 -14.485  0.00  0.00    -0.002 C 
BRANCH  13  14
ATOM     14  C   UNL     1      39.675 -25.007 -15.006  0.00  0.00    -0.000 C 
ATOM     15  C   UNL     1      40.422 -26.009 -14.139  0.00  0.00    -0.000 C 
ENDBRANCH  13  14
ENDBRANCH  12  13
ENDBRANCH   1  12
TORSDOF 7
ENDMDL
MODEL 3
REMARK VINA RESULT:      -5.3     12.214     12.777
REMARK  Name = 444720
REMARK  7 active torsions:
REMARK  status: ('A' for Active; 'I' for Inactive)
REMARK    1  A    between atoms: C_1  and  N_2
REMARK    2  A    between atoms: C_1  and  P_6
REMARK    3  A    between atoms: C_1  and  C_12
REMARK    4  A    between atoms: P_6  and  O_8
REMARK    5  A    between atoms: P_6  and  O_10
REMARK    6  A    between atoms: C_12  and  C_13
REMARK    7  A    between atoms: C_13  and  C_14
REMARK                            x       y       z     vdW  Elec       q    Type
REMARK                         _______ _______ _______ _____ _____    ______ ____
ROOT
ATOM      1  C   UNL     1      38.710 -25.603 -14.003  0.00  0.00    +0.042 C 
ENDROOT
BRANCH   1   2
ATOM      2  N   UNL     1      38.118 -26.880 -14.378  0.00  0.00    +0.389 N 
ATOM      3  H   UNL     1      38.039 -27.474 -13.553  0.00  0.00    -0.088 HD
ATOM      4  H   UNL     1      38.708 -27.338 -15.072  0.00  0.00    -0.088 HD
ATOM      5  H   UNL     1      37.190 -26.722 -14.772  0.00  0.00    -0.088 HD
ENDBRANCH   1   2
BRANCH   1   6
ATOM      6  P   UNL     1      40.396 -25.810 -14.550  0.00  0.00    +0.317 P 
ATOM      7  O   UNL     1      41.157 -26.949 -13.938  0.00  0.00    -0.260 OA
BRANCH   6   8
ATOM      8  O   UNL     1      40.271 -25.873 -16.162  0.00  0.00    -0.325 OA
ATOM      9  H   UNL     1      39.867 -26.716 -16.423  0.00  0.00    +0.220 HD
ENDBRANCH   6   8
BRANCH   6  10
ATOM     10  O   UNL     1      41.048 -24.351 -14.303  0.00  0.00    -0.325 OA
ATOM     11  H   UNL     1      41.562 -24.090 -15.084  0.00  0.00    +0.220 HD
ENDBRANCH   6  10
ENDBRANCH   1   6
BRANCH   1  12
ATOM     12  C   UNL     1      38.504 -25.280 -12.521  0.00  0.00    -0.010 C 
BRANCH  12  13
ATOM     13  C   UNL     1      37.824 -23.937 -12.236  0.00  0.00    -0.002 C 
BRANCH  13  14
ATOM     14  C   UNL     1      36.502 -24.136 -11.490  0.00  0.00    -0.000 C 
ATOM     15  C   UNL     1      35.326 -24.203 -12.451  0.00  0.00    -0.000 C 
ENDBRANCH  13  14
ENDBRANCH  12  13
ENDBRANCH   1  12
TORSDOF 7
ENDMDL
MODEL 4
REMARK VINA RESULT:      -5.3      5.642      6.275
REMARK  Name = 444720
REMARK  7 active torsions:
REMARK  status: ('A' for Active; 'I' for Inactive)
REMARK    1  A    between atoms: C_1  and  N_2
REMARK    2  A    between atoms: C_1  and  P_6
REMARK    3  A    between atoms: C_1  and  C_12
REMARK    4  A    between atoms: P_6  and  O_8
REMARK    5  A    between atoms: P_6  and  O_10
REMARK    6  A    between atoms: C_12  and  C_13
REMARK    7  A    between atoms: C_13  and  C_14
REMARK                            x       y       z     vdW  Elec       q    Type
REMARK                         _______ _______ _______ _____ _____    ______ ____
ROOT
ATOM      1  C   UNL     1      33.875 -21.338 -20.104  0.00  0.00    +0.042 C 
ENDROOT
BRANCH   1   2
ATOM      2  N   UNL     1      32.695 -20.589 -19.693  0.00  0.00    +0.389 N 
ATOM      3  H   UNL     1      32.642 -20.571 -18.675  0.00  0.00    -0.088 HD
ATOM      4  H   UNL     1      31.860 -21.035 -20.071  0.00  0.00    -0.088 HD
ATOM      5  H   UNL     1      32.760 -19.634 -20.046  0.00  0.00    -0.088 HD
ENDBRANCH   1   2
BRANCH   1   6
ATOM      6  P   UNL     1      33.972 -22.587 -18.833  0.00  0.00    +0.317 P 
ATOM      7  O   UNL     1      35.117 -22.469 -17.871  0.00  0.00    -0.260 OA
BRANCH   6   8
ATOM      8  O   UNL     1      32.508 -22.548 -18.145  0.00  0.00    -0.325 OA
ATOM      9  H   UNL     1      32.494 -21.872 -17.449  0.00  0.00    +0.220 HD
ENDBRANCH   6   8
BRANCH   6  10
ATOM     10  O   UNL     1      33.932 -23.971 -19.669  0.00  0.00    -0.325 OA
ATOM     11  H   UNL     1      34.244 -24.698 -19.107  0.00  0.00    +0.220 HD
ENDBRANCH   6  10
ENDBRANCH   1   6
BRANCH   1  12
ATOM     12  C   UNL     1      35.102 -20.441 -20.279  0.00  0.00    -0.010 C 
BRANCH  12  13
ATOM     13  C   UNL     1      34.854 -19.141 -21.051  0.00  0.00    -0.002 C 
BRANCH  13  14
ATOM     14  C   UNL     1      34.721 -19.408 -22.552  0.00  0.00    -0.000 C 
ATOM     15  C   UNL     1      35.427 -18.340 -23.372  0.00  0.00    -0.000 C 
ENDBRANCH  13  14
ENDBRANCH  12  13
ENDBRANCH   1  12
TORSDOF 7
ENDMDL
MODEL 5
REMARK VINA RESULT:      -5.3     10.181     11.110
REMARK  Name = 444720
REMARK  7 active torsions:
REMARK  status: ('A' for Active; 'I' for Inactive)
REMARK    1  A    between atoms: C_1  and  N_2
REMARK    2  A    between atoms: C_1  and  P_6
REMARK    3  A    between atoms: C_1  and  C_12
REMARK    4  A    between atoms: P_6  and  O_8
REMARK    5  A    between atoms: P_6  and  O_10
REMARK    6  A    between atoms: C_12  and  C_13
REMARK    7  A    between atoms: C_13  and  C_14
REMARK                            x       y       z     vdW  Elec       q    Type
REMARK                         _______ _______ _______ _____ _____    ______ ____
ROOT
ATOM      1  C   UNL     1      36.356 -24.839 -14.941  0.00  0.00    +0.042 C 
ENDROOT
BRANCH   1   2
ATOM      2  N   UNL     1      35.423 -25.036 -13.840  0.00  0.00    +0.389 N 
ATOM      3  H   UNL     1      35.925 -24.975 -12.954  0.00  0.00    -0.088 HD
ATOM      4  H   UNL     1      34.988 -25.955 -13.922  0.00  0.00    -0.088 HD
ATOM      5  H   UNL     1      34.702 -24.314 -13.872  0.00  0.00    -0.088 HD
ENDBRANCH   1   2
BRANCH   1   6
ATOM      6  P   UNL     1      37.085 -26.461 -15.093  0.00  0.00    +0.317 P 
ATOM      7  O   UNL     1      36.549 -27.330 -16.191  0.00  0.00    -0.260 OA
BRANCH   6   8
ATOM      8  O   UNL     1      38.672 -26.161 -15.186  0.00  0.00    -0.325 OA
ATOM      9  H   UNL     1      39.158 -27.000 -15.238  0.00  0.00    +0.220 HD
ENDBRANCH   6   8
BRANCH   6  10
ATOM     10  O   UNL     1      36.929 -27.078 -13.605  0.00  0.00    -0.325 OA
ATOM     11  H   UNL     1      37.075 -26.380 -12.948  0.00  0.00    +0.220 HD
ENDBRANCH   6  10
ENDBRANCH   1   6
BRANCH   1  12
ATOM     12  C   UNL     1      37.317 -23.676 -14.688  0.00  0.00    -0.010 C 
BRANCH  12  13
ATOM     13  C   UNL     1      37.643 -22.821 -15.917  0.00  0.00    -0.002 C 
BRANCH  13  14
ATOM     14  C   UNL     1      36.366 -22.385 -16.639  0.00  0.00    -0.000 C 
ATOM     15  C   UNL     1      36.682 -21.667 -17.942  0.00  0.00    -0.000 C 
ENDBRANCH  13  14
ENDBRANCH  12  13
ENDBRANCH   1  12
TORSDOF 7
ENDMDL
MODEL 6
REMARK VINA RESULT:      -5.2      8.948     10.121
REMARK  Name = 444720
REMARK  7 active torsions:
REMARK  status: ('A' for Active; 'I' for Inactive)
REMARK    1  A    between atoms: C_1  and  N_2
REMARK    2  A    between atoms: C_1  and  P_6
REMARK    3  A    between atoms: C_1  and  C_12
REMARK    4  A    between atoms: P_6  and  O_8
REMARK    5  A    between atoms: P_6  and  O_10
REMARK    6  A    between atoms: C_12  and  C_13
REMARK    7  A    between atoms: C_13  and  C_14
REMARK                            x       y       z     vdW  Elec       q    Type
REMARK                         _______ _______ _______ _____ _____    ______ ____
ROOT
ATOM      1  C   UNL     1      29.324 -23.757 -15.160  0.00  0.00    +0.042 C 
ENDROOT
BRANCH   1   2
ATOM      2  N   UNL     1      29.696 -25.107 -15.561  0.00  0.00    +0.389 N 
ATOM      3  H   UNL     1      30.175 -25.571 -14.790  0.00  0.00    -0.088 HD
ATOM      4  H   UNL     1      30.316 -25.063 -16.370  0.00  0.00    -0.088 HD
ATOM      5  H   UNL     1      28.856 -25.633 -15.804  0.00  0.00    -0.088 HD
ENDBRANCH   1   2
BRANCH   1   6
ATOM      6  P   UNL     1      28.182 -23.297 -16.452  0.00  0.00    +0.317 P 
ATOM      7  O   UNL     1      27.831 -24.369 -17.441  0.00  0.00    -0.260 OA
BRANCH   6   8
ATOM      8  O   UNL     1      26.919 -22.683 -15.647  0.00  0.00    -0.325 OA
ATOM      9  H   UNL     1      26.145 -22.654 -16.232  0.00  0.00    +0.220 HD
ENDBRANCH   6   8
BRANCH   6  10
ATOM     10  O   UNL     1      28.864 -21.979 -17.097  0.00  0.00    -0.325 OA
ATOM     11  H   UNL     1      28.744 -21.990 -18.060  0.00  0.00    +0.220 HD
ENDBRANCH   6  10
ENDBRANCH   1   6
BRANCH   1  12
ATOM     12  C   UNL     1      30.542 -22.852 -14.965  0.00  0.00    -0.010 C 
BRANCH  12  13
ATOM     13  C   UNL     1      31.798 -23.553 -14.439  0.00  0.00    -0.002 C 
BRANCH  13  14
ATOM     14  C   UNL     1      32.977 -23.364 -15.396  0.00  0.00    -0.000 C 
ATOM     15  C   UNL     1      32.506 -23.193 -16.832  0.00  0.00    -0.000 C 
ENDBRANCH  13  14
ENDBRANCH  12  13
ENDBRANCH   1  12
TORSDOF 7
ENDMDL
MODEL 7
REMARK VINA RESULT:      -5.2     10.703     11.687
REMARK  Name = 444720
REMARK  7 active torsions:
REMARK  status: ('A' for Active; 'I' for Inactive)
REMARK    1  A    between atoms: C_1  and  N_2
REMARK    2  A    between atoms: C_1  and  P_6
REMARK    3  A    between atoms: C_1  and  C_12
REMARK    4  A    between atoms: P_6  and  O_8
REMARK    5  A    between atoms: P_6  and  O_10
REMARK    6  A    between atoms: C_12  and  C_13
REMARK    7  A    between atoms: C_13  and  C_14
REMARK                            x       y       z     vdW  Elec       q    Type
REMARK                         _______ _______ _______ _____ _____    ______ ____
ROOT
ATOM      1  C   UNL     1      37.155 -23.474 -12.475  0.00  0.00    +0.042 C 
ENDROOT
BRANCH   1   2
ATOM      2  N   UNL     1      38.332 -23.708 -11.648  0.00  0.00    +0.389 N 
ATOM      3  H   UNL     1      38.042 -24.072 -10.741  0.00  0.00    -0.088 HD
ATOM      4  H   UNL     1      38.835 -22.830 -11.517  0.00  0.00    -0.088 HD
ATOM      5  H   UNL     1      38.941 -24.384 -12.107  0.00  0.00    -0.088 HD
ENDBRANCH   1   2
BRANCH   1   6
ATOM      6  P   UNL     1      35.900 -24.376 -11.583  0.00  0.00    +0.317 P 
ATOM      7  O   UNL     1      34.480 -24.113 -11.986  0.00  0.00    -0.260 OA
BRANCH   6   8
ATOM      8  O   UNL     1      36.364 -25.920 -11.723  0.00  0.00    -0.325 OA
ATOM      9  H   UNL     1      37.060 -25.990 -12.396  0.00  0.00    +0.220 HD
ENDBRANCH   6   8
BRANCH   6  10
ATOM     10  O   UNL     1      36.236 -24.047 -10.035  0.00  0.00    -0.325 OA
ATOM     11  H   UNL     1      35.561 -23.449  -9.677  0.00  0.00    +0.220 HD
ENDBRANCH   6  10
ENDBRANCH   1   6
BRANCH   1  12
ATOM     12  C   UNL     1      37.382 -23.875 -13.934  0.00  0.00    -0.010 C 
BRANCH  12  13
ATOM     13  C   UNL     1      36.632 -23.029 -14.967  0.00  0.00    -0.002 C 
BRANCH  13  14
ATOM     14  C   UNL     1      37.579 -22.523 -16.058  0.00  0.00    -0.000 C 
ATOM     15  C   UNL     1      36.813 -21.912 -17.220  0.00  0.00    -0.000 C 
ENDBRANCH  13  14
ENDBRANCH  12  13
ENDBRANCH   1  12
TORSDOF 7
ENDMDL
MODEL 8
REMARK VINA RESULT:      -5.1     10.373     11.208
REMARK  Name = 444720
REMARK  7 active torsions:
REMARK  status: ('A' for Active; 'I' for Inactive)
REMARK    1  A    between atoms: C_1  and  N_2
REMARK    2  A    between atoms: C_1  and  P_6
REMARK    3  A    between atoms: C_1  and  C_12
REMARK    4  A    between atoms: P_6  and  O_8
REMARK    5  A    between atoms: P_6  and  O_10
REMARK    6  A    between atoms: C_12  and  C_13
REMARK    7  A    between atoms: C_13  and  C_14
REMARK                            x       y       z     vdW  Elec       q    Type
REMARK                         _______ _______ _______ _____ _____    ______ ____
ROOT
ATOM      1  C   UNL     1      37.377 -24.657 -14.694  0.00  0.00    +0.042 C 
ENDROOT
BRANCH   1   2
ATOM      2  N   UNL     1      38.626 -24.453 -15.416  0.00  0.00    +0.389 N 
ATOM      3  H   UNL     1      38.899 -25.322 -15.876  0.00  0.00    -0.088 HD
ATOM      4  H   UNL     1      39.356 -24.172 -14.762  0.00  0.00    -0.088 HD
ATOM      5  H   UNL     1      38.498 -23.723 -16.118  0.00  0.00    -0.088 HD
ENDBRANCH   1   2
BRANCH   1   6
ATOM      6  P   UNL     1      37.215 -26.434 -14.746  0.00  0.00    +0.317 P 
ATOM      7  O   UNL     1      36.358 -26.990 -15.845  0.00  0.00    -0.260 OA
BRANCH   6   8
ATOM      8  O   UNL     1      38.745 -26.959 -14.755  0.00  0.00    -0.325 OA
ATOM      9  H   UNL     1      39.018 -27.177 -13.850  0.00  0.00    +0.220 HD
ENDBRANCH   6   8
BRANCH   6  10
ATOM     10  O   UNL     1      36.722 -26.805 -13.251  0.00  0.00    -0.325 OA
ATOM     11  H   UNL     1      35.837 -27.201 -13.290  0.00  0.00    +0.220 HD
ENDBRANCH   6  10
ENDBRANCH   1   6
BRANCH   1  12
ATOM     12  C   UNL     1      36.225 -23.844 -15.287  0.00  0.00    -0.010 C 
BRANCH  12  13
ATOM     13  C   UNL     1      35.011 -23.669 -14.369  0.00  0.00    -0.002 C 
BRANCH  13  14
ATOM     14  C   UNL     1      33.747 -23.366 -15.177  0.00  0.00    -0.000 C 
ATOM     15  C   UNL     1      34.053 -23.246 -16.662  0.00  0.00    -0.000 C 
ENDBRANCH  13  14
ENDBRANCH  12  13
ENDBRANCH   1  12
TORSDOF 7
ENDMDL
MODEL 9
REMARK VINA RESULT:      -5.1     11.587     12.157
REMARK  Name = 444720
REMARK  7 active torsions:
REMARK  status: ('A' for Active; 'I' for Inactive)
REMARK    1  A    between atoms: C_1  and  N_2
REMARK    2  A    between atoms: C_1  and  P_6
REMARK    3  A    between atoms: C_1  and  C_12
REMARK    4  A    between atoms: P_6  and  O_8
REMARK    5  A    between atoms: P_6  and  O_10
REMARK    6  A    between atoms: C_12  and  C_13
REMARK    7  A    between atoms: C_13  and  C_14
REMARK                            x       y       z     vdW  Elec       q    Type
REMARK                         _______ _______ _______ _____ _____    ______ ____
ROOT
ATOM      1  C   UNL     1      37.619 -26.503 -13.629  0.00  0.00    +0.042 C 
ENDROOT
BRANCH   1   2
ATOM      2  N   UNL     1      38.978 -26.197 -14.054  0.00  0.00    +0.389 N 
ATOM      3  H   UNL     1      39.599 -26.957 -13.778  0.00  0.00    -0.088 HD
ATOM      4  H   UNL     1      39.286 -25.330 -13.613  0.00  0.00    -0.088 HD
ATOM      5  H   UNL     1      39.001 -26.090 -15.068  0.00  0.00    -0.088 HD
ENDBRANCH   1   2
BRANCH   1   6
ATOM      6  P   UNL     1      36.689 -26.154 -15.112  0.00  0.00    +0.317 P 
ATOM      7  O   UNL     1      36.668 -27.233 -16.153  0.00  0.00    -0.260 OA
BRANCH   6   8
ATOM      8  O   UNL     1      35.230 -25.725 -14.558  0.00  0.00    -0.325 OA
ATOM      9  H   UNL     1      34.674 -25.435 -15.298  0.00  0.00    +0.220 HD
ENDBRANCH   6   8
BRANCH   6  10
ATOM     10  O   UNL     1      37.304 -24.744 -15.612  0.00  0.00    -0.325 OA
ATOM     11  H   UNL     1      37.238 -24.686 -16.578  0.00  0.00    +0.220 HD
ENDBRANCH   6  10
ENDBRANCH   1   6
BRANCH   1  12
ATOM     12  C   UNL     1      37.216 -25.734 -12.369  0.00  0.00    -0.010 C 
BRANCH  12  13
ATOM     13  C   UNL     1      38.053 -24.485 -12.073  0.00  0.00    -0.002 C 
BRANCH  13  14
ATOM     14  C   UNL     1      37.172 -23.235 -12.005  0.00  0.00    -0.000 C 
ATOM     15  C   UNL     1      35.699 -23.598 -11.897  0.00  0.00    -0.000 C 
ENDBRANCH  13  14
ENDBRANCH  12  13
ENDBRANCH   1  12
TORSDOF 7
ENDMDL
