MODEL 1
REMARK VINA RESULT:     -13.8      0.000      0.000
REMARK  Name = 24771824
REMARK  4 active torsions:
REMARK  status: ('A' for Active; 'I' for Inactive)
REMARK    1  A    between atoms: C_11  and  C_18
REMARK    2  A    between atoms: C_21  and  O_24
REMARK    3  A    between atoms: O_24  and  C_26
REMARK    4  A    between atoms: C_28  and  C_34
REMARK                            x       y       z     vdW  Elec       q    Type
REMARK                         _______ _______ _______ _____ _____    ______ ____
ROOT
ATOM      1  O   UNL     1      33.255 -13.716 -23.780  0.00  0.00    -0.252 OA
ATOM      2  N   UNL     1      33.520 -15.656 -22.548  0.00  0.00    -0.263 N 
ATOM      3  N   UNL     1      32.660 -13.703 -21.539  0.00  0.00    -0.252 N 
ATOM      4  N   UNL     1      32.212 -11.550 -22.460  0.00  0.00    -0.133 NA
ATOM      5  N   UNL     1      31.765 -10.272 -22.320  0.00  0.00    -0.145 NA
ATOM      6  C   UNL     1      35.357 -17.085 -23.413  0.00  0.00    +0.044 C 
ATOM      7  C   UNL     1      34.699 -17.182 -20.974  0.00  0.00    +0.044 C 
ATOM      8  C   UNL     1      34.028 -16.394 -23.713  0.00  0.00    +0.099 C 
ATOM      9  C   UNL     1      33.392 -16.456 -21.314  0.00  0.00    +0.099 C 
ATOM     10  C   UNL     1      35.230 -17.924 -22.171  0.00  0.00    -0.041 C 
ATOM     11  C   UNL     1      35.542 -19.228 -22.138  0.00  0.00    -0.008 C 
ATOM     12  C   UNL     1      33.157 -14.299 -22.697  0.00  0.00    +0.309 C 
ATOM     13  C   UNL     1      32.194 -12.373 -21.389  0.00  0.00    +0.157 C 
ATOM     14  C   UNL     1      31.740 -11.979 -20.147  0.00  0.00    +0.038 C 
ATOM     15  C   UNL     1      31.285 -10.679 -20.005  0.00  0.00    +0.025 C 
ATOM     16  C   UNL     1      31.316  -9.860 -21.117  0.00  0.00    +0.122 C 
ATOM     17  H   UNL     1      32.630 -14.269 -20.734  0.00  0.00    +0.158 HD
ENDROOT
BRANCH  11  18
ATOM     18  C   UNL     1      35.442 -20.105 -20.961  0.00  0.00    +0.002 C 
ATOM     19  C   UNL     1      34.220 -20.692 -20.632  0.00  0.00    +0.038 C 
ATOM     20  C   UNL     1      36.568 -20.350 -20.177  0.00  0.00    +0.000 C 
ATOM     21  C   UNL     1      34.126 -21.525 -19.517  0.00  0.00    +0.147 C 
ATOM     22  C   UNL     1      36.474 -21.183 -19.062  0.00  0.00    +0.003 C 
ATOM     23  C   UNL     1      35.252 -21.771 -18.732  0.00  0.00    +0.038 C 
BRANCH  21  24
ATOM     24  O   UNL     1      32.934 -22.098 -19.196  0.00  0.00    -0.436 OA
BRANCH  24  26
ATOM     25  N   UNL     1      31.539 -22.483 -17.366  0.00  0.00    -0.210 NA
ATOM     26  C   UNL     1      32.775 -22.574 -17.905  0.00  0.00    +0.230 C 
ATOM     27  C   UNL     1      33.871 -23.109 -17.247  0.00  0.00    +0.058 C 
ATOM     28  C   UNL     1      32.428 -23.505 -15.364  0.00  0.00    +0.091 C 
ATOM     29  C   UNL     1      33.686 -23.581 -15.952  0.00  0.00    +0.010 C 
ATOM     30  C   UNL     1      31.397 -22.952 -16.106  0.00  0.00    +0.106 C 
BRANCH  28  34
ATOM     31  F   UNL     1      31.105 -23.448 -13.371  0.00  0.00    -0.166 F 
ATOM     32  F   UNL     1      32.003 -25.350 -13.902  0.00  0.00    -0.166 F 
ATOM     33  F   UNL     1      33.248 -23.736 -13.145  0.00  0.00    -0.166 F 
ATOM     34  C   UNL     1      32.199 -23.999 -13.979  0.00  0.00    +0.420 C 
ENDBRANCH  28  34
ENDBRANCH  24  26
ENDBRANCH  21  24
ENDBRANCH  11  18
TORSDOF 4
ENDMDL
MODEL 2
REMARK VINA RESULT:     -13.8      1.752      2.347
REMARK  Name = 24771824
REMARK  4 active torsions:
REMARK  status: ('A' for Active; 'I' for Inactive)
REMARK    1  A    between atoms: C_11  and  C_18
REMARK    2  A    between atoms: C_21  and  O_24
REMARK    3  A    between atoms: O_24  and  C_26
REMARK    4  A    between atoms: C_28  and  C_34
REMARK                            x       y       z     vdW  Elec       q    Type
REMARK                         _______ _______ _______ _____ _____    ______ ____
ROOT
ATOM      1  O   UNL     1      33.427 -12.882 -24.518  0.00  0.00    -0.252 OA
ATOM      2  N   UNL     1      33.359 -14.843 -23.292  0.00  0.00    -0.263 N 
ATOM      3  N   UNL     1      32.677 -12.800 -22.325  0.00  0.00    -0.252 N 
ATOM      4  N   UNL     1      32.567 -10.605 -23.251  0.00  0.00    -0.133 NA
ATOM      5  N   UNL     1      32.273  -9.283 -23.129  0.00  0.00    -0.145 NA
ATOM      6  C   UNL     1      35.062 -16.487 -24.040  0.00  0.00    +0.044 C 
ATOM      7  C   UNL     1      34.222 -16.507 -21.656  0.00  0.00    +0.044 C 
ATOM      8  C   UNL     1      33.855 -15.635 -24.427  0.00  0.00    +0.099 C 
ATOM      9  C   UNL     1      33.044 -15.624 -22.080  0.00  0.00    +0.099 C 
ATOM     10  C   UNL     1      34.743 -17.307 -22.821  0.00  0.00    -0.041 C 
ATOM     11  C   UNL     1      34.887 -18.639 -22.780  0.00  0.00    -0.008 C 
ATOM     12  C   UNL     1      33.179 -13.450 -23.451  0.00  0.00    +0.309 C 
ATOM     13  C   UNL     1      32.369 -11.423 -22.194  0.00  0.00    +0.157 C 
ATOM     14  C   UNL     1      31.879 -10.978 -20.983  0.00  0.00    +0.038 C 
ATOM     15  C   UNL     1      31.580  -9.632 -20.860  0.00  0.00    +0.025 C 
ATOM     16  C   UNL     1      31.793  -8.821 -21.956  0.00  0.00    +0.122 C 
ATOM     17  H   UNL     1      32.519 -13.360 -21.531  0.00  0.00    +0.158 HD
ENDROOT
BRANCH  11  18
ATOM     18  C   UNL     1      34.595 -19.500 -21.624  0.00  0.00    +0.002 C 
ATOM     19  C   UNL     1      35.638 -20.120 -20.935  0.00  0.00    +0.038 C 
ATOM     20  C   UNL     1      33.276 -19.696 -21.215  0.00  0.00    +0.000 C 
ATOM     21  C   UNL     1      35.361 -20.935 -19.837  0.00  0.00    +0.147 C 
ATOM     22  C   UNL     1      32.999 -20.511 -20.118  0.00  0.00    +0.003 C 
ATOM     23  C   UNL     1      34.042 -21.130 -19.429  0.00  0.00    +0.038 C 
BRANCH  21  24
ATOM     24  O   UNL     1      36.378 -21.540 -19.166  0.00  0.00    -0.436 OA
BRANCH  24  26
ATOM     25  N   UNL     1      34.956 -22.762 -17.778  0.00  0.00    -0.210 NA
ATOM     26  C   UNL     1      36.103 -22.059 -17.912  0.00  0.00    +0.230 C 
ATOM     27  C   UNL     1      37.002 -21.838 -16.881  0.00  0.00    +0.058 C 
ATOM     28  C   UNL     1      35.532 -23.100 -15.455  0.00  0.00    +0.091 C 
ATOM     29  C   UNL     1      36.704 -22.371 -15.632  0.00  0.00    +0.010 C 
ATOM     30  C   UNL     1      34.699 -23.265 -16.550  0.00  0.00    +0.106 C 
BRANCH  28  34
ATOM     31  F   UNL     1      35.879 -23.131 -13.088  0.00  0.00    -0.166 F 
ATOM     32  F   UNL     1      33.868 -23.535 -13.794  0.00  0.00    -0.166 F 
ATOM     33  F   UNL     1      35.430 -25.023 -14.061  0.00  0.00    -0.166 F 
ATOM     34  C   UNL     1      35.184 -23.681 -14.130  0.00  0.00    +0.420 C 
ENDBRANCH  28  34
ENDBRANCH  24  26
ENDBRANCH  21  24
ENDBRANCH  11  18
TORSDOF 4
ENDMDL
MODEL 3
REMARK VINA RESULT:     -13.2      3.666      6.656
REMARK  Name = 24771824
REMARK  4 active torsions:
REMARK  status: ('A' for Active; 'I' for Inactive)
REMARK    1  A    between atoms: C_11  and  C_18
REMARK    2  A    between atoms: C_21  and  O_24
REMARK    3  A    between atoms: O_24  and  C_26
REMARK    4  A    between atoms: C_28  and  C_34
REMARK                            x       y       z     vdW  Elec       q    Type
REMARK                         _______ _______ _______ _____ _____    ______ ____
ROOT
ATOM      1  O   UNL     1      31.368  -7.627 -20.826  0.00  0.00    -0.252 OA
ATOM      2  N   UNL     1      32.316  -9.580 -21.627  0.00  0.00    -0.263 N 
ATOM      3  N   UNL     1      32.084  -7.696 -23.031  0.00  0.00    -0.252 N 
ATOM      4  N   UNL     1      31.207  -5.525 -22.582  0.00  0.00    -0.133 NA
ATOM      5  N   UNL     1      30.906  -4.263 -22.989  0.00  0.00    -0.145 NA
ATOM      6  C   UNL     1      31.462 -11.596 -20.456  0.00  0.00    +0.044 C 
ATOM      7  C   UNL     1      32.309 -11.757 -22.832  0.00  0.00    +0.044 C 
ATOM      8  C   UNL     1      32.171 -10.250 -20.326  0.00  0.00    +0.099 C 
ATOM      9  C   UNL     1      32.978 -10.387 -22.670  0.00  0.00    +0.099 C 
ATOM     10  C   UNL     1      32.145 -12.438 -21.500  0.00  0.00    -0.041 C 
ATOM     11  C   UNL     1      32.590 -13.679 -21.258  0.00  0.00    -0.008 C 
ATOM     12  C   UNL     1      31.873  -8.246 -21.767  0.00  0.00    +0.309 C 
ATOM     13  C   UNL     1      31.773  -6.382 -23.459  0.00  0.00    +0.157 C 
ATOM     14  C   UNL     1      32.065  -6.036 -24.763  0.00  0.00    +0.038 C 
ATOM     15  C   UNL     1      31.759  -4.752 -25.177  0.00  0.00    +0.025 C 
ATOM     16  C   UNL     1      31.181  -3.898 -24.258  0.00  0.00    +0.122 C 
ATOM     17  H   UNL     1      32.495  -8.289 -23.702  0.00  0.00    +0.158 HD
ENDROOT
BRANCH  11  18
ATOM     18  C   UNL     1      33.264 -14.554 -22.230  0.00  0.00    +0.002 C 
ATOM     19  C   UNL     1      34.252 -15.440 -21.800  0.00  0.00    +0.038 C 
ATOM     20  C   UNL     1      32.915 -14.499 -23.578  0.00  0.00    +0.000 C 
ATOM     21  C   UNL     1      34.890 -16.272 -22.721  0.00  0.00    +0.147 C 
ATOM     22  C   UNL     1      33.553 -15.329 -24.499  0.00  0.00    +0.003 C 
ATOM     23  C   UNL     1      34.541 -16.216 -24.070  0.00  0.00    +0.038 C 
BRANCH  21  24
ATOM     24  O   UNL     1      35.854 -17.136 -22.303  0.00  0.00    -0.436 OA
BRANCH  24  26
ATOM     25  N   UNL     1      36.401 -18.911 -20.891  0.00  0.00    -0.210 NA
ATOM     26  C   UNL     1      35.451 -18.258 -21.598  0.00  0.00    +0.230 C 
ATOM     27  C   UNL     1      34.122 -18.644 -21.652  0.00  0.00    +0.058 C 
ATOM     28  C   UNL     1      34.691 -20.472 -20.196  0.00  0.00    +0.091 C 
ATOM     29  C   UNL     1      33.742 -19.774 -20.936  0.00  0.00    +0.010 C 
ATOM     30  C   UNL     1      35.995 -20.004 -20.207  0.00  0.00    +0.106 C 
BRANCH  28  34
ATOM     31  F   UNL     1      33.035 -21.660 -18.942  0.00  0.00    -0.166 F 
ATOM     32  F   UNL     1      34.403 -22.846 -20.137  0.00  0.00    -0.166 F 
ATOM     33  F   UNL     1      35.108 -21.876 -18.323  0.00  0.00    -0.166 F 
ATOM     34  C   UNL     1      34.316 -21.685 -19.420  0.00  0.00    +0.420 C 
ENDBRANCH  28  34
ENDBRANCH  24  26
ENDBRANCH  21  24
ENDBRANCH  11  18
TORSDOF 4
ENDMDL
MODEL 4
REMARK VINA RESULT:     -13.1      1.892      2.540
REMARK  Name = 24771824
REMARK  4 active torsions:
REMARK  status: ('A' for Active; 'I' for Inactive)
REMARK    1  A    between atoms: C_11  and  C_18
REMARK    2  A    between atoms: C_21  and  O_24
REMARK    3  A    between atoms: O_24  and  C_26
REMARK    4  A    between atoms: C_28  and  C_34
REMARK                            x       y       z     vdW  Elec       q    Type
REMARK                         _______ _______ _______ _____ _____    ______ ____
ROOT
ATOM      1  O   UNL     1      33.436 -13.427 -23.793  0.00  0.00    -0.252 OA
ATOM      2  N   UNL     1      33.462 -15.418 -22.615  0.00  0.00    -0.263 N 
ATOM      3  N   UNL     1      32.626 -13.448 -21.620  0.00  0.00    -0.252 N 
ATOM      4  N   UNL     1      32.400 -11.242 -22.497  0.00  0.00    -0.133 NA
ATOM      5  N   UNL     1      32.019  -9.944 -22.352  0.00  0.00    -0.145 NA
ATOM      6  C   UNL     1      35.285 -16.932 -23.354  0.00  0.00    +0.044 C 
ATOM      7  C   UNL     1      34.387 -17.065 -20.996  0.00  0.00    +0.044 C 
ATOM      8  C   UNL     1      34.036 -16.149 -23.754  0.00  0.00    +0.099 C 
ATOM      9  C   UNL     1      33.165 -16.248 -21.431  0.00  0.00    +0.099 C 
ATOM     10  C   UNL     1      34.987 -17.801 -22.163  0.00  0.00    -0.041 C 
ATOM     11  C   UNL     1      35.215 -19.122 -22.150  0.00  0.00    -0.008 C 
ATOM     12  C   UNL     1      33.197 -14.037 -22.747  0.00  0.00    +0.309 C 
ATOM     13  C   UNL     1      32.228 -12.097 -21.466  0.00  0.00    +0.157 C 
ATOM     14  C   UNL     1      31.679 -11.714 -20.258  0.00  0.00    +0.038 C 
ATOM     15  C   UNL     1      31.291 -10.393 -20.112  0.00  0.00    +0.025 C 
ATOM     16  C   UNL     1      31.480  -9.543 -21.183  0.00  0.00    +0.122 C 
ATOM     17  H   UNL     1      32.483 -14.037 -20.844  0.00  0.00    +0.158 HD
ENDROOT
BRANCH  11  18
ATOM     18  C   UNL     1      34.948 -20.029 -21.023  0.00  0.00    +0.002 C 
ATOM     19  C   UNL     1      36.005 -20.505 -20.247  0.00  0.00    +0.038 C 
ATOM     20  C   UNL     1      33.640 -20.410 -20.729  0.00  0.00    +0.000 C 
ATOM     21  C   UNL     1      35.752 -21.364 -19.176  0.00  0.00    +0.147 C 
ATOM     22  C   UNL     1      33.387 -21.268 -19.659  0.00  0.00    +0.003 C 
ATOM     23  C   UNL     1      34.444 -21.745 -18.882  0.00  0.00    +0.038 C 
BRANCH  21  24
ATOM     24  O   UNL     1      36.783 -21.829 -18.420  0.00  0.00    -0.436 OA
BRANCH  24  26
ATOM     25  N   UNL     1      37.480 -22.260 -16.235  0.00  0.00    -0.210 NA
ATOM     26  C   UNL     1      36.488 -22.306 -17.153  0.00  0.00    +0.230 C 
ATOM     27  C   UNL     1      35.217 -22.795 -16.899  0.00  0.00    +0.058 C 
ATOM     28  C   UNL     1      35.940 -23.236 -14.648  0.00  0.00    +0.091 C 
ATOM     29  C   UNL     1      34.946 -23.268 -15.620  0.00  0.00    +0.010 C 
ATOM     30  C   UNL     1      37.179 -22.728 -15.003  0.00  0.00    +0.106 C 
BRANCH  28  34
ATOM     31  F   UNL     1      35.997 -25.056 -13.095  0.00  0.00    -0.166 F 
ATOM     32  F   UNL     1      36.382 -23.074 -12.303  0.00  0.00    -0.166 F 
ATOM     33  F   UNL     1      34.368 -23.627 -12.907  0.00  0.00    -0.166 F 
ATOM     34  C   UNL     1      35.681 -23.737 -13.271  0.00  0.00    +0.420 C 
ENDBRANCH  28  34
ENDBRANCH  24  26
ENDBRANCH  21  24
ENDBRANCH  11  18
TORSDOF 4
ENDMDL
MODEL 5
REMARK VINA RESULT:     -12.2      6.351     11.697
REMARK  Name = 24771824
REMARK  4 active torsions:
REMARK  status: ('A' for Active; 'I' for Inactive)
REMARK    1  A    between atoms: C_11  and  C_18
REMARK    2  A    between atoms: C_21  and  O_24
REMARK    3  A    between atoms: O_24  and  C_26
REMARK    4  A    between atoms: C_28  and  C_34
REMARK                            x       y       z     vdW  Elec       q    Type
REMARK                         _______ _______ _______ _____ _____    ______ ____
ROOT
ATOM      1  O   UNL     1      36.332 -21.151 -19.685  0.00  0.00    -0.252 OA
ATOM      2  N   UNL     1      35.351 -19.387 -20.816  0.00  0.00    -0.263 N 
ATOM      3  N   UNL     1      34.045 -20.826 -19.475  0.00  0.00    -0.252 N 
ATOM      4  N   UNL     1      34.674 -22.703 -18.146  0.00  0.00    -0.133 NA
ATOM      5  N   UNL     1      34.348 -23.714 -17.296  0.00  0.00    -0.145 NA
ATOM      6  C   UNL     1      36.580 -18.790 -22.888  0.00  0.00    +0.044 C 
ATOM      7  C   UNL     1      34.103 -18.329 -22.691  0.00  0.00    +0.044 C 
ATOM      8  C   UNL     1      36.641 -18.953 -21.371  0.00  0.00    +0.099 C 
ATOM      9  C   UNL     1      34.201 -18.534 -21.175  0.00  0.00    +0.099 C 
ATOM     10  C   UNL     1      35.427 -17.900 -23.264  0.00  0.00    -0.041 C 
ATOM     11  C   UNL     1      35.569 -16.806 -24.026  0.00  0.00    -0.008 C 
ATOM     12  C   UNL     1      35.311 -20.518 -19.970  0.00  0.00    +0.309 C 
ATOM     13  C   UNL     1      33.702 -21.878 -18.590  0.00  0.00    +0.157 C 
ATOM     14  C   UNL     1      32.378 -22.011 -18.220  0.00  0.00    +0.038 C 
ATOM     15  C   UNL     1      32.047 -23.039 -17.355  0.00  0.00    +0.025 C 
ATOM     16  C   UNL     1      33.062 -23.867 -16.918  0.00  0.00    +0.122 C 
ATOM     17  H   UNL     1      33.306 -20.248 -19.775  0.00  0.00    +0.158 HD
ENDROOT
BRANCH  11  18
ATOM     18  C   UNL     1      34.487 -15.895 -24.430  0.00  0.00    +0.002 C 
ATOM     19  C   UNL     1      34.035 -14.915 -23.545  0.00  0.00    +0.038 C 
ATOM     20  C   UNL     1      33.914 -16.010 -25.696  0.00  0.00    +0.000 C 
ATOM     21  C   UNL     1      33.010 -14.050 -23.929  0.00  0.00    +0.147 C 
ATOM     22  C   UNL     1      32.890 -15.145 -26.079  0.00  0.00    +0.003 C 
ATOM     23  C   UNL     1      32.437 -14.164 -25.195  0.00  0.00    +0.038 C 
BRANCH  21  24
ATOM     24  O   UNL     1      32.568 -13.094 -23.066  0.00  0.00    -0.436 OA
BRANCH  24  26
ATOM     25  N   UNL     1      32.299 -10.814 -22.653  0.00  0.00    -0.210 NA
ATOM     26  C   UNL     1      32.996 -11.793 -23.273  0.00  0.00    +0.230 C 
ATOM     27  C   UNL     1      34.094 -11.568 -24.087  0.00  0.00    +0.058 C 
ATOM     28  C   UNL     1      33.813  -9.219 -23.656  0.00  0.00    +0.091 C 
ATOM     29  C   UNL     1      34.504 -10.253 -24.278  0.00  0.00    +0.010 C 
ATOM     30  C   UNL     1      32.727  -9.549 -22.862  0.00  0.00    +0.106 C 
BRANCH  28  34
ATOM     31  F   UNL     1      34.620  -7.505 -25.119  0.00  0.00    -0.166 F 
ATOM     32  F   UNL     1      33.240  -6.898 -23.559  0.00  0.00    -0.166 F 
ATOM     33  F   UNL     1      35.281  -7.449 -23.047  0.00  0.00    -0.166 F 
ATOM     34  C   UNL     1      34.226  -7.802 -23.843  0.00  0.00    +0.420 C 
ENDBRANCH  28  34
ENDBRANCH  24  26
ENDBRANCH  21  24
ENDBRANCH  11  18
TORSDOF 4
ENDMDL
MODEL 6
REMARK VINA RESULT:     -11.8      3.550      4.527
REMARK  Name = 24771824
REMARK  4 active torsions:
REMARK  status: ('A' for Active; 'I' for Inactive)
REMARK    1  A    between atoms: C_11  and  C_18
REMARK    2  A    between atoms: C_21  and  O_24
REMARK    3  A    between atoms: O_24  and  C_26
REMARK    4  A    between atoms: C_28  and  C_34
REMARK                            x       y       z     vdW  Elec       q    Type
REMARK                         _______ _______ _______ _____ _____    ______ ____
ROOT
ATOM      1  O   UNL     1      35.669 -15.987 -23.676  0.00  0.00    -0.252 OA
ATOM      2  N   UNL     1      35.039 -17.739 -22.302  0.00  0.00    -0.263 N 
ATOM      3  N   UNL     1      33.842 -15.704 -22.277  0.00  0.00    -0.252 N 
ATOM      4  N   UNL     1      34.147 -13.708 -23.545  0.00  0.00    -0.133 NA
ATOM      5  N   UNL     1      33.771 -12.442 -23.867  0.00  0.00    -0.145 NA
ATOM      6  C   UNL     1      36.952 -19.197 -21.690  0.00  0.00    +0.044 C 
ATOM      7  C   UNL     1      34.951 -19.000 -20.159  0.00  0.00    +0.044 C 
ATOM      8  C   UNL     1      36.111 -18.602 -22.817  0.00  0.00    +0.099 C 
ATOM      9  C   UNL     1      34.152 -18.375 -21.308  0.00  0.00    +0.099 C 
ATOM     10  C   UNL     1      36.060 -19.872 -20.684  0.00  0.00    -0.041 C 
ATOM     11  C   UNL     1      36.224 -21.147 -20.304  0.00  0.00    -0.008 C 
ATOM     12  C   UNL     1      34.907 -16.427 -22.810  0.00  0.00    +0.309 C 
ATOM     13  C   UNL     1      33.446 -14.385 -22.610  0.00  0.00    +0.157 C 
ATOM     14  C   UNL     1      32.353 -13.849 -21.958  0.00  0.00    +0.038 C 
ATOM     15  C   UNL     1      31.971 -12.561 -22.286  0.00  0.00    +0.025 C 
ATOM     16  C   UNL     1      32.707 -11.893 -23.245  0.00  0.00    +0.122 C 
ATOM     17  H   UNL     1      33.303 -16.162 -21.590  0.00  0.00    +0.158 HD
ENDROOT
BRANCH  11  18
ATOM     18  C   UNL     1      35.390 -21.866 -19.328  0.00  0.00    +0.002 C 
ATOM     19  C   UNL     1      35.771 -21.912 -17.987  0.00  0.00    +0.038 C 
ATOM     20  C   UNL     1      34.220 -22.501 -19.743  0.00  0.00    +0.000 C 
ATOM     21  C   UNL     1      34.979 -22.592 -17.061  0.00  0.00    +0.147 C 
ATOM     22  C   UNL     1      33.430 -23.182 -18.818  0.00  0.00    +0.003 C 
ATOM     23  C   UNL     1      33.809 -23.227 -17.476  0.00  0.00    +0.038 C 
BRANCH  21  24
ATOM     24  O   UNL     1      35.350 -22.637 -15.752  0.00  0.00    -0.436 OA
BRANCH  24  26
ATOM     25  N   UNL     1      37.661 -22.811 -15.489  0.00  0.00    -0.210 NA
ATOM     26  C   UNL     1      36.451 -23.409 -15.420  0.00  0.00    +0.230 C 
ATOM     27  C   UNL     1      36.256 -24.727 -15.042  0.00  0.00    +0.058 C 
ATOM     28  C   UNL     1      38.640 -24.902 -14.770  0.00  0.00    +0.091 C 
ATOM     29  C   UNL     1      37.377 -25.482 -14.712  0.00  0.00    +0.010 C 
ATOM     30  C   UNL     1      38.727 -23.575 -15.161  0.00  0.00    +0.106 C 
BRANCH  28  34
ATOM     31  F   UNL     1      41.026 -24.998 -14.618  0.00  0.00    -0.166 F 
ATOM     32  F   UNL     1      39.900 -26.094 -13.123  0.00  0.00    -0.166 F 
ATOM     33  F   UNL     1      39.981 -26.824 -15.170  0.00  0.00    -0.166 F 
ATOM     34  C   UNL     1      39.858 -25.684 -14.426  0.00  0.00    +0.420 C 
ENDBRANCH  28  34
ENDBRANCH  24  26
ENDBRANCH  21  24
ENDBRANCH  11  18
TORSDOF 4
ENDMDL
MODEL 7
REMARK VINA RESULT:     -11.6      4.699     10.442
REMARK  Name = 24771824
REMARK  4 active torsions:
REMARK  status: ('A' for Active; 'I' for Inactive)
REMARK    1  A    between atoms: C_11  and  C_18
REMARK    2  A    between atoms: C_21  and  O_24
REMARK    3  A    between atoms: O_24  and  C_26
REMARK    4  A    between atoms: C_28  and  C_34
REMARK                            x       y       z     vdW  Elec       q    Type
REMARK                         _______ _______ _______ _____ _____    ______ ____
ROOT
ATOM      1  O   UNL     1      33.622 -23.609 -16.756  0.00  0.00    -0.252 OA
ATOM      2  N   UNL     1      33.709 -21.901 -18.315  0.00  0.00    -0.263 N 
ATOM      3  N   UNL     1      31.639 -22.610 -17.427  0.00  0.00    -0.252 N 
ATOM      4  N   UNL     1      31.139 -24.284 -15.804  0.00  0.00    -0.133 NA
ATOM      5  N   UNL     1      30.238 -24.969 -15.050  0.00  0.00    -0.145 NA
ATOM      6  C   UNL     1      35.660 -22.106 -19.836  0.00  0.00    +0.044 C 
ATOM      7  C   UNL     1      33.558 -20.927 -20.600  0.00  0.00    +0.044 C 
ATOM      8  C   UNL     1      35.175 -21.973 -18.394  0.00  0.00    +0.099 C 
ATOM      9  C   UNL     1      33.093 -20.845 -19.141  0.00  0.00    +0.099 C 
ATOM     10  C   UNL     1      35.059 -21.018 -20.683  0.00  0.00    -0.041 C 
ATOM     11  C   UNL     1      35.796 -20.185 -21.430  0.00  0.00    -0.008 C 
ATOM     12  C   UNL     1      33.022 -22.782 -17.449  0.00  0.00    +0.309 C 
ATOM     13  C   UNL     1      30.698 -23.321 -16.642  0.00  0.00    +0.157 C 
ATOM     14  C   UNL     1      29.363 -22.994 -16.773  0.00  0.00    +0.038 C 
ATOM     15  C   UNL     1      28.447 -23.691 -16.005  0.00  0.00    +0.025 C 
ATOM     16  C   UNL     1      28.927 -24.670 -15.157  0.00  0.00    +0.122 C 
ATOM     17  H   UNL     1      31.276 -21.917 -18.025  0.00  0.00    +0.158 HD
ENDROOT
BRANCH  11  18
ATOM     18  C   UNL     1      35.275 -19.102 -22.279  0.00  0.00    +0.002 C 
ATOM     19  C   UNL     1      35.630 -17.779 -22.017  0.00  0.00    +0.038 C 
ATOM     20  C   UNL     1      34.427 -19.399 -23.346  0.00  0.00    +0.000 C 
ATOM     21  C   UNL     1      35.137 -16.752 -22.822  0.00  0.00    +0.147 C 
ATOM     22  C   UNL     1      33.934 -18.373 -24.151  0.00  0.00    +0.003 C 
ATOM     23  C   UNL     1      34.289 -17.049 -23.889  0.00  0.00    +0.038 C 
BRANCH  21  24
ATOM     24  O   UNL     1      35.483 -15.461 -22.567  0.00  0.00    -0.436 OA
BRANCH  24  26
ATOM     25  N   UNL     1      34.206 -13.616 -23.203  0.00  0.00    -0.210 NA
ATOM     26  C   UNL     1      34.466 -14.567 -22.278  0.00  0.00    +0.230 C 
ATOM     27  C   UNL     1      33.780 -14.693 -21.081  0.00  0.00    +0.058 C 
ATOM     28  C   UNL     1      32.466 -12.790 -21.742  0.00  0.00    +0.091 C 
ATOM     29  C   UNL     1      32.763 -13.783 -20.814  0.00  0.00    +0.010 C 
ATOM     30  C   UNL     1      33.210 -12.749 -22.910  0.00  0.00    +0.106 C 
BRANCH  28  34
ATOM     31  F   UNL     1      30.348 -11.873 -22.375  0.00  0.00    -0.166 F 
ATOM     32  F   UNL     1      30.803 -11.927 -20.254  0.00  0.00    -0.166 F 
ATOM     33  F   UNL     1      31.826 -10.509 -21.547  0.00  0.00    -0.166 F 
ATOM     34  C   UNL     1      31.385 -11.801 -21.485  0.00  0.00    +0.420 C 
ENDBRANCH  28  34
ENDBRANCH  24  26
ENDBRANCH  21  24
ENDBRANCH  11  18
TORSDOF 4
ENDMDL
MODEL 8
REMARK VINA RESULT:     -10.9      7.632     13.116
REMARK  Name = 24771824
REMARK  4 active torsions:
REMARK  status: ('A' for Active; 'I' for Inactive)
REMARK    1  A    between atoms: C_11  and  C_18
REMARK    2  A    between atoms: C_21  and  O_24
REMARK    3  A    between atoms: O_24  and  C_26
REMARK    4  A    between atoms: C_28  and  C_34
REMARK                            x       y       z     vdW  Elec       q    Type
REMARK                         _______ _______ _______ _____ _____    ______ ____
ROOT
ATOM      1  O   UNL     1      34.494 -19.050 -24.211  0.00  0.00    -0.252 OA
ATOM      2  N   UNL     1      34.724 -16.749 -24.177  0.00  0.00    -0.263 N 
ATOM      3  N   UNL     1      35.413 -18.050 -22.332  0.00  0.00    -0.252 N 
ATOM      4  N   UNL     1      35.376 -20.410 -21.998  0.00  0.00    -0.133 NA
ATOM      5  N   UNL     1      35.634 -21.501 -21.227  0.00  0.00    -0.145 NA
ATOM      6  C   UNL     1      33.022 -15.605 -25.577  0.00  0.00    +0.044 C 
ATOM      7  C   UNL     1      34.050 -14.426 -23.592  0.00  0.00    +0.044 C 
ATOM      8  C   UNL     1      34.166 -16.617 -25.531  0.00  0.00    +0.099 C 
ATOM      9  C   UNL     1      35.161 -15.481 -23.559  0.00  0.00    +0.099 C 
ATOM     10  C   UNL     1      33.465 -14.301 -24.973  0.00  0.00    -0.041 C 
ATOM     11  C   UNL     1      33.368 -13.129 -25.618  0.00  0.00    -0.008 C 
ATOM     12  C   UNL     1      34.845 -18.034 -23.604  0.00  0.00    +0.309 C 
ATOM     13  C   UNL     1      35.684 -19.183 -21.526  0.00  0.00    +0.157 C 
ATOM     14  C   UNL     1      36.255 -18.978 -20.285  0.00  0.00    +0.038 C 
ATOM     15  C   UNL     1      36.518 -20.088 -19.502  0.00  0.00    +0.025 C 
ATOM     16  C   UNL     1      36.192 -21.329 -20.010  0.00  0.00    +0.122 C 
ATOM     17  H   UNL     1      35.653 -17.174 -21.950  0.00  0.00    +0.158 HD
ENDROOT
BRANCH  11  18
ATOM     18  C   UNL     1      33.781 -11.821 -25.088  0.00  0.00    +0.002 C 
ATOM     19  C   UNL     1      33.074 -11.242 -24.033  0.00  0.00    +0.038 C 
ATOM     20  C   UNL     1      34.878 -11.159 -25.637  0.00  0.00    +0.000 C 
ATOM     21  C   UNL     1      33.466 -10.002 -23.529  0.00  0.00    +0.147 C 
ATOM     22  C   UNL     1      35.270  -9.919 -25.134  0.00  0.00    +0.003 C 
ATOM     23  C   UNL     1      34.563  -9.340 -24.079  0.00  0.00    +0.038 C 
BRANCH  21  24
ATOM     24  O   UNL     1      32.776  -9.437 -22.501  0.00  0.00    -0.436 OA
BRANCH  24  26
ATOM     25  N   UNL     1      32.718  -7.243 -21.710  0.00  0.00    -0.210 NA
ATOM     26  C   UNL     1      32.341  -8.132 -22.657  0.00  0.00    +0.230 C 
ATOM     27  C   UNL     1      31.559  -7.812 -23.754  0.00  0.00    +0.058 C 
ATOM     28  C   UNL     1      31.503  -5.550 -22.936  0.00  0.00    +0.091 C 
ATOM     29  C   UNL     1      31.135  -6.494 -23.889  0.00  0.00    +0.010 C 
ATOM     30  C   UNL     1      32.288  -5.972 -21.875  0.00  0.00    +0.106 C 
BRANCH  28  34
ATOM     31  F   UNL     1      30.142  -3.764 -22.111  0.00  0.00    -0.166 F 
ATOM     32  F   UNL     1      32.080  -3.229 -22.924  0.00  0.00    -0.166 F 
ATOM     33  F   UNL     1      30.481  -3.858 -24.257  0.00  0.00    -0.166 F 
ATOM     34  C   UNL     1      31.063  -4.134 -23.051  0.00  0.00    +0.420 C 
ENDBRANCH  28  34
ENDBRANCH  24  26
ENDBRANCH  21  24
ENDBRANCH  11  18
TORSDOF 4
ENDMDL
