MODEL 1
REMARK VINA RESULT:      -9.3      0.000      0.000
REMARK  Name = 15387
REMARK  5 active torsions:
REMARK  status: ('A' for Active; 'I' for Inactive)
REMARK    1  A    between atoms: C_1  and  C_2
REMARK    2  A    between atoms: C_1  and  C_11
REMARK    3  A    between atoms: C_2  and  N_3
REMARK    4  A    between atoms: C_11  and  C_13
REMARK    5  A    between atoms: C_13  and  C_15
REMARK                            x       y       z     vdW  Elec       q    Type
REMARK                         _______ _______ _______ _____ _____    ______ ____
ROOT
ATOM      1  C   UNL     1      35.424 -18.239 -23.730  0.00  0.00    -0.015 C 
ENDROOT
BRANCH   1   2
ATOM      2  C   UNL     1      34.565 -17.617 -24.832  0.00  0.00    -0.077 C 
BRANCH   2   3
ATOM      3  N   UNL     1      33.985 -16.356 -24.371  0.00  0.00    +0.387 N 
ATOM      4  C   UNL     1      33.881 -13.444 -24.055  0.00  0.00    -0.004 C 
ATOM      5  C   UNL     1      32.989 -14.195 -25.049  0.00  0.00    -0.023 C 
ATOM      6  C   UNL     1      34.288 -14.381 -22.912  0.00  0.00    -0.023 C 
ATOM      7  C   UNL     1      33.646 -15.497 -25.513  0.00  0.00    -0.077 C 
ATOM      8  C   UNL     1      34.903 -15.675 -23.448  0.00  0.00    -0.077 C 
ATOM      9  C   UNL     1      33.178 -12.199 -23.520  0.00  0.00    -0.000 C 
ATOM     10  H   UNL     1      33.123 -16.560 -23.863  0.00  0.00    -0.080 HD
ENDBRANCH   2   3
ENDBRANCH   1   2
BRANCH   1  11
ATOM     11  C   UNL     1      34.607 -19.129 -22.789  0.00  0.00    +0.067 C 
BRANCH  11  13
ATOM     12  O   UNL     1      35.685 -18.100 -20.891  0.00  0.00    -0.291 OA
ATOM     13  C   UNL     1      35.071 -19.064 -21.341  0.00  0.00    +0.173 C 
BRANCH  13  15
ATOM     14  F   UNL     1      33.861 -23.333 -17.952  0.00  0.00    -0.204 F 
ATOM     15  C   UNL     1      34.748 -20.204 -20.436  0.00  0.00    +0.035 C 
ATOM     16  C   UNL     1      35.785 -20.903 -19.859  0.00  0.00    +0.005 C 
ATOM     17  C   UNL     1      33.427 -20.514 -20.210  0.00  0.00    +0.005 C 
ATOM     18  C   UNL     1      35.482 -21.970 -19.012  0.00  0.00    +0.030 C 
ATOM     19  C   UNL     1      33.124 -21.581 -19.363  0.00  0.00    +0.030 C 
ATOM     20  C   UNL     1      34.152 -22.309 -18.764  0.00  0.00    +0.140 C 
ENDBRANCH  13  15
ENDBRANCH  11  13
ENDBRANCH   1  11
TORSDOF 5
ENDMDL
MODEL 2
REMARK VINA RESULT:      -9.2      3.443      7.616
REMARK  Name = 15387
REMARK  5 active torsions:
REMARK  status: ('A' for Active; 'I' for Inactive)
REMARK    1  A    between atoms: C_1  and  C_2
REMARK    2  A    between atoms: C_1  and  C_11
REMARK    3  A    between atoms: C_2  and  N_3
REMARK    4  A    between atoms: C_11  and  C_13
REMARK    5  A    between atoms: C_13  and  C_15
REMARK                            x       y       z     vdW  Elec       q    Type
REMARK                         _______ _______ _______ _____ _____    ______ ____
ROOT
ATOM      1  C   UNL     1      35.228 -18.480 -22.447  0.00  0.00    -0.015 C 
ENDROOT
BRANCH   1   2
ATOM      2  C   UNL     1      36.201 -19.025 -21.399  0.00  0.00    -0.077 C 
BRANCH   2   3
ATOM      3  N   UNL     1      35.474 -19.773 -20.374  0.00  0.00    +0.387 N 
ATOM      4  C   UNL     1      34.028 -22.088 -19.306  0.00  0.00    -0.004 C 
ATOM      5  C   UNL     1      35.476 -21.771 -18.916  0.00  0.00    -0.023 C 
ATOM      6  C   UNL     1      33.316 -20.803 -19.742  0.00  0.00    -0.023 C 
ATOM      7  C   UNL     1      36.196 -21.004 -20.026  0.00  0.00    -0.077 C 
ATOM      8  C   UNL     1      34.107 -20.068 -20.825  0.00  0.00    -0.077 C 
ATOM      9  C   UNL     1      33.285 -22.764 -18.157  0.00  0.00    -0.000 C 
ATOM     10  H   UNL     1      35.410 -19.197 -19.534  0.00  0.00    -0.080 HD
ENDBRANCH   2   3
ENDBRANCH   1   2
BRANCH   1  11
ATOM     11  C   UNL     1      35.348 -16.963 -22.617  0.00  0.00    +0.067 C 
BRANCH  11  13
ATOM     12  O   UNL     1      35.084 -16.452 -20.273  0.00  0.00    -0.291 OA
ATOM     13  C   UNL     1      34.796 -16.178 -21.435  0.00  0.00    +0.173 C 
BRANCH  13  15
ATOM     14  F   UNL     1      31.410 -11.855 -22.447  0.00  0.00    -0.204 F 
ATOM     15  C   UNL     1      33.891 -15.024 -21.705  0.00  0.00    +0.035 C 
ATOM     16  C   UNL     1      33.108 -14.545 -20.679  0.00  0.00    +0.005 C 
ATOM     17  C   UNL     1      33.875 -14.480 -22.969  0.00  0.00    +0.005 C 
ATOM     18  C   UNL     1      32.262 -13.465 -20.932  0.00  0.00    +0.030 C 
ATOM     19  C   UNL     1      33.029 -13.399 -23.222  0.00  0.00    +0.030 C 
ATOM     20  C   UNL     1      32.223 -12.891 -22.203  0.00  0.00    +0.140 C 
ENDBRANCH  13  15
ENDBRANCH  11  13
ENDBRANCH   1  11
TORSDOF 5
ENDMDL
MODEL 3
REMARK VINA RESULT:      -9.2      3.420      7.824
REMARK  Name = 15387
REMARK  5 active torsions:
REMARK  status: ('A' for Active; 'I' for Inactive)
REMARK    1  A    between atoms: C_1  and  C_2
REMARK    2  A    between atoms: C_1  and  C_11
REMARK    3  A    between atoms: C_2  and  N_3
REMARK    4  A    between atoms: C_11  and  C_13
REMARK    5  A    between atoms: C_13  and  C_15
REMARK                            x       y       z     vdW  Elec       q    Type
REMARK                         _______ _______ _______ _____ _____    ______ ____
ROOT
ATOM      1  C   UNL     1      34.985 -18.926 -22.581  0.00  0.00    -0.015 C 
ENDROOT
BRANCH   1   2
ATOM      2  C   UNL     1      35.878 -18.943 -21.339  0.00  0.00    -0.077 C 
BRANCH   2   3
ATOM      3  N   UNL     1      35.287 -19.789 -20.302  0.00  0.00    +0.387 N 
ATOM      4  C   UNL     1      34.138 -22.267 -19.238  0.00  0.00    -0.004 C 
ATOM      5  C   UNL     1      35.567 -21.818 -18.915  0.00  0.00    -0.023 C 
ATOM      6  C   UNL     1      33.279 -21.046 -19.591  0.00  0.00    -0.023 C 
ATOM      7  C   UNL     1      36.144 -20.951 -20.036  0.00  0.00    -0.077 C 
ATOM      8  C   UNL     1      33.932 -20.206 -20.690  0.00  0.00    -0.077 C 
ATOM      9  C   UNL     1      33.531 -23.046 -18.074  0.00  0.00    -0.000 C 
ATOM     10  H   UNL     1      35.214 -19.246 -19.440  0.00  0.00    -0.080 HD
ENDBRANCH   2   3
ENDBRANCH   1   2
BRANCH   1  11
ATOM     11  C   UNL     1      35.582 -18.085 -23.713  0.00  0.00    +0.067 C 
BRANCH  11  13
ATOM     12  O   UNL     1      33.964 -18.116 -25.504  0.00  0.00    -0.291 OA
ATOM     13  C   UNL     1      34.531 -17.469 -24.627  0.00  0.00    +0.173 C 
BRANCH  13  15
ATOM     14  F   UNL     1      33.165 -12.105 -23.897  0.00  0.00    -0.204 F 
ATOM     15  C   UNL     1      34.166 -16.037 -24.432  0.00  0.00    +0.035 C 
ATOM     16  C   UNL     1      34.558 -15.408 -23.271  0.00  0.00    +0.005 C 
ATOM     17  C   UNL     1      33.453 -15.397 -25.419  0.00  0.00    +0.005 C 
ATOM     18  C   UNL     1      34.216 -14.068 -23.089  0.00  0.00    +0.030 C 
ATOM     19  C   UNL     1      33.111 -14.056 -25.238  0.00  0.00    +0.030 C 
ATOM     20  C   UNL     1      33.494 -13.392 -24.072  0.00  0.00    +0.140 C 
ENDBRANCH  13  15
ENDBRANCH  11  13
ENDBRANCH   1  11
TORSDOF 5
ENDMDL
MODEL 4
REMARK VINA RESULT:      -9.0      1.203      1.716
REMARK  Name = 15387
REMARK  5 active torsions:
REMARK  status: ('A' for Active; 'I' for Inactive)
REMARK    1  A    between atoms: C_1  and  C_2
REMARK    2  A    between atoms: C_1  and  C_11
REMARK    3  A    between atoms: C_2  and  N_3
REMARK    4  A    between atoms: C_11  and  C_13
REMARK    5  A    between atoms: C_13  and  C_15
REMARK                            x       y       z     vdW  Elec       q    Type
REMARK                         _______ _______ _______ _____ _____    ______ ____
ROOT
ATOM      1  C   UNL     1      34.414 -17.533 -23.376  0.00  0.00    -0.015 C 
ENDROOT
BRANCH   1   2
ATOM      2  C   UNL     1      35.161 -16.230 -23.671  0.00  0.00    -0.077 C 
BRANCH   2   3
ATOM      3  N   UNL     1      34.510 -15.109 -22.994  0.00  0.00    +0.387 N 
ATOM      4  C   UNL     1      32.249 -13.372 -22.315  0.00  0.00    -0.004 C 
ATOM      5  C   UNL     1      32.787 -14.435 -21.352  0.00  0.00    -0.023 C 
ATOM      6  C   UNL     1      33.357 -12.939 -23.282  0.00  0.00    -0.023 C 
ATOM      7  C   UNL     1      33.442 -15.592 -22.109  0.00  0.00    -0.077 C 
ATOM      8  C   UNL     1      33.992 -14.146 -23.976  0.00  0.00    -0.077 C 
ATOM      9  C   UNL     1      31.687 -12.175 -21.554  0.00  0.00    -0.000 C 
ATOM     10  H   UNL     1      35.204 -14.629 -22.419  0.00  0.00    -0.080 HD
ENDBRANCH   2   3
ENDBRANCH   1   2
BRANCH   1  11
ATOM     11  C   UNL     1      35.334 -18.612 -22.800  0.00  0.00    +0.067 C 
BRANCH  11  13
ATOM     12  O   UNL     1      35.697 -17.688 -20.600  0.00  0.00    -0.291 OA
ATOM     13  C   UNL     1      35.342 -18.650 -21.278  0.00  0.00    +0.173 C 
BRANCH  13  15
ATOM     14  F   UNL     1      33.620 -23.297 -18.709  0.00  0.00    -0.204 F 
ATOM     15  C   UNL     1      34.883 -19.891 -20.592  0.00  0.00    +0.035 C 
ATOM     16  C   UNL     1      35.828 -20.754 -20.085  0.00  0.00    +0.005 C 
ATOM     17  C   UNL     1      33.530 -20.127 -20.490  0.00  0.00    +0.005 C 
ATOM     18  C   UNL     1      35.397 -21.915 -19.444  0.00  0.00    +0.030 C 
ATOM     19  C   UNL     1      33.099 -21.288 -19.848  0.00  0.00    +0.030 C 
ATOM     20  C   UNL     1      34.033 -22.182 -19.324  0.00  0.00    +0.140 C 
ENDBRANCH  13  15
ENDBRANCH  11  13
ENDBRANCH   1  11
TORSDOF 5
ENDMDL
MODEL 5
REMARK VINA RESULT:      -9.0      1.259      2.110
REMARK  Name = 15387
REMARK  5 active torsions:
REMARK  status: ('A' for Active; 'I' for Inactive)
REMARK    1  A    between atoms: C_1  and  C_2
REMARK    2  A    between atoms: C_1  and  C_11
REMARK    3  A    between atoms: C_2  and  N_3
REMARK    4  A    between atoms: C_11  and  C_13
REMARK    5  A    between atoms: C_13  and  C_15
REMARK                            x       y       z     vdW  Elec       q    Type
REMARK                         _______ _______ _______ _____ _____    ______ ____
ROOT
ATOM      1  C   UNL     1      34.005 -16.416 -21.387  0.00  0.00    -0.015 C 
ENDROOT
BRANCH   1   2
ATOM      2  C   UNL     1      34.469 -14.971 -21.580  0.00  0.00    -0.077 C 
BRANCH   2   3
ATOM      3  N   UNL     1      34.401 -14.602 -22.994  0.00  0.00    +0.387 N 
ATOM      4  C   UNL     1      33.030 -13.997 -25.513  0.00  0.00    -0.004 C 
ATOM      5  C   UNL     1      33.645 -12.907 -24.629  0.00  0.00    -0.023 C 
ATOM      6  C   UNL     1      33.746 -15.330 -25.265  0.00  0.00    -0.023 C 
ATOM      7  C   UNL     1      33.678 -13.335 -23.160  0.00  0.00    -0.077 C 
ATOM      8  C   UNL     1      33.775 -15.677 -23.776  0.00  0.00    -0.077 C 
ATOM      9  C   UNL     1      33.091 -13.608 -26.987  0.00  0.00    -0.000 C 
ATOM     10  H   UNL     1      35.351 -14.472 -23.343  0.00  0.00    -0.080 HD
ENDBRANCH   2   3
ENDBRANCH   1   2
BRANCH   1  11
ATOM     11  C   UNL     1      35.168 -17.364 -21.084  0.00  0.00    +0.067 C 
BRANCH  11  13
ATOM     12  O   UNL     1      35.093 -18.948 -22.904  0.00  0.00    -0.291 OA
ATOM     13  C   UNL     1      34.996 -18.748 -21.695  0.00  0.00    +0.173 C 
BRANCH  13  15
ATOM     14  F   UNL     1      33.962 -23.059 -18.302  0.00  0.00    -0.204 F 
ATOM     15  C   UNL     1      34.720 -19.899 -20.789  0.00  0.00    +0.035 C 
ATOM     16  C   UNL     1      35.782 -20.639 -20.321  0.00  0.00    +0.005 C 
ATOM     17  C   UNL     1      33.414 -20.178 -20.455  0.00  0.00    +0.005 C 
ATOM     18  C   UNL     1      35.524 -21.717 -19.473  0.00  0.00    +0.030 C 
ATOM     19  C   UNL     1      33.156 -21.255 -19.606  0.00  0.00    +0.030 C 
ATOM     20  C   UNL     1      34.211 -22.024 -19.115  0.00  0.00    +0.140 C 
ENDBRANCH  13  15
ENDBRANCH  11  13
ENDBRANCH   1  11
TORSDOF 5
ENDMDL
MODEL 6
REMARK VINA RESULT:      -9.0      1.516      2.466
REMARK  Name = 15387
REMARK  5 active torsions:
REMARK  status: ('A' for Active; 'I' for Inactive)
REMARK    1  A    between atoms: C_1  and  C_2
REMARK    2  A    between atoms: C_1  and  C_11
REMARK    3  A    between atoms: C_2  and  N_3
REMARK    4  A    between atoms: C_11  and  C_13
REMARK    5  A    between atoms: C_13  and  C_15
REMARK                            x       y       z     vdW  Elec       q    Type
REMARK                         _______ _______ _______ _____ _____    ______ ____
ROOT
ATOM      1  C   UNL     1      34.766 -16.702 -21.251  0.00  0.00    -0.015 C 
ENDROOT
BRANCH   1   2
ATOM      2  C   UNL     1      34.772 -15.864 -22.531  0.00  0.00    -0.077 C 
BRANCH   2   3
ATOM      3  N   UNL     1      34.168 -14.555 -22.283  0.00  0.00    +0.387 N 
ATOM      4  C   UNL     1      32.051 -12.536 -22.457  0.00  0.00    -0.004 C 
ATOM      5  C   UNL     1      32.324 -13.332 -21.177  0.00  0.00    -0.023 C 
ATOM      6  C   UNL     1      33.325 -12.467 -23.307  0.00  0.00    -0.023 C 
ATOM      7  C   UNL     1      32.939 -14.697 -21.492  0.00  0.00    -0.077 C 
ATOM      8  C   UNL     1      33.906 -13.861 -23.551  0.00  0.00    -0.077 C 
ATOM      9  C   UNL     1      31.531 -11.138 -22.134  0.00  0.00    -0.000 C 
ATOM     10  H   UNL     1      34.826 -13.989 -21.745  0.00  0.00    -0.080 HD
ENDBRANCH   2   3
ENDBRANCH   1   2
BRANCH   1  11
ATOM     11  C   UNL     1      35.705 -17.907 -21.341  0.00  0.00    +0.067 C 
BRANCH  11  13
ATOM     12  O   UNL     1      34.653 -19.413 -22.908  0.00  0.00    -0.291 OA
ATOM     13  C   UNL     1      35.000 -19.194 -21.750  0.00  0.00    +0.173 C 
BRANCH  13  15
ATOM     14  F   UNL     1      34.037 -23.070 -17.849  0.00  0.00    -0.204 F 
ATOM     15  C   UNL     1      34.742 -20.228 -20.708  0.00  0.00    +0.035 C 
ATOM     16  C   UNL     1      33.442 -20.481 -20.335  0.00  0.00    +0.005 C 
ATOM     17  C   UNL     1      35.815 -20.893 -20.159  0.00  0.00    +0.005 C 
ATOM     18  C   UNL     1      33.201 -21.449 -19.360  0.00  0.00    +0.030 C 
ATOM     19  C   UNL     1      35.575 -21.862 -19.183  0.00  0.00    +0.030 C 
ATOM     20  C   UNL     1      34.267 -22.140 -18.785  0.00  0.00    +0.140 C 
ENDBRANCH  13  15
ENDBRANCH  11  13
ENDBRANCH   1  11
TORSDOF 5
ENDMDL
MODEL 7
REMARK VINA RESULT:      -8.7      4.982      9.657
REMARK  Name = 15387
REMARK  5 active torsions:
REMARK  status: ('A' for Active; 'I' for Inactive)
REMARK    1  A    between atoms: C_1  and  C_2
REMARK    2  A    between atoms: C_1  and  C_11
REMARK    3  A    between atoms: C_2  and  N_3
REMARK    4  A    between atoms: C_11  and  C_13
REMARK    5  A    between atoms: C_13  and  C_15
REMARK                            x       y       z     vdW  Elec       q    Type
REMARK                         _______ _______ _______ _____ _____    ______ ____
ROOT
ATOM      1  C   UNL     1      34.669 -23.530 -16.296  0.00  0.00    -0.015 C 
ENDROOT
BRANCH   1   2
ATOM      2  C   UNL     1      34.209 -22.886 -14.986  0.00  0.00    -0.077 C 
BRANCH   2   3
ATOM      3  N   UNL     1      32.824 -23.257 -14.699  0.00  0.00    +0.387 N 
ATOM      4  C   UNL     1      30.404 -24.889 -14.974  0.00  0.00    -0.004 C 
ATOM      5  C   UNL     1      31.324 -24.982 -13.753  0.00  0.00    -0.023 C 
ATOM      6  C   UNL     1      30.542 -23.506 -15.622  0.00  0.00    -0.023 C 
ATOM      7  C   UNL     1      32.762 -24.601 -14.109  0.00  0.00    -0.077 C 
ATOM      8  C   UNL     1      32.006 -23.174 -15.917  0.00  0.00    -0.077 C 
ATOM      9  C   UNL     1      28.954 -25.172 -14.592  0.00  0.00    -0.000 C 
ATOM     10  H   UNL     1      32.443 -22.597 -14.020  0.00  0.00    -0.080 HD
ENDBRANCH   2   3
ENDBRANCH   1   2
BRANCH   1  11
ATOM     11  C   UNL     1      35.117 -22.491 -17.327  0.00  0.00    +0.067 C 
BRANCH  11  13
ATOM     12  O   UNL     1      33.821 -23.642 -19.008  0.00  0.00    -0.291 OA
ATOM     13  C   UNL     1      34.388 -22.609 -18.659  0.00  0.00    +0.173 C 
BRANCH  13  15
ATOM     14  F   UNL     1      34.233 -18.156 -22.023  0.00  0.00    -0.204 F 
ATOM     15  C   UNL     1      34.346 -21.420 -19.558  0.00  0.00    +0.035 C 
ATOM     16  C   UNL     1      33.122 -20.880 -19.882  0.00  0.00    +0.005 C 
ATOM     17  C   UNL     1      35.533 -20.906 -20.028  0.00  0.00    +0.005 C 
ATOM     18  C   UNL     1      33.083 -19.768 -20.722  0.00  0.00    +0.030 C 
ATOM     19  C   UNL     1      35.495 -19.793 -20.869  0.00  0.00    +0.030 C 
ATOM     20  C   UNL     1      34.269 -19.224 -21.216  0.00  0.00    +0.140 C 
ENDBRANCH  13  15
ENDBRANCH  11  13
ENDBRANCH   1  11
TORSDOF 5
ENDMDL
MODEL 8
REMARK VINA RESULT:      -8.7      3.180      4.917
REMARK  Name = 15387
REMARK  5 active torsions:
REMARK  status: ('A' for Active; 'I' for Inactive)
REMARK    1  A    between atoms: C_1  and  C_2
REMARK    2  A    between atoms: C_1  and  C_11
REMARK    3  A    between atoms: C_2  and  N_3
REMARK    4  A    between atoms: C_11  and  C_13
REMARK    5  A    between atoms: C_13  and  C_15
REMARK                            x       y       z     vdW  Elec       q    Type
REMARK                         _______ _______ _______ _____ _____    ______ ____
ROOT
ATOM      1  C   UNL     1      32.802 -14.219 -21.707  0.00  0.00    -0.015 C 
ENDROOT
BRANCH   1   2
ATOM      2  C   UNL     1      32.351 -13.394 -22.915  0.00  0.00    -0.077 C 
BRANCH   2   3
ATOM      3  N   UNL     1      32.949 -12.060 -22.869  0.00  0.00    +0.387 N 
ATOM      4  C   UNL     1      33.270  -9.268 -23.701  0.00  0.00    -0.004 C 
ATOM      5  C   UNL     1      32.564  -9.662 -22.400  0.00  0.00    -0.023 C 
ATOM      6  C   UNL     1      34.261 -10.366 -24.106  0.00  0.00    -0.023 C 
ATOM      7  C   UNL     1      31.941 -11.056 -22.505  0.00  0.00    -0.077 C 
ATOM      8  C   UNL     1      33.581 -11.736 -24.155  0.00  0.00    -0.077 C 
ATOM      9  C   UNL     1      33.974  -7.921 -23.558  0.00  0.00    -0.000 C 
ATOM     10  H   UNL     1      33.675 -12.053 -22.151  0.00  0.00    -0.080 HD
ENDBRANCH   2   3
ENDBRANCH   1   2
BRANCH   1  11
ATOM     11  C   UNL     1      34.315 -14.448 -21.694  0.00  0.00    +0.067 C 
BRANCH  11  13
ATOM     12  O   UNL     1      34.974 -16.020 -19.985  0.00  0.00    -0.291 OA
ATOM     13  C   UNL     1      34.714 -15.821 -21.169  0.00  0.00    +0.173 C 
BRANCH  13  15
ATOM     14  F   UNL     1      34.919 -20.099 -24.750  0.00  0.00    -0.204 F 
ATOM     15  C   UNL     1      34.769 -16.963 -22.126  0.00  0.00    +0.035 C 
ATOM     16  C   UNL     1      34.917 -16.694 -23.468  0.00  0.00    +0.005 C 
ATOM     17  C   UNL     1      34.670 -18.244 -21.631  0.00  0.00    +0.005 C 
ATOM     18  C   UNL     1      34.968 -17.763 -24.362  0.00  0.00    +0.030 C 
ATOM     19  C   UNL     1      34.721 -19.314 -22.526  0.00  0.00    +0.030 C 
ATOM     20  C   UNL     1      34.871 -19.073 -23.892  0.00  0.00    +0.140 C 
ENDBRANCH  13  15
ENDBRANCH  11  13
ENDBRANCH   1  11
TORSDOF 5
ENDMDL
MODEL 9
REMARK VINA RESULT:      -8.7      5.409     10.236
REMARK  Name = 15387
REMARK  5 active torsions:
REMARK  status: ('A' for Active; 'I' for Inactive)
REMARK    1  A    between atoms: C_1  and  C_2
REMARK    2  A    between atoms: C_1  and  C_11
REMARK    3  A    between atoms: C_2  and  N_3
REMARK    4  A    between atoms: C_11  and  C_13
REMARK    5  A    between atoms: C_13  and  C_15
REMARK                            x       y       z     vdW  Elec       q    Type
REMARK                         _______ _______ _______ _____ _____    ______ ____
ROOT
ATOM      1  C   UNL     1      34.764 -23.145 -16.204  0.00  0.00    -0.015 C 
ENDROOT
BRANCH   1   2
ATOM      2  C   UNL     1      34.687 -24.378 -15.301  0.00  0.00    -0.077 C 
BRANCH   2   3
ATOM      3  N   UNL     1      36.010 -24.695 -14.764  0.00  0.00    +0.387 N 
ATOM      4  C   UNL     1      38.810 -25.544 -14.941  0.00  0.00    -0.004 C 
ATOM      5  C   UNL     1      38.406 -24.080 -14.736  0.00  0.00    -0.023 C 
ATOM      6  C   UNL     1      37.703 -26.465 -14.417  0.00  0.00    -0.023 C 
ATOM      7  C   UNL     1      37.024 -23.796 -15.329  0.00  0.00    -0.077 C 
ATOM      8  C   UNL     1      36.345 -26.103 -15.021  0.00  0.00    -0.077 C 
ATOM      9  C   UNL     1      40.142 -25.846 -14.261  0.00  0.00    -0.000 C 
ATOM     10  H   UNL     1      35.993 -24.556 -13.752  0.00  0.00    -0.080 HD
ENDBRANCH   2   3
ENDBRANCH   1   2
BRANCH   1  11
ATOM     11  C   UNL     1      33.534 -23.008 -17.105  0.00  0.00    +0.067 C 
BRANCH  11  13
ATOM     12  O   UNL     1      33.776 -24.231 -19.172  0.00  0.00    -0.291 OA
ATOM     13  C   UNL     1      33.852 -23.153 -18.587  0.00  0.00    +0.173 C 
BRANCH  13  15
ATOM     14  F   UNL     1      35.338 -18.602 -21.460  0.00  0.00    -0.204 F 
ATOM     15  C   UNL     1      34.248 -21.938 -19.355  0.00  0.00    +0.035 C 
ATOM     16  C   UNL     1      33.260 -21.128 -19.865  0.00  0.00    +0.005 C 
ATOM     17  C   UNL     1      35.588 -21.672 -19.523  0.00  0.00    +0.005 C 
ATOM     18  C   UNL     1      33.631 -19.991 -20.583  0.00  0.00    +0.030 C 
ATOM     19  C   UNL     1      35.960 -20.534 -20.241  0.00  0.00    +0.030 C 
ATOM     20  C   UNL     1      34.981 -19.693 -20.771  0.00  0.00    +0.140 C 
ENDBRANCH  13  15
ENDBRANCH  11  13
ENDBRANCH   1  11
TORSDOF 5
ENDMDL
