MODEL 1
REMARK VINA RESULT:      -9.2      0.000      0.000
REMARK  Name = 15950376
REMARK  3 active torsions:
REMARK  status: ('A' for Active; 'I' for Inactive)
REMARK    1  A    between atoms: C_3  and  C_11
REMARK    2  A    between atoms: C_8  and  O_20
REMARK    3  A    between atoms: C_14  and  N_17
REMARK                            x       y       z     vdW  Elec       q    Type
REMARK                         _______ _______ _______ _____ _____    ______ ____
ROOT
ATOM      1  S   UNL     1      34.566 -17.950 -24.153  0.00  0.00    -0.053 S 
ATOM      2  N   UNL     1      34.303 -16.422 -22.092  0.00  0.00    -0.399 NA
ATOM      3  C   UNL     1      34.614 -17.639 -22.472  0.00  0.00    +0.161 C 
ATOM      4  C   UNL     1      34.087 -16.318 -24.431  0.00  0.00    +0.061 C 
ATOM      5  C   UNL     1      33.998 -15.652 -23.205  0.00  0.00    +0.120 C 
ATOM      6  C   UNL     1      33.809 -15.673 -25.648  0.00  0.00    +0.045 C 
ATOM      7  C   UNL     1      33.616 -14.292 -23.198  0.00  0.00    +0.089 C 
ATOM      8  C   UNL     1      33.433 -14.327 -25.613  0.00  0.00    +0.130 C 
ATOM      9  C   UNL     1      33.337 -13.644 -24.405  0.00  0.00    +0.018 C 
ENDROOT
BRANCH   3  11
ATOM     10  F   UNL     1      33.419 -21.434 -19.750  0.00  0.00    -0.203 F 
ATOM     11  C   UNL     1      34.985 -18.712 -21.580  0.00  0.00    +0.038 C 
ATOM     12  C   UNL     1      34.007 -19.574 -21.084  0.00  0.00    +0.034 C 
ATOM     13  C   UNL     1      36.320 -18.885 -21.215  0.00  0.00    +0.004 C 
ATOM     14  C   UNL     1      35.700 -20.783 -19.855  0.00  0.00    +0.073 C 
ATOM     15  C   UNL     1      34.366 -20.610 -20.221  0.00  0.00    +0.153 C 
ATOM     16  C   UNL     1      36.677 -19.920 -20.352  0.00  0.00    +0.017 C 
BRANCH  14  17
ATOM     17  N   UNL     1      36.064 -21.831 -18.985  0.00  0.00    -0.330 N 
ATOM     18  C   UNL     1      36.801 -21.618 -17.777  0.00  0.00    +0.109 C 
ATOM     19  H   UNL     1      35.800 -22.751 -19.218  0.00  0.00    +0.147 HD
ENDBRANCH  14  17
ENDBRANCH   3  11
BRANCH   8  20
ATOM     20  O   UNL     1      33.157 -13.679 -26.780  0.00  0.00    -0.506 OA
ATOM     21  H   UNL     1      33.639 -13.884 -27.555  0.00  0.00    +0.292 HD
ENDBRANCH   8  20
TORSDOF 3
ENDMDL
MODEL 2
REMARK VINA RESULT:      -9.1      4.008      7.613
REMARK  Name = 15950376
REMARK  3 active torsions:
REMARK  status: ('A' for Active; 'I' for Inactive)
REMARK    1  A    between atoms: C_3  and  C_11
REMARK    2  A    between atoms: C_8  and  O_20
REMARK    3  A    between atoms: C_14  and  N_17
REMARK                            x       y       z     vdW  Elec       q    Type
REMARK                         _______ _______ _______ _____ _____    ______ ____
ROOT
ATOM      1  S   UNL     1      33.248 -20.043 -21.016  0.00  0.00    -0.053 S 
ATOM      2  N   UNL     1      35.795 -19.635 -21.001  0.00  0.00    -0.399 NA
ATOM      3  C   UNL     1      34.672 -19.289 -21.588  0.00  0.00    +0.161 C 
ATOM      4  C   UNL     1      34.187 -20.925 -19.870  0.00  0.00    +0.061 C 
ATOM      5  C   UNL     1      35.533 -20.573 -20.014  0.00  0.00    +0.120 C 
ATOM      6  C   UNL     1      33.764 -21.863 -18.914  0.00  0.00    +0.045 C 
ATOM      7  C   UNL     1      36.486 -21.182 -19.169  0.00  0.00    +0.089 C 
ATOM      8  C   UNL     1      34.728 -22.451 -18.090  0.00  0.00    +0.130 C 
ATOM      9  C   UNL     1      36.073 -22.117 -18.215  0.00  0.00    +0.018 C 
ENDROOT
BRANCH   3  11
ATOM     10  F   UNL     1      34.412 -14.733 -23.141  0.00  0.00    -0.203 F 
ATOM     11  C   UNL     1      34.564 -18.333 -22.664  0.00  0.00    +0.038 C 
ATOM     12  C   UNL     1      34.539 -16.967 -22.382  0.00  0.00    +0.034 C 
ATOM     13  C   UNL     1      34.483 -18.776 -23.984  0.00  0.00    +0.004 C 
ATOM     14  C   UNL     1      34.353 -16.485 -24.742  0.00  0.00    +0.073 C 
ATOM     15  C   UNL     1      34.434 -16.044 -23.422  0.00  0.00    +0.153 C 
ATOM     16  C   UNL     1      34.378 -17.851 -25.023  0.00  0.00    +0.017 C 
BRANCH  14  17
ATOM     17  N   UNL     1      34.249 -15.553 -25.795  0.00  0.00    -0.330 N 
ATOM     18  C   UNL     1      33.003 -14.983 -26.209  0.00  0.00    +0.109 C 
ATOM     19  H   UNL     1      35.070 -15.281 -26.266  0.00  0.00    +0.147 HD
ENDBRANCH  14  17
ENDBRANCH   3  11
BRANCH   8  20
ATOM     20  O   UNL     1      34.343 -23.364 -17.155  0.00  0.00    -0.506 OA
ATOM     21  H   UNL     1      34.885 -24.105 -16.972  0.00  0.00    +0.292 HD
ENDBRANCH   8  20
TORSDOF 3
ENDMDL
MODEL 3
REMARK VINA RESULT:      -9.0      4.038      7.602
REMARK  Name = 15950376
REMARK  3 active torsions:
REMARK  status: ('A' for Active; 'I' for Inactive)
REMARK    1  A    between atoms: C_3  and  C_11
REMARK    2  A    between atoms: C_8  and  O_20
REMARK    3  A    between atoms: C_14  and  N_17
REMARK                            x       y       z     vdW  Elec       q    Type
REMARK                         _______ _______ _______ _____ _____    ______ ____
ROOT
ATOM      1  S   UNL     1      36.453 -19.241 -21.056  0.00  0.00    -0.053 S 
ATOM      2  N   UNL     1      33.962 -19.885 -21.240  0.00  0.00    -0.399 NA
ATOM      3  C   UNL     1      34.893 -19.110 -21.745  0.00  0.00    +0.161 C 
ATOM      4  C   UNL     1      35.861 -20.445 -19.972  0.00  0.00    +0.061 C 
ATOM      5  C   UNL     1      34.502 -20.657 -20.222  0.00  0.00    +0.120 C 
ATOM      6  C   UNL     1      36.551 -21.151 -18.972  0.00  0.00    +0.045 C 
ATOM      7  C   UNL     1      33.810 -21.609 -19.441  0.00  0.00    +0.089 C 
ATOM      8  C   UNL     1      35.843 -22.087 -18.214  0.00  0.00    +0.130 C 
ATOM      9  C   UNL     1      34.489 -22.315 -18.444  0.00  0.00    +0.018 C 
ENDROOT
BRANCH   3  11
ATOM     10  F   UNL     1      34.446 -14.581 -23.334  0.00  0.00    -0.203 F 
ATOM     11  C   UNL     1      34.690 -18.171 -22.823  0.00  0.00    +0.038 C 
ATOM     12  C   UNL     1      34.664 -16.802 -22.558  0.00  0.00    +0.034 C 
ATOM     13  C   UNL     1      34.516 -18.634 -24.127  0.00  0.00    +0.004 C 
ATOM     14  C   UNL     1      34.294 -16.357 -24.903  0.00  0.00    +0.073 C 
ATOM     15  C   UNL     1      34.467 -15.895 -23.599  0.00  0.00    +0.153 C 
ATOM     16  C   UNL     1      34.319 -17.726 -25.167  0.00  0.00    +0.017 C 
BRANCH  14  17
ATOM     17  N   UNL     1      34.096 -15.441 -25.957  0.00  0.00    -0.330 N 
ATOM     18  C   UNL     1      32.824 -14.856 -26.250  0.00  0.00    +0.109 C 
ATOM     19  H   UNL     1      34.868 -15.193 -26.517  0.00  0.00    +0.147 HD
ENDBRANCH  14  17
ENDBRANCH   3  11
BRANCH   8  20
ATOM     20  O   UNL     1      36.489 -22.784 -17.238  0.00  0.00    -0.506 OA
ATOM     21  H   UNL     1      36.245 -23.669 -17.054  0.00  0.00    +0.292 HD
ENDBRANCH   8  20
TORSDOF 3
ENDMDL
MODEL 4
REMARK VINA RESULT:      -9.0      1.719      2.223
REMARK  Name = 15950376
REMARK  3 active torsions:
REMARK  status: ('A' for Active; 'I' for Inactive)
REMARK    1  A    between atoms: C_3  and  C_11
REMARK    2  A    between atoms: C_8  and  O_20
REMARK    3  A    between atoms: C_14  and  N_17
REMARK                            x       y       z     vdW  Elec       q    Type
REMARK                         _______ _______ _______ _____ _____    ______ ____
ROOT
ATOM      1  S   UNL     1      34.786 -16.955 -23.010  0.00  0.00    -0.053 S 
ATOM      2  N   UNL     1      33.108 -16.432 -21.122  0.00  0.00    -0.399 NA
ATOM      3  C   UNL     1      33.905 -17.359 -21.601  0.00  0.00    +0.161 C 
ATOM      4  C   UNL     1      34.055 -15.393 -23.007  0.00  0.00    +0.061 C 
ATOM      5  C   UNL     1      33.183 -15.299 -21.918  0.00  0.00    +0.120 C 
ATOM      6  C   UNL     1      34.239 -14.329 -23.905  0.00  0.00    +0.045 C 
ATOM      7  C   UNL     1      32.471 -14.095 -21.723  0.00  0.00    +0.089 C 
ATOM      8  C   UNL     1      33.523 -13.148 -23.689  0.00  0.00    +0.130 C 
ATOM      9  C   UNL     1      32.649 -13.031 -22.613  0.00  0.00    +0.018 C 
ENDROOT
BRANCH   3  11
ATOM     10  F   UNL     1      36.769 -20.974 -20.199  0.00  0.00    -0.203 F 
ATOM     11  C   UNL     1      34.081 -18.672 -21.028  0.00  0.00    +0.038 C 
ATOM     12  C   UNL     1      35.363 -19.203 -20.886  0.00  0.00    +0.034 C 
ATOM     13  C   UNL     1      32.970 -19.409 -20.618  0.00  0.00    +0.004 C 
ATOM     14  C   UNL     1      34.423 -21.210 -19.923  0.00  0.00    +0.073 C 
ATOM     15  C   UNL     1      35.533 -20.473 -20.333  0.00  0.00    +0.153 C 
ATOM     16  C   UNL     1      33.141 -20.677 -20.065  0.00  0.00    +0.017 C 
BRANCH  14  17
ATOM     17  N   UNL     1      34.593 -22.492 -19.362  0.00  0.00    -0.330 N 
ATOM     18  C   UNL     1      33.779 -22.988 -18.294  0.00  0.00    +0.109 C 
ATOM     19  H   UNL     1      35.303 -23.073 -19.720  0.00  0.00    +0.147 HD
ENDBRANCH  14  17
ENDBRANCH   3  11
BRANCH   8  20
ATOM     20  O   UNL     1      33.683 -12.102 -24.546  0.00  0.00    -0.506 OA
ATOM     21  H   UNL     1      34.267 -11.403 -24.329  0.00  0.00    +0.292 HD
ENDBRANCH   8  20
TORSDOF 3
ENDMDL
MODEL 5
REMARK VINA RESULT:      -8.9      1.665      2.204
REMARK  Name = 15950376
REMARK  3 active torsions:
REMARK  status: ('A' for Active; 'I' for Inactive)
REMARK    1  A    between atoms: C_3  and  C_11
REMARK    2  A    between atoms: C_8  and  O_20
REMARK    3  A    between atoms: C_14  and  N_17
REMARK                            x       y       z     vdW  Elec       q    Type
REMARK                         _______ _______ _______ _____ _____    ______ ____
ROOT
ATOM      1  S   UNL     1      34.629 -19.323 -23.450  0.00  0.00    -0.053 S 
ATOM      2  N   UNL     1      34.140 -17.624 -21.571  0.00  0.00    -0.399 NA
ATOM      3  C   UNL     1      34.402 -18.888 -21.812  0.00  0.00    +0.161 C 
ATOM      4  C   UNL     1      34.357 -17.684 -23.912  0.00  0.00    +0.061 C 
ATOM      5  C   UNL     1      34.110 -16.921 -22.767  0.00  0.00    +0.120 C 
ATOM      6  C   UNL     1      34.360 -17.115 -25.196  0.00  0.00    +0.045 C 
ATOM      7  C   UNL     1      33.858 -15.540 -22.915  0.00  0.00    +0.089 C 
ATOM      8  C   UNL     1      34.108 -15.745 -25.315  0.00  0.00    +0.130 C 
ATOM      9  C   UNL     1      33.859 -14.966 -24.189  0.00  0.00    +0.018 C 
ENDROOT
BRANCH   3  11
ATOM     10  F   UNL     1      37.080 -21.718 -18.973  0.00  0.00    -0.203 F 
ATOM     11  C   UNL     1      34.509 -19.915 -20.802  0.00  0.00    +0.038 C 
ATOM     12  C   UNL     1      35.765 -20.332 -20.364  0.00  0.00    +0.034 C 
ATOM     13  C   UNL     1      33.356 -20.489 -20.268  0.00  0.00    +0.004 C 
ATOM     14  C   UNL     1      34.716 -21.900 -18.855  0.00  0.00    +0.073 C 
ATOM     15  C   UNL     1      35.868 -21.325 -19.389  0.00  0.00    +0.153 C 
ATOM     16  C   UNL     1      33.459 -21.482 -19.294  0.00  0.00    +0.017 C 
BRANCH  14  17
ATOM     17  N   UNL     1      34.817 -22.902 -17.868  0.00  0.00    -0.330 N 
ATOM     18  C   UNL     1      33.731 -23.261 -17.010  0.00  0.00    +0.109 C 
ATOM     19  H   UNL     1      35.674 -23.377 -17.765  0.00  0.00    +0.147 HD
ENDBRANCH  14  17
ENDBRANCH   3  11
BRANCH   8  20
ATOM     20  O   UNL     1      34.105 -15.170 -26.550  0.00  0.00    -0.506 OA
ATOM     21  H   UNL     1      34.384 -15.661 -27.296  0.00  0.00    +0.292 HD
ENDBRANCH   8  20
TORSDOF 3
ENDMDL
MODEL 6
REMARK VINA RESULT:      -8.9      3.911      7.466
REMARK  Name = 15950376
REMARK  3 active torsions:
REMARK  status: ('A' for Active; 'I' for Inactive)
REMARK    1  A    between atoms: C_3  and  C_11
REMARK    2  A    between atoms: C_8  and  O_20
REMARK    3  A    between atoms: C_14  and  N_17
REMARK                            x       y       z     vdW  Elec       q    Type
REMARK                         _______ _______ _______ _____ _____    ______ ____
ROOT
ATOM      1  S   UNL     1      33.052 -19.026 -20.989  0.00  0.00    -0.053 S 
ATOM      2  N   UNL     1      35.615 -18.743 -20.921  0.00  0.00    -0.399 NA
ATOM      3  C   UNL     1      34.498 -18.171 -21.308  0.00  0.00    +0.161 C 
ATOM      4  C   UNL     1      33.971 -20.290 -20.261  0.00  0.00    +0.061 C 
ATOM      5  C   UNL     1      35.329 -19.959 -20.319  0.00  0.00    +0.120 C 
ATOM      6  C   UNL     1      33.524 -21.489 -19.682  0.00  0.00    +0.045 C 
ATOM      7  C   UNL     1      36.270 -20.862 -19.777  0.00  0.00    +0.089 C 
ATOM      8  C   UNL     1      34.476 -22.365 -19.153  0.00  0.00    +0.130 C 
ATOM      9  C   UNL     1      35.832 -22.058 -19.199  0.00  0.00    +0.018 C 
ENDROOT
BRANCH   3  11
ATOM     10  F   UNL     1      34.199 -15.557 -25.347  0.00  0.00    -0.203 F 
ATOM     11  C   UNL     1      34.414 -16.893 -21.974  0.00  0.00    +0.038 C 
ATOM     12  C   UNL     1      34.346 -16.836 -23.365  0.00  0.00    +0.034 C 
ATOM     13  C   UNL     1      34.403 -15.716 -21.225  0.00  0.00    +0.004 C 
ATOM     14  C   UNL     1      34.254 -14.424 -23.261  0.00  0.00    +0.073 C 
ATOM     15  C   UNL     1      34.266 -15.601 -24.009  0.00  0.00    +0.153 C 
ATOM     16  C   UNL     1      34.322 -14.482 -21.869  0.00  0.00    +0.017 C 
BRANCH  14  17
ATOM     17  N   UNL     1      34.171 -13.175 -23.910  0.00  0.00    -0.330 N 
ATOM     18  C   UNL     1      33.249 -12.154 -23.516  0.00  0.00    +0.109 C 
ATOM     19  H   UNL     1      34.774 -12.996 -24.667  0.00  0.00    +0.147 HD
ENDBRANCH  14  17
ENDBRANCH   3  11
BRANCH   8  20
ATOM     20  O   UNL     1      34.067 -23.535 -18.587  0.00  0.00    -0.506 OA
ATOM     21  H   UNL     1      33.230 -23.894 -18.805  0.00  0.00    +0.292 HD
ENDBRANCH   8  20
TORSDOF 3
ENDMDL
MODEL 7
REMARK VINA RESULT:      -8.8      6.292      9.498
REMARK  Name = 15950376
REMARK  3 active torsions:
REMARK  status: ('A' for Active; 'I' for Inactive)
REMARK    1  A    between atoms: C_3  and  C_11
REMARK    2  A    between atoms: C_8  and  O_20
REMARK    3  A    between atoms: C_14  and  N_17
REMARK                            x       y       z     vdW  Elec       q    Type
REMARK                         _______ _______ _______ _____ _____    ______ ____
ROOT
ATOM      1  S   UNL     1      33.912 -23.141 -16.511  0.00  0.00    -0.053 S 
ATOM      2  N   UNL     1      31.640 -22.532 -17.570  0.00  0.00    -0.399 NA
ATOM      3  C   UNL     1      32.939 -22.415 -17.716  0.00  0.00    +0.161 C 
ATOM      4  C   UNL     1      32.488 -23.674 -15.698  0.00  0.00    +0.061 C 
ATOM      5  C   UNL     1      31.365 -23.252 -16.416  0.00  0.00    +0.120 C 
ATOM      6  C   UNL     1      32.373 -24.413 -14.509  0.00  0.00    +0.045 C 
ATOM      7  C   UNL     1      30.083 -23.580 -15.924  0.00  0.00    +0.089 C 
ATOM      8  C   UNL     1      31.092 -24.725 -14.044  0.00  0.00    +0.130 C 
ATOM      9  C   UNL     1      29.960 -24.315 -14.741  0.00  0.00    +0.018 C 
ENDROOT
BRANCH   3  11
ATOM     10  F   UNL     1      36.889 -21.425 -20.295  0.00  0.00    -0.203 F 
ATOM     11  C   UNL     1      33.588 -21.725 -18.806  0.00  0.00    +0.038 C 
ATOM     12  C   UNL     1      34.951 -21.908 -19.032  0.00  0.00    +0.034 C 
ATOM     13  C   UNL     1      32.850 -20.876 -19.630  0.00  0.00    +0.004 C 
ATOM     14  C   UNL     1      34.842 -20.392 -20.910  0.00  0.00    +0.073 C 
ATOM     15  C   UNL     1      35.578 -21.241 -20.085  0.00  0.00    +0.153 C 
ATOM     16  C   UNL     1      33.478 -20.209 -20.682  0.00  0.00    +0.017 C 
BRANCH  14  17
ATOM     17  N   UNL     1      35.473 -19.718 -21.976  0.00  0.00    -0.330 N 
ATOM     18  C   UNL     1      36.115 -18.449 -21.822  0.00  0.00    +0.109 C 
ATOM     19  H   UNL     1      35.473 -20.140 -22.865  0.00  0.00    +0.147 HD
ENDBRANCH  14  17
ENDBRANCH   3  11
BRANCH   8  20
ATOM     20  O   UNL     1      30.954 -25.440 -12.892  0.00  0.00    -0.506 OA
ATOM     21  H   UNL     1      31.645 -26.003 -12.604  0.00  0.00    +0.292 HD
ENDBRANCH   8  20
TORSDOF 3
ENDMDL
MODEL 8
REMARK VINA RESULT:      -8.7      1.606      1.878
REMARK  Name = 15950376
REMARK  3 active torsions:
REMARK  status: ('A' for Active; 'I' for Inactive)
REMARK    1  A    between atoms: C_3  and  C_11
REMARK    2  A    between atoms: C_8  and  O_20
REMARK    3  A    between atoms: C_14  and  N_17
REMARK                            x       y       z     vdW  Elec       q    Type
REMARK                         _______ _______ _______ _____ _____    ______ ____
ROOT
ATOM      1  S   UNL     1      34.892 -15.945 -23.205  0.00  0.00    -0.053 S 
ATOM      2  N   UNL     1      33.243 -15.771 -21.228  0.00  0.00    -0.399 NA
ATOM      3  C   UNL     1      34.128 -16.554 -21.801  0.00  0.00    +0.161 C 
ATOM      4  C   UNL     1      33.974 -14.493 -23.062  0.00  0.00    +0.061 C 
ATOM      5  C   UNL     1      33.144 -14.585 -21.940  0.00  0.00    +0.120 C 
ATOM      6  C   UNL     1      33.987 -13.354 -23.883  0.00  0.00    +0.045 C 
ATOM      7  C   UNL     1      32.297 -13.498 -21.633  0.00  0.00    +0.089 C 
ATOM      8  C   UNL     1      33.139 -12.291 -23.557  0.00  0.00    +0.130 C 
ATOM      9  C   UNL     1      32.304 -12.361 -22.447  0.00  0.00    +0.018 C 
ENDROOT
BRANCH   3  11
ATOM     10  F   UNL     1      32.881 -20.970 -20.323  0.00  0.00    -0.203 F 
ATOM     11  C   UNL     1      34.490 -17.871 -21.333  0.00  0.00    +0.038 C 
ATOM     12  C   UNL     1      33.495 -18.806 -21.047  0.00  0.00    +0.034 C 
ATOM     13  C   UNL     1      35.833 -18.207 -21.165  0.00  0.00    +0.004 C 
ATOM     14  C   UNL     1      35.187 -20.414 -20.425  0.00  0.00    +0.073 C 
ATOM     15  C   UNL     1      33.844 -20.078 -20.593  0.00  0.00    +0.153 C 
ATOM     16  C   UNL     1      36.181 -19.478 -20.712  0.00  0.00    +0.017 C 
BRANCH  14  17
ATOM     17  N   UNL     1      35.543 -21.700 -19.969  0.00  0.00    -0.330 N 
ATOM     18  C   UNL     1      35.730 -22.010 -18.585  0.00  0.00    +0.109 C 
ATOM     19  H   UNL     1      35.667 -22.418 -20.632  0.00  0.00    +0.147 HD
ENDBRANCH  14  17
ENDBRANCH   3  11
BRANCH   8  20
ATOM     20  O   UNL     1      33.133 -11.176 -24.339  0.00  0.00    -0.506 OA
ATOM     21  H   UNL     1      33.913 -10.908 -24.781  0.00  0.00    +0.292 HD
ENDBRANCH   8  20
TORSDOF 3
ENDMDL
MODEL 9
REMARK VINA RESULT:      -8.7     10.049     12.001
REMARK  Name = 15950376
REMARK  3 active torsions:
REMARK  status: ('A' for Active; 'I' for Inactive)
REMARK    1  A    between atoms: C_3  and  C_11
REMARK    2  A    between atoms: C_8  and  O_20
REMARK    3  A    between atoms: C_14  and  N_17
REMARK                            x       y       z     vdW  Elec       q    Type
REMARK                         _______ _______ _______ _____ _____    ______ ____
ROOT
ATOM      1  S   UNL     1      34.602 -23.863 -15.397  0.00  0.00    -0.053 S 
ATOM      2  N   UNL     1      33.537 -24.171 -13.068  0.00  0.00    -0.399 NA
ATOM      3  C   UNL     1      33.264 -23.991 -14.340  0.00  0.00    +0.161 C 
ATOM      4  C   UNL     1      35.668 -24.064 -14.057  0.00  0.00    +0.061 C 
ATOM      5  C   UNL     1      34.912 -24.215 -12.890  0.00  0.00    +0.120 C 
ATOM      6  C   UNL     1      37.072 -24.086 -14.039  0.00  0.00    +0.045 C 
ATOM      7  C   UNL     1      35.588 -24.393 -11.663  0.00  0.00    +0.089 C 
ATOM      8  C   UNL     1      37.716 -24.265 -12.811  0.00  0.00    +0.130 C 
ATOM      9  C   UNL     1      36.985 -24.416 -11.637  0.00  0.00    +0.018 C 
ENDROOT
BRANCH   3  11
ATOM     10  F   UNL     1      28.638 -25.344 -14.399  0.00  0.00    -0.203 F 
ATOM     11  C   UNL     1      31.933 -23.894 -14.892  0.00  0.00    +0.038 C 
ATOM     12  C   UNL     1      30.905 -24.679 -14.372  0.00  0.00    +0.034 C 
ATOM     13  C   UNL     1      31.679 -23.018 -15.947  0.00  0.00    +0.004 C 
ATOM     14  C   UNL     1      29.364 -23.711 -15.961  0.00  0.00    +0.073 C 
ATOM     15  C   UNL     1      29.620 -24.587 -14.907  0.00  0.00    +0.153 C 
ATOM     16  C   UNL     1      30.394 -22.926 -16.480  0.00  0.00    +0.017 C 
BRANCH  14  17
ATOM     17  N   UNL     1      28.066 -23.614 -16.502  0.00  0.00    -0.330 N 
ATOM     18  C   UNL     1      27.441 -22.363 -16.804  0.00  0.00    +0.109 C 
ATOM     19  H   UNL     1      27.567 -24.444 -16.680  0.00  0.00    +0.147 HD
ENDBRANCH  14  17
ENDBRANCH   3  11
BRANCH   8  20
ATOM     20  O   UNL     1      39.078 -24.289 -12.767  0.00  0.00    -0.506 OA
ATOM     21  H   UNL     1      39.574 -24.195 -13.556  0.00  0.00    +0.292 HD
ENDBRANCH   8  20
TORSDOF 3
ENDMDL
