MODEL 1
REMARK VINA RESULT:      -9.4      0.000      0.000
REMARK  Name = 18794
REMARK  4 active torsions:
REMARK  status: ('A' for Active; 'I' for Inactive)
REMARK    1  A    between atoms: N_2  and  S_8
REMARK    2  A    between atoms: C_6  and  S_17
REMARK    3  A    between atoms: S_8  and  C_11
REMARK    4  A    between atoms: S_17  and  N_20
REMARK                            x       y       z     vdW  Elec       q    Type
REMARK                         _______ _______ _______ _____ _____    ______ ____
ROOT
ATOM      1  S   UNL     1      37.063 -23.256 -15.669  0.00  0.00    -0.009 S 
ATOM      2  N   UNL     1      35.060 -22.219 -17.302  0.00  0.00    -0.192 N 
ATOM      3  N   UNL     1      34.805 -24.358 -16.171  0.00  0.00    -0.123 NA
ATOM      4  N   UNL     1      35.464 -25.228 -15.320  0.00  0.00    -0.119 NA
ATOM      5  C   UNL     1      35.535 -23.307 -16.419  0.00  0.00    +0.202 A 
ATOM      6  C   UNL     1      36.652 -24.773 -14.982  0.00  0.00    +0.256 A 
ATOM      7  H   UNL     1      35.449 -21.316 -17.272  0.00  0.00    +0.176 HD
ENDROOT
BRANCH   2   8
ATOM      8  S   UNL     1      33.787 -22.630 -18.382  0.00  0.00    +0.075 S 
ATOM      9  O   UNL     1      32.517 -22.511 -17.676  0.00  0.00    -0.150 OA
ATOM     10  O   UNL     1      34.111 -23.872 -19.073  0.00  0.00    -0.150 OA
BRANCH   8  11
ATOM     11  C   UNL     1      33.899 -21.332 -19.544  0.00  0.00    +0.125 C 
ATOM     12  C   UNL     1      35.142 -20.956 -20.053  0.00  0.00    +0.020 C 
ATOM     13  C   UNL     1      32.745 -20.671 -19.964  0.00  0.00    +0.020 C 
ATOM     14  C   UNL     1      35.232 -19.918 -20.981  0.00  0.00    +0.001 C 
ATOM     15  C   UNL     1      32.835 -19.633 -20.892  0.00  0.00    +0.001 C 
ATOM     16  C   UNL     1      34.077 -19.258 -21.400  0.00  0.00    +0.000 C 
ENDBRANCH   8  11
ENDBRANCH   2   8
BRANCH   6  17
ATOM     17  S   UNL     1      37.794 -25.558 -13.939  0.00  0.00    +0.081 S 
ATOM     18  O   UNL     1      38.424 -26.653 -14.669  0.00  0.00    -0.151 OA
ATOM     19  O   UNL     1      38.632 -24.545 -13.306  0.00  0.00    -0.151 OA
BRANCH  17  20
ATOM     20  N   UNL     1      36.759 -26.223 -12.749  0.00  0.00    -0.202 NA
ATOM     21  H   UNL     1      37.044 -25.893 -11.827  0.00  0.00    +0.144 HD
ATOM     22  H   UNL     1      36.817 -27.241 -12.778  0.00  0.00    +0.144 HD
ENDBRANCH  17  20
ENDBRANCH   6  17
TORSDOF 4
ENDMDL
MODEL 2
REMARK VINA RESULT:      -9.4      0.018      1.108
REMARK  Name = 18794
REMARK  4 active torsions:
REMARK  status: ('A' for Active; 'I' for Inactive)
REMARK    1  A    between atoms: N_2  and  S_8
REMARK    2  A    between atoms: C_6  and  S_17
REMARK    3  A    between atoms: S_8  and  C_11
REMARK    4  A    between atoms: S_17  and  N_20
REMARK                            x       y       z     vdW  Elec       q    Type
REMARK                         _______ _______ _______ _____ _____    ______ ____
ROOT
ATOM      1  S   UNL     1      37.066 -23.259 -15.657  0.00  0.00    -0.009 S 
ATOM      2  N   UNL     1      35.067 -22.224 -17.296  0.00  0.00    -0.192 N 
ATOM      3  N   UNL     1      34.812 -24.365 -16.170  0.00  0.00    -0.123 NA
ATOM      4  N   UNL     1      35.470 -25.236 -15.319  0.00  0.00    -0.119 NA
ATOM      5  C   UNL     1      35.540 -23.312 -16.413  0.00  0.00    +0.202 A 
ATOM      6  C   UNL     1      36.656 -24.779 -14.976  0.00  0.00    +0.256 A 
ATOM      7  H   UNL     1      35.454 -21.319 -17.262  0.00  0.00    +0.176 HD
ENDROOT
BRANCH   2   8
ATOM      8  S   UNL     1      33.798 -22.635 -18.381  0.00  0.00    +0.075 S 
ATOM      9  O   UNL     1      32.526 -22.515 -17.681  0.00  0.00    -0.150 OA
ATOM     10  O   UNL     1      34.125 -23.876 -19.070  0.00  0.00    -0.150 OA
BRANCH   8  11
ATOM     11  C   UNL     1      33.916 -21.337 -19.543  0.00  0.00    +0.125 C 
ATOM     12  C   UNL     1      32.766 -20.669 -19.962  0.00  0.00    +0.020 C 
ATOM     13  C   UNL     1      35.161 -20.967 -20.052  0.00  0.00    +0.020 C 
ATOM     14  C   UNL     1      32.860 -19.633 -20.891  0.00  0.00    +0.001 C 
ATOM     15  C   UNL     1      35.255 -19.930 -20.981  0.00  0.00    +0.001 C 
ATOM     16  C   UNL     1      34.105 -19.264 -21.400  0.00  0.00    +0.000 C 
ENDBRANCH   8  11
ENDBRANCH   2   8
BRANCH   6  17
ATOM     17  S   UNL     1      37.795 -25.564 -13.930  0.00  0.00    +0.081 S 
ATOM     18  O   UNL     1      38.413 -26.671 -14.653  0.00  0.00    -0.151 OA
ATOM     19  O   UNL     1      38.645 -24.552 -13.310  0.00  0.00    -0.151 OA
BRANCH  17  20
ATOM     20  N   UNL     1      36.760 -26.209 -12.729  0.00  0.00    -0.202 NA
ATOM     21  H   UNL     1      37.055 -25.876 -11.812  0.00  0.00    +0.144 HD
ATOM     22  H   UNL     1      36.806 -27.228 -12.753  0.00  0.00    +0.144 HD
ENDBRANCH  17  20
ENDBRANCH   6  17
TORSDOF 4
ENDMDL
MODEL 3
REMARK VINA RESULT:      -9.2      4.591      6.646
REMARK  Name = 18794
REMARK  4 active torsions:
REMARK  status: ('A' for Active; 'I' for Inactive)
REMARK    1  A    between atoms: N_2  and  S_8
REMARK    2  A    between atoms: C_6  and  S_17
REMARK    3  A    between atoms: S_8  and  C_11
REMARK    4  A    between atoms: S_17  and  N_20
REMARK                            x       y       z     vdW  Elec       q    Type
REMARK                         _______ _______ _______ _____ _____    ______ ____
ROOT
ATOM      1  S   UNL     1      33.009 -20.485 -20.264  0.00  0.00    -0.009 S 
ATOM      2  N   UNL     1      33.790 -18.176 -21.610  0.00  0.00    -0.192 N 
ATOM      3  N   UNL     1      35.408 -19.619 -20.509  0.00  0.00    -0.123 NA
ATOM      4  N   UNL     1      35.505 -20.786 -19.769  0.00  0.00    -0.119 NA
ATOM      5  C   UNL     1      34.168 -19.367 -20.819  0.00  0.00    +0.202 A 
ATOM      6  C   UNL     1      34.327 -21.336 -19.571  0.00  0.00    +0.256 A 
ATOM      7  H   UNL     1      32.933 -18.120 -22.092  0.00  0.00    +0.176 HD
ENDROOT
BRANCH   2   8
ATOM      8  S   UNL     1      34.939 -16.897 -21.639  0.00  0.00    +0.075 S 
ATOM      9  O   UNL     1      35.937 -17.188 -22.660  0.00  0.00    -0.150 OA
ATOM     10  O   UNL     1      35.369 -16.593 -20.280  0.00  0.00    -0.150 OA
BRANCH   8  11
ATOM     11  C   UNL     1      33.950 -15.569 -22.192  0.00  0.00    +0.125 C 
ATOM     12  C   UNL     1      34.008 -15.163 -23.525  0.00  0.00    +0.020 C 
ATOM     13  C   UNL     1      33.101 -14.913 -21.301  0.00  0.00    +0.020 C 
ATOM     14  C   UNL     1      33.219 -14.101 -23.967  0.00  0.00    +0.001 C 
ATOM     15  C   UNL     1      32.311 -13.851 -21.742  0.00  0.00    +0.001 C 
ATOM     16  C   UNL     1      32.370 -13.446 -23.075  0.00  0.00    +0.000 C 
ENDBRANCH   8  11
ENDBRANCH   2   8
BRANCH   6  17
ATOM     17  S   UNL     1      34.012 -22.799 -18.693  0.00  0.00    +0.081 S 
ATOM     18  O   UNL     1      33.972 -23.913 -19.635  0.00  0.00    -0.151 OA
ATOM     19  O   UNL     1      34.909 -22.865 -17.544  0.00  0.00    -0.151 OA
BRANCH  17  20
ATOM     20  N   UNL     1      32.424 -22.514 -18.122  0.00  0.00    -0.202 NA
ATOM     21  H   UNL     1      31.817 -22.279 -18.907  0.00  0.00    +0.144 HD
ATOM     22  H   UNL     1      32.436 -21.739 -17.458  0.00  0.00    +0.144 HD
ENDBRANCH  17  20
ENDBRANCH   6  17
TORSDOF 4
ENDMDL
MODEL 4
REMARK VINA RESULT:      -8.8      6.984     10.336
REMARK  Name = 18794
REMARK  4 active torsions:
REMARK  status: ('A' for Active; 'I' for Inactive)
REMARK    1  A    between atoms: N_2  and  S_8
REMARK    2  A    between atoms: C_6  and  S_17
REMARK    3  A    between atoms: S_8  and  C_11
REMARK    4  A    between atoms: S_17  and  N_20
REMARK                            x       y       z     vdW  Elec       q    Type
REMARK                         _______ _______ _______ _____ _____    ______ ____
ROOT
ATOM      1  S   UNL     1      33.488 -15.298 -21.773  0.00  0.00    -0.009 S 
ATOM      2  N   UNL     1      34.868 -17.580 -20.972  0.00  0.00    -0.192 N 
ATOM      3  N   UNL     1      35.395 -16.435 -23.052  0.00  0.00    -0.123 NA
ATOM      4  N   UNL     1      35.023 -15.348 -23.824  0.00  0.00    -0.119 NA
ATOM      5  C   UNL     1      34.671 -16.507 -21.971  0.00  0.00    +0.202 A 
ATOM      6  C   UNL     1      34.039 -14.671 -23.271  0.00  0.00    +0.256 A 
ATOM      7  H   UNL     1      34.552 -17.493 -20.044  0.00  0.00    +0.176 HD
ENDROOT
BRANCH   2   8
ATOM      8  S   UNL     1      35.685 -18.986 -21.531  0.00  0.00    +0.075 S 
ATOM      9  O   UNL     1      37.104 -18.855 -21.228  0.00  0.00    -0.150 OA
ATOM     10  O   UNL     1      35.266 -19.288 -22.894  0.00  0.00    -0.150 OA
BRANCH   8  11
ATOM     11  C   UNL     1      35.005 -20.208 -20.485  0.00  0.00    +0.125 C 
ATOM     12  C   UNL     1      33.621 -20.342 -20.375  0.00  0.00    +0.020 C 
ATOM     13  C   UNL     1      35.847 -21.052 -19.761  0.00  0.00    +0.020 C 
ATOM     14  C   UNL     1      33.079 -21.318 -19.539  0.00  0.00    +0.001 C 
ATOM     15  C   UNL     1      35.304 -22.028 -18.925  0.00  0.00    +0.001 C 
ATOM     16  C   UNL     1      33.921 -22.161 -18.814  0.00  0.00    +0.000 C 
ENDBRANCH   8  11
ENDBRANCH   2   8
BRANCH   6  17
ATOM     17  S   UNL     1      33.282 -13.249 -23.914  0.00  0.00    +0.081 S 
ATOM     18  O   UNL     1      34.175 -12.111 -23.720  0.00  0.00    -0.151 OA
ATOM     19  O   UNL     1      32.780 -13.544 -25.253  0.00  0.00    -0.151 OA
BRANCH  17  20
ATOM     20  N   UNL     1      31.943 -13.076 -22.863  0.00  0.00    -0.202 NA
ATOM     21  H   UNL     1      31.185 -12.602 -23.352  0.00  0.00    +0.144 HD
ATOM     22  H   UNL     1      32.219 -12.525 -22.049  0.00  0.00    +0.144 HD
ENDBRANCH  17  20
ENDBRANCH   6  17
TORSDOF 4
ENDMDL
MODEL 5
REMARK VINA RESULT:      -8.5      4.817      5.278
REMARK  Name = 18794
REMARK  4 active torsions:
REMARK  status: ('A' for Active; 'I' for Inactive)
REMARK    1  A    between atoms: N_2  and  S_8
REMARK    2  A    between atoms: C_6  and  S_17
REMARK    3  A    between atoms: S_8  and  C_11
REMARK    4  A    between atoms: S_17  and  N_20
REMARK                            x       y       z     vdW  Elec       q    Type
REMARK                         _______ _______ _______ _____ _____    ______ ____
ROOT
ATOM      1  S   UNL     1      35.656 -24.388 -15.073  0.00  0.00    -0.009 S 
ATOM      2  N   UNL     1      32.965 -23.786 -14.689  0.00  0.00    -0.192 N 
ATOM      3  N   UNL     1      34.471 -24.148 -12.814  0.00  0.00    -0.123 NA
ATOM      4  N   UNL     1      35.789 -24.448 -12.515  0.00  0.00    -0.119 NA
ATOM      5  C   UNL     1      34.288 -24.092 -14.103  0.00  0.00    +0.202 A 
ATOM      6  C   UNL     1      36.514 -24.599 -13.603  0.00  0.00    +0.256 A 
ATOM      7  H   UNL     1      32.867 -23.457 -15.612  0.00  0.00    +0.176 HD
ENDROOT
BRANCH   2   8
ATOM      8  S   UNL     1      31.611 -24.036 -13.660  0.00  0.00    +0.075 S 
ATOM      9  O   UNL     1      31.567 -22.962 -12.675  0.00  0.00    -0.150 OA
ATOM     10  O   UNL     1      31.585 -25.422 -13.212  0.00  0.00    -0.150 OA
BRANCH   8  11
ATOM     11  C   UNL     1      30.291 -23.816 -14.780  0.00  0.00    +0.125 C 
ATOM     12  C   UNL     1      29.820 -24.896 -15.525  0.00  0.00    +0.020 C 
ATOM     13  C   UNL     1      29.706 -22.558 -14.930  0.00  0.00    +0.020 C 
ATOM     14  C   UNL     1      28.765 -24.720 -16.421  0.00  0.00    +0.001 C 
ATOM     15  C   UNL     1      28.651 -22.382 -15.826  0.00  0.00    +0.001 C 
ATOM     16  C   UNL     1      28.181 -23.462 -16.570  0.00  0.00    +0.000 C 
ENDBRANCH   8  11
ENDBRANCH   2   8
BRANCH   6  17
ATOM     17  S   UNL     1      38.205 -24.981 -13.666  0.00  0.00    +0.081 S 
ATOM     18  O   UNL     1      38.891 -24.258 -12.600  0.00  0.00    -0.151 OA
ATOM     19  O   UNL     1      38.360 -26.429 -13.762  0.00  0.00    -0.151 OA
BRANCH  17  20
ATOM     20  N   UNL     1      38.651 -24.290 -15.166  0.00  0.00    -0.202 NA
ATOM     21  H   UNL     1      39.325 -23.541 -15.009  0.00  0.00    +0.144 HD
ATOM     22  H   UNL     1      37.822 -23.911 -15.626  0.00  0.00    +0.144 HD
ENDBRANCH  17  20
ENDBRANCH   6  17
TORSDOF 4
ENDMDL
MODEL 6
REMARK VINA RESULT:      -8.5      4.170      7.660
REMARK  Name = 18794
REMARK  4 active torsions:
REMARK  status: ('A' for Active; 'I' for Inactive)
REMARK    1  A    between atoms: N_2  and  S_8
REMARK    2  A    between atoms: C_6  and  S_17
REMARK    3  A    between atoms: S_8  and  C_11
REMARK    4  A    between atoms: S_17  and  N_20
REMARK                            x       y       z     vdW  Elec       q    Type
REMARK                         _______ _______ _______ _____ _____    ______ ____
ROOT
ATOM      1  S   UNL     1      33.063 -19.897 -20.989  0.00  0.00    -0.009 S 
ATOM      2  N   UNL     1      32.981 -21.694 -18.864  0.00  0.00    -0.192 N 
ATOM      3  N   UNL     1      35.087 -20.845 -19.736  0.00  0.00    -0.123 NA
ATOM      4  N   UNL     1      35.607 -20.001 -20.703  0.00  0.00    -0.119 NA
ATOM      5  C   UNL     1      33.786 -20.869 -19.792  0.00  0.00    +0.202 A 
ATOM      6  C   UNL     1      34.659 -19.443 -21.424  0.00  0.00    +0.256 A 
ATOM      7  H   UNL     1      32.029 -21.510 -18.694  0.00  0.00    +0.176 HD
ENDROOT
BRANCH   2   8
ATOM      8  S   UNL     1      33.812 -22.989 -18.097  0.00  0.00    +0.075 S 
ATOM      9  O   UNL     1      35.144 -22.533 -17.719  0.00  0.00    -0.150 OA
ATOM     10  O   UNL     1      33.668 -24.202 -18.892  0.00  0.00    -0.150 OA
BRANCH   8  11
ATOM     11  C   UNL     1      32.861 -23.189 -16.647  0.00  0.00    +0.125 C 
ATOM     12  C   UNL     1      33.480 -23.543 -15.449  0.00  0.00    +0.020 C 
ATOM     13  C   UNL     1      31.480 -22.992 -16.687  0.00  0.00    +0.020 C 
ATOM     14  C   UNL     1      32.719 -23.703 -14.291  0.00  0.00    +0.001 C 
ATOM     15  C   UNL     1      30.719 -23.152 -15.528  0.00  0.00    +0.001 C 
ATOM     16  C   UNL     1      31.339 -23.507 -14.331  0.00  0.00    +0.000 C 
ENDBRANCH   8  11
ENDBRANCH   2   8
BRANCH   6  17
ATOM     17  S   UNL     1      34.886 -18.329 -22.734  0.00  0.00    +0.081 S 
ATOM     18  O   UNL     1      34.457 -18.966 -23.975  0.00  0.00    -0.151 OA
ATOM     19  O   UNL     1      34.319 -17.037 -22.361  0.00  0.00    -0.151 OA
BRANCH  17  20
ATOM     20  N   UNL     1      36.591 -18.183 -22.759  0.00  0.00    -0.202 NA
ATOM     21  H   UNL     1      37.012 -19.111 -22.727  0.00  0.00    +0.144 HD
ATOM     22  H   UNL     1      36.898 -17.641 -21.951  0.00  0.00    +0.144 HD
ENDBRANCH  17  20
ENDBRANCH   6  17
TORSDOF 4
ENDMDL
MODEL 7
REMARK VINA RESULT:      -8.2      4.461      7.657
REMARK  Name = 18794
REMARK  4 active torsions:
REMARK  status: ('A' for Active; 'I' for Inactive)
REMARK    1  A    between atoms: N_2  and  S_8
REMARK    2  A    between atoms: C_6  and  S_17
REMARK    3  A    between atoms: S_8  and  C_11
REMARK    4  A    between atoms: S_17  and  N_20
REMARK                            x       y       z     vdW  Elec       q    Type
REMARK                         _______ _______ _______ _____ _____    ______ ____
ROOT
ATOM      1  S   UNL     1      31.202 -23.197 -14.242  0.00  0.00    -0.009 S 
ATOM      2  N   UNL     1      33.983 -23.133 -14.374  0.00  0.00    -0.192 N 
ATOM      3  N   UNL     1      32.608 -23.061 -16.380  0.00  0.00    -0.123 NA
ATOM      4  N   UNL     1      31.289 -23.066 -16.800  0.00  0.00    -0.119 NA
ATOM      5  C   UNL     1      32.683 -23.125 -15.081  0.00  0.00    +0.202 A 
ATOM      6  C   UNL     1      30.454 -23.134 -15.784  0.00  0.00    +0.256 A 
ATOM      7  H   UNL     1      34.061 -22.891 -13.423  0.00  0.00    +0.176 HD
ENDROOT
BRANCH   2   8
ATOM      8  S   UNL     1      35.346 -23.588 -15.317  0.00  0.00    +0.075 S 
ATOM      9  O   UNL     1      35.774 -22.441 -16.108  0.00  0.00    -0.150 OA
ATOM     10  O   UNL     1      35.083 -24.859 -15.979  0.00  0.00    -0.150 OA
BRANCH   8  11
ATOM     11  C   UNL     1      36.535 -23.877 -14.071  0.00  0.00    +0.125 C 
ATOM     12  C   UNL     1      36.414 -23.250 -12.831  0.00  0.00    +0.020 C 
ATOM     13  C   UNL     1      37.607 -24.736 -14.315  0.00  0.00    +0.020 C 
ATOM     14  C   UNL     1      37.364 -23.480 -11.837  0.00  0.00    +0.001 C 
ATOM     15  C   UNL     1      38.557 -24.967 -13.320  0.00  0.00    +0.001 C 
ATOM     16  C   UNL     1      38.435 -24.339 -12.082  0.00  0.00    +0.000 C 
ENDBRANCH   8  11
ENDBRANCH   2   8
BRANCH   6  17
ATOM     17  S   UNL     1      28.723 -23.167 -15.879  0.00  0.00    +0.081 S 
ATOM     18  O   UNL     1      28.237 -24.371 -15.213  0.00  0.00    -0.151 OA
ATOM     19  O   UNL     1      28.201 -21.865 -15.472  0.00  0.00    -0.151 OA
BRANCH  17  20
ATOM     20  N   UNL     1      28.481 -23.342 -17.564  0.00  0.00    -0.202 NA
ATOM     21  H   UNL     1      28.487 -22.423 -18.006  0.00  0.00    +0.144 HD
ATOM     22  H   UNL     1      27.583 -23.795 -17.733  0.00  0.00    +0.144 HD
ENDBRANCH  17  20
ENDBRANCH   6  17
TORSDOF 4
ENDMDL
MODEL 8
REMARK VINA RESULT:      -8.2      3.376      4.093
REMARK  Name = 18794
REMARK  4 active torsions:
REMARK  status: ('A' for Active; 'I' for Inactive)
REMARK    1  A    between atoms: N_2  and  S_8
REMARK    2  A    between atoms: C_6  and  S_17
REMARK    3  A    between atoms: S_8  and  C_11
REMARK    4  A    between atoms: S_17  and  N_20
REMARK                            x       y       z     vdW  Elec       q    Type
REMARK                         _______ _______ _______ _____ _____    ______ ____
ROOT
ATOM      1  S   UNL     1      31.506 -22.896 -16.366  0.00  0.00    -0.009 S 
ATOM      2  N   UNL     1      33.039 -22.577 -18.669  0.00  0.00    -0.192 N 
ATOM      3  N   UNL     1      33.898 -23.744 -16.717  0.00  0.00    -0.123 NA
ATOM      4  N   UNL     1      33.548 -24.132 -15.434  0.00  0.00    -0.119 NA
ATOM      5  C   UNL     1      32.922 -23.100 -17.290  0.00  0.00    +0.202 A 
ATOM      6  C   UNL     1      32.326 -23.752 -15.127  0.00  0.00    +0.256 A 
ATOM      7  H   UNL     1      32.247 -22.356 -19.212  0.00  0.00    +0.176 HD
ENDROOT
BRANCH   2   8
ATOM      8  S   UNL     1      34.639 -22.379 -19.265  0.00  0.00    +0.075 S 
ATOM      9  O   UNL     1      34.903 -23.418 -20.253  0.00  0.00    -0.150 OA
ATOM     10  O   UNL     1      35.559 -22.199 -18.149  0.00  0.00    -0.150 OA
BRANCH   8  11
ATOM     11  C   UNL     1      34.504 -20.848 -20.093  0.00  0.00    +0.125 C 
ATOM     12  C   UNL     1      33.247 -20.292 -20.331  0.00  0.00    +0.020 C 
ATOM     13  C   UNL     1      35.653 -20.180 -20.516  0.00  0.00    +0.020 C 
ATOM     14  C   UNL     1      33.139 -19.069 -20.993  0.00  0.00    +0.001 C 
ATOM     15  C   UNL     1      35.545 -18.957 -21.179  0.00  0.00    +0.001 C 
ATOM     16  C   UNL     1      34.289 -18.402 -21.416  0.00  0.00    +0.000 C 
ENDBRANCH   8  11
ENDBRANCH   2   8
BRANCH   6  17
ATOM     17  S   UNL     1      31.511 -24.036 -13.623  0.00  0.00    +0.081 S 
ATOM     18  O   UNL     1      30.091 -23.749 -13.795  0.00  0.00    -0.151 OA
ATOM     19  O   UNL     1      31.918 -25.337 -13.101  0.00  0.00    -0.151 OA
BRANCH  17  20
ATOM     20  N   UNL     1      32.196 -22.819 -12.634  0.00  0.00    -0.202 NA
ATOM     21  H   UNL     1      33.187 -22.722 -12.851  0.00  0.00    +0.144 HD
ATOM     22  H   UNL     1      32.086 -23.077 -11.653  0.00  0.00    +0.144 HD
ENDBRANCH  17  20
ENDBRANCH   6  17
TORSDOF 4
ENDMDL
MODEL 9
REMARK VINA RESULT:      -8.1      7.081     10.503
REMARK  Name = 18794
REMARK  4 active torsions:
REMARK  status: ('A' for Active; 'I' for Inactive)
REMARK    1  A    between atoms: N_2  and  S_8
REMARK    2  A    between atoms: C_6  and  S_17
REMARK    3  A    between atoms: S_8  and  C_11
REMARK    4  A    between atoms: S_17  and  N_20
REMARK                            x       y       z     vdW  Elec       q    Type
REMARK                         _______ _______ _______ _____ _____    ______ ____
ROOT
ATOM      1  S   UNL     1      34.553 -17.346 -25.144  0.00  0.00    -0.009 S 
ATOM      2  N   UNL     1      35.418 -18.798 -22.932  0.00  0.00    -0.192 N 
ATOM      3  N   UNL     1      34.304 -16.650 -22.691  0.00  0.00    -0.123 NA
ATOM      4  N   UNL     1      33.732 -15.628 -23.429  0.00  0.00    -0.119 NA
ATOM      5  C   UNL     1      34.759 -17.588 -23.471  0.00  0.00    +0.202 A 
ATOM      6  C   UNL     1      33.796 -15.866 -24.722  0.00  0.00    +0.256 A 
ATOM      7  H   UNL     1      35.502 -19.626 -23.459  0.00  0.00    +0.176 HD
ENDROOT
BRANCH   2   8
ATOM      8  S   UNL     1      36.026 -18.671 -21.329  0.00  0.00    +0.075 S 
ATOM      9  O   UNL     1      35.570 -17.412 -20.753  0.00  0.00    -0.150 OA
ATOM     10  O   UNL     1      37.447 -18.994 -21.316  0.00  0.00    -0.150 OA
BRANCH   8  11
ATOM     11  C   UNL     1      35.179 -19.980 -20.543  0.00  0.00    +0.125 C 
ATOM     12  C   UNL     1      33.786 -20.027 -20.574  0.00  0.00    +0.020 C 
ATOM     13  C   UNL     1      35.896 -20.979 -19.885  0.00  0.00    +0.020 C 
ATOM     14  C   UNL     1      33.109 -21.072 -19.945  0.00  0.00    +0.001 C 
ATOM     15  C   UNL     1      35.219 -22.024 -19.256  0.00  0.00    +0.001 C 
ATOM     16  C   UNL     1      33.826 -22.070 -19.286  0.00  0.00    +0.000 C 
ENDBRANCH   8  11
ENDBRANCH   2   8
BRANCH   6  17
ATOM     17  S   UNL     1      33.199 -14.838 -25.986  0.00  0.00    +0.081 S 
ATOM     18  O   UNL     1      32.369 -13.796 -25.392  0.00  0.00    -0.151 OA
ATOM     19  O   UNL     1      34.311 -14.459 -26.853  0.00  0.00    -0.151 OA
BRANCH  17  20
ATOM     20  N   UNL     1      32.187 -15.916 -26.846  0.00  0.00    -0.202 NA
ATOM     21  H   UNL     1      32.731 -16.720 -27.156  0.00  0.00    +0.144 HD
ATOM     22  H   UNL     1      31.793 -15.438 -27.657  0.00  0.00    +0.144 HD
ENDBRANCH  17  20
ENDBRANCH   6  17
TORSDOF 4
ENDMDL
