MODEL 1
REMARK VINA RESULT:     -11.4      0.000      0.000
REMARK  Name = 37632
REMARK  3 active torsions:
REMARK  status: ('A' for Active; 'I' for Inactive)
REMARK    1  A    between atoms: C_7  and  C_22
REMARK    2  A    between atoms: C_11  and  C_16
REMARK    3  A    between atoms: C_22  and  N_23
REMARK                            x       y       z     vdW  Elec       q    Type
REMARK                         _______ _______ _______ _____ _____    ______ ____
ROOT
ATOM      1 CL   UNL     1      31.479 -12.027 -19.911  0.00  0.00    -0.082 Cl
ATOM      2  N   UNL     1      33.995 -15.693 -23.837  0.00  0.00    -0.281 N 
ATOM      3  N   UNL     1      33.300 -13.445 -25.781  0.00  0.00    -0.262 NA
ATOM      4  N   UNL     1      35.047 -17.415 -24.722  0.00  0.00    -0.135 NA
ATOM      5  N   UNL     1      34.404 -16.742 -25.732  0.00  0.00    -0.131 NA
ATOM      6  C   UNL     1      33.469 -14.764 -22.912  0.00  0.00    +0.068 C 
ATOM      7  C   UNL     1      34.772 -16.797 -23.596  0.00  0.00    +0.126 A 
ATOM      8  C   UNL     1      33.755 -15.732 -25.192  0.00  0.00    +0.172 A 
ATOM      9  C   UNL     1      33.076 -13.469 -23.303  0.00  0.00    +0.034 C 
ATOM     10  C   UNL     1      32.814 -14.809 -25.862  0.00  0.00    +0.191 C 
ATOM     11  C   UNL     1      33.409 -12.862 -24.635  0.00  0.00    +0.078 C 
ATOM     12  C   UNL     1      33.303 -15.170 -21.578  0.00  0.00    +0.019 C 
ATOM     13  C   UNL     1      32.442 -12.638 -22.363  0.00  0.00    +0.014 C 
ATOM     14  C   UNL     1      32.694 -14.320 -20.654  0.00  0.00    +0.013 C 
ATOM     15  C   UNL     1      32.250 -13.064 -21.048  0.00  0.00    +0.058 C 
ENDROOT
BRANCH  11  16
ATOM     16  C   UNL     1      33.943 -11.467 -24.658  0.00  0.00    +0.017 C 
ATOM     17  C   UNL     1      33.480 -10.542 -23.733  0.00  0.00    +0.001 C 
ATOM     18  C   UNL     1      34.897 -11.116 -25.605  0.00  0.00    +0.001 C 
ATOM     19  C   UNL     1      33.979  -9.240 -23.755  0.00  0.00    +0.000 C 
ATOM     20  C   UNL     1      35.397  -9.814 -25.625  0.00  0.00    +0.000 C 
ATOM     21  C   UNL     1      34.938  -8.876 -24.701  0.00  0.00    +0.000 C 
ENDBRANCH  11  16
BRANCH   7  22
ATOM     22  C   UNL     1      35.392 -17.169 -22.307  0.00  0.00    -0.010 C 
BRANCH  22  23
ATOM     23  N   UNL     1      35.390 -18.609 -22.114  0.00  0.00    +0.389 N 
ATOM     24  C   UNL     1      34.068 -19.076 -21.682  0.00  0.00    -0.100 C 
ATOM     25  C   UNL     1      36.407 -19.005 -21.135  0.00  0.00    -0.100 C 
ATOM     26  H   UNL     1      35.613 -19.044 -23.009  0.00  0.00    -0.079 HD
ENDBRANCH  22  23
ENDBRANCH   7  22
TORSDOF 3
ENDMDL
MODEL 2
REMARK VINA RESULT:     -10.1      0.513      1.094
REMARK  Name = 37632
REMARK  3 active torsions:
REMARK  status: ('A' for Active; 'I' for Inactive)
REMARK    1  A    between atoms: C_7  and  C_22
REMARK    2  A    between atoms: C_11  and  C_16
REMARK    3  A    between atoms: C_22  and  N_23
REMARK                            x       y       z     vdW  Elec       q    Type
REMARK                         _______ _______ _______ _____ _____    ______ ____
ROOT
ATOM      1 CL   UNL     1      31.427 -11.923 -20.007  0.00  0.00    -0.082 Cl
ATOM      2  N   UNL     1      33.902 -15.532 -24.012  0.00  0.00    -0.281 N 
ATOM      3  N   UNL     1      33.248 -13.228 -25.904  0.00  0.00    -0.262 NA
ATOM      4  N   UNL     1      34.930 -17.248 -24.934  0.00  0.00    -0.135 NA
ATOM      5  N   UNL     1      34.301 -16.541 -25.930  0.00  0.00    -0.131 NA
ATOM      6  C   UNL     1      33.386 -14.618 -23.067  0.00  0.00    +0.068 C 
ATOM      7  C   UNL     1      34.661 -16.653 -23.795  0.00  0.00    +0.126 A 
ATOM      8  C   UNL     1      33.666 -15.535 -25.368  0.00  0.00    +0.172 A 
ATOM      9  C   UNL     1      33.015 -13.308 -23.427  0.00  0.00    +0.034 C 
ATOM     10  C   UNL     1      32.741 -14.582 -26.019  0.00  0.00    +0.191 C 
ATOM     11  C   UNL     1      33.361 -12.674 -24.744  0.00  0.00    +0.078 C 
ATOM     12  C   UNL     1      33.210 -15.052 -21.743  0.00  0.00    +0.019 C 
ATOM     13  C   UNL     1      32.390 -12.490 -22.470  0.00  0.00    +0.014 C 
ATOM     14  C   UNL     1      32.611 -14.216 -20.801  0.00  0.00    +0.013 C 
ATOM     15  C   UNL     1      32.187 -12.944 -21.167  0.00  0.00    +0.058 C 
ENDROOT
BRANCH  11  16
ATOM     16  C   UNL     1      33.916 -11.288 -24.732  0.00  0.00    +0.017 C 
ATOM     17  C   UNL     1      34.928 -10.949 -25.620  0.00  0.00    +0.001 C 
ATOM     18  C   UNL     1      33.412 -10.357 -23.834  0.00  0.00    +0.001 C 
ATOM     19  C   UNL     1      35.447  -9.654 -25.609  0.00  0.00    +0.000 C 
ATOM     20  C   UNL     1      33.930  -9.061 -23.824  0.00  0.00    +0.000 C 
ATOM     21  C   UNL     1      34.947  -8.710 -24.711  0.00  0.00    +0.000 C 
ENDBRANCH  11  16
BRANCH   7  22
ATOM     22  C   UNL     1      35.270 -17.065 -22.513  0.00  0.00    -0.010 C 
BRANCH  22  23
ATOM     23  N   UNL     1      35.794 -18.419 -22.586  0.00  0.00    +0.389 N 
ATOM     24  C   UNL     1      35.050 -19.214 -23.569  0.00  0.00    -0.100 C 
ATOM     25  C   UNL     1      35.744 -19.068 -21.273  0.00  0.00    -0.100 C 
ATOM     26  H   UNL     1      36.768 -18.360 -22.883  0.00  0.00    -0.079 HD
ENDBRANCH  22  23
ENDBRANCH   7  22
TORSDOF 3
ENDMDL
MODEL 3
REMARK VINA RESULT:      -8.6     12.130     14.198
REMARK  Name = 37632
REMARK  3 active torsions:
REMARK  status: ('A' for Active; 'I' for Inactive)
REMARK    1  A    between atoms: C_7  and  C_22
REMARK    2  A    between atoms: C_11  and  C_16
REMARK    3  A    between atoms: C_22  and  N_23
REMARK                            x       y       z     vdW  Elec       q    Type
REMARK                         _______ _______ _______ _____ _____    ______ ____
ROOT
ATOM      1 CL   UNL     1      36.848 -20.795 -17.784  0.00  0.00    -0.082 Cl
ATOM      2  N   UNL     1      36.821 -24.892 -13.494  0.00  0.00    -0.281 N 
ATOM      3  N   UNL     1      34.186 -23.534 -12.764  0.00  0.00    -0.262 NA
ATOM      4  N   UNL     1      37.376 -26.613 -12.236  0.00  0.00    -0.135 NA
ATOM      5  N   UNL     1      36.476 -25.847 -11.538  0.00  0.00    -0.131 NA
ATOM      6  C   UNL     1      36.757 -23.962 -14.555  0.00  0.00    +0.068 C 
ATOM      7  C   UNL     1      37.595 -26.019 -13.387  0.00  0.00    +0.126 A 
ATOM      8  C   UNL     1      36.170 -24.806 -12.284  0.00  0.00    +0.172 A 
ATOM      9  C   UNL     1      35.641 -23.123 -14.741  0.00  0.00    +0.034 C 
ATOM     10  C   UNL     1      35.347 -23.638 -11.901  0.00  0.00    +0.191 C 
ATOM     11  C   UNL     1      34.333 -23.302 -14.024  0.00  0.00    +0.078 C 
ATOM     12  C   UNL     1      37.860 -23.855 -15.418  0.00  0.00    +0.019 C 
ATOM     13  C   UNL     1      35.693 -22.132 -15.736  0.00  0.00    +0.014 C 
ATOM     14  C   UNL     1      37.881 -22.881 -16.416  0.00  0.00    +0.013 C 
ATOM     15  C   UNL     1      36.808 -22.011 -16.565  0.00  0.00    +0.058 C 
ENDROOT
BRANCH  11  16
ATOM     16  C   UNL     1      33.077 -23.239 -14.829  0.00  0.00    +0.017 C 
ATOM     17  C   UNL     1      31.867 -22.999 -14.191  0.00  0.00    +0.001 C 
ATOM     18  C   UNL     1      33.136 -23.420 -16.205  0.00  0.00    +0.001 C 
ATOM     19  C   UNL     1      30.694 -22.939 -14.943  0.00  0.00    +0.000 C 
ATOM     20  C   UNL     1      31.962 -23.360 -16.956  0.00  0.00    +0.000 C 
ATOM     21  C   UNL     1      30.741 -23.120 -16.325  0.00  0.00    +0.000 C 
ENDBRANCH  11  16
BRANCH   7  22
ATOM     22  C   UNL     1      38.421 -26.620 -14.454  0.00  0.00    -0.010 C 
BRANCH  22  23
ATOM     23  N   UNL     1      39.838 -26.407 -14.212  0.00  0.00    +0.389 N 
ATOM     24  C   UNL     1      40.047 -25.273 -13.306  0.00  0.00    -0.100 C 
ATOM     25  C   UNL     1      40.554 -26.182 -15.471  0.00  0.00    -0.100 C 
ATOM     26  H   UNL     1      40.209 -27.249 -13.773  0.00  0.00    -0.079 HD
ENDBRANCH  22  23
ENDBRANCH   7  22
TORSDOF 3
ENDMDL
