MODEL 1
REMARK VINA RESULT:      -7.6      0.000      0.000
REMARK  Name = 2883
REMARK  3 active torsions:
REMARK  status: ('A' for Active; 'I' for Inactive)
REMARK    1  A    between atoms: N_2  and  C_4
REMARK    2  A    between atoms: N_2  and  C_14
REMARK    3  A    between atoms: C_3  and  C_11
REMARK                            x       y       z     vdW  Elec       q    Type
REMARK                         _______ _______ _______ _____ _____    ______ ____
ROOT
ATOM      1  O   UNL     1      35.293 -15.921 -23.209  0.00  0.00    -0.270 OA
ATOM      2  N   UNL     1      34.946 -18.179 -22.658  0.00  0.00    -0.255 N 
ATOM      3  C   UNL     1      34.893 -16.789 -22.434  0.00  0.00    +0.253 C 
ENDROOT
BRANCH   2   4
ATOM      4  C   UNL     1      34.526 -19.127 -21.641  0.00  0.00    +0.050 C 
ATOM      5  C   UNL     1      35.474 -19.703 -20.842  0.00  0.00    -0.008 C 
ATOM      6  C   UNL     1      33.185 -19.387 -21.547  0.00  0.00    +0.015 C 
ATOM      7  C   UNL     1      35.050 -20.611 -19.872  0.00  0.00    -0.003 C 
ATOM      8  C   UNL     1      36.934 -19.406 -20.963  0.00  0.00    +0.032 C 
ATOM      9  C   UNL     1      32.761 -20.294 -20.576  0.00  0.00    +0.001 C 
ATOM     10  C   UNL     1      33.693 -20.906 -19.739  0.00  0.00    -0.000 C 
ENDBRANCH   2   4
BRANCH   3  11
ATOM     11  C   UNL     1      34.308 -16.371 -21.124  0.00  0.00    +0.054 C 
ATOM     12  C   UNL     1      33.183 -15.644 -21.092  0.00  0.00    -0.021 C 
ATOM     13  C   UNL     1      32.552 -15.162 -19.826  0.00  0.00    +0.031 C 
ENDBRANCH   3  11
BRANCH   2  14
ATOM     14  C   UNL     1      35.512 -18.736 -23.899  0.00  0.00    +0.099 C 
ATOM     15  C   UNL     1      34.456 -18.874 -24.976  0.00  0.00    +0.024 C 
ENDBRANCH   2  14
TORSDOF 3
ENDMDL
MODEL 2
REMARK VINA RESULT:      -7.3      0.687      3.138
REMARK  Name = 2883
REMARK  3 active torsions:
REMARK  status: ('A' for Active; 'I' for Inactive)
REMARK    1  A    between atoms: N_2  and  C_4
REMARK    2  A    between atoms: N_2  and  C_14
REMARK    3  A    between atoms: C_3  and  C_11
REMARK                            x       y       z     vdW  Elec       q    Type
REMARK                         _______ _______ _______ _____ _____    ______ ____
ROOT
ATOM      1  O   UNL     1      35.490 -16.319 -23.524  0.00  0.00    -0.270 OA
ATOM      2  N   UNL     1      34.913 -17.522 -21.589  0.00  0.00    -0.255 N 
ATOM      3  C   UNL     1      35.267 -17.382 -22.946  0.00  0.00    +0.253 C 
ENDROOT
BRANCH   2   4
ATOM      4  C   UNL     1      34.585 -18.818 -21.022  0.00  0.00    +0.050 C 
ATOM      5  C   UNL     1      35.601 -19.632 -20.600  0.00  0.00    -0.008 C 
ATOM      6  C   UNL     1      33.258 -19.148 -20.945  0.00  0.00    +0.015 C 
ATOM      7  C   UNL     1      35.264 -20.871 -20.059  0.00  0.00    -0.003 C 
ATOM      8  C   UNL     1      37.043 -19.252 -20.694  0.00  0.00    +0.032 C 
ATOM      9  C   UNL     1      32.923 -20.388 -20.402  0.00  0.00    +0.001 C 
ATOM     10  C   UNL     1      33.926 -21.250 -19.959  0.00  0.00    -0.000 C 
ENDBRANCH   2   4
BRANCH   3  11
ATOM     11  C   UNL     1      35.355 -18.657 -23.722  0.00  0.00    +0.054 C 
ATOM     12  C   UNL     1      34.469 -18.916 -24.693  0.00  0.00    -0.021 C 
ATOM     13  C   UNL     1      34.471 -20.178 -25.491  0.00  0.00    +0.031 C 
ENDBRANCH   3  11
BRANCH   2  14
ATOM     14  C   UNL     1      34.774 -16.350 -20.708  0.00  0.00    +0.099 C 
ATOM     15  C   UNL     1      33.457 -15.637 -20.939  0.00  0.00    +0.024 C 
ENDBRANCH   2  14
TORSDOF 3
ENDMDL
MODEL 3
REMARK VINA RESULT:      -6.5      8.761     10.489
REMARK  Name = 2883
REMARK  3 active torsions:
REMARK  status: ('A' for Active; 'I' for Inactive)
REMARK    1  A    between atoms: N_2  and  C_4
REMARK    2  A    between atoms: N_2  and  C_14
REMARK    3  A    between atoms: C_3  and  C_11
REMARK                            x       y       z     vdW  Elec       q    Type
REMARK                         _______ _______ _______ _____ _____    ______ ____
ROOT
ATOM      1  O   UNL     1      31.754  -6.344 -20.584  0.00  0.00    -0.270 OA
ATOM      2  N   UNL     1      32.387  -7.441 -22.564  0.00  0.00    -0.255 N 
ATOM      3  C   UNL     1      32.188  -7.334 -21.173  0.00  0.00    +0.253 C 
ENDROOT
BRANCH   2   4
ATOM      4  C   UNL     1      32.987  -8.625 -23.154  0.00  0.00    +0.050 C 
ATOM      5  C   UNL     1      34.260  -8.545 -23.649  0.00  0.00    -0.008 C 
ATOM      6  C   UNL     1      32.227  -9.763 -23.179  0.00  0.00    +0.015 C 
ATOM      7  C   UNL     1      34.817  -9.692 -24.211  0.00  0.00    -0.003 C 
ATOM      8  C   UNL     1      35.072  -7.291 -23.612  0.00  0.00    +0.032 C 
ATOM      9  C   UNL     1      32.786 -10.911 -23.741  0.00  0.00    +0.001 C 
ATOM     10  C   UNL     1      34.081 -10.875 -24.258  0.00  0.00    -0.000 C 
ENDBRANCH   2   4
BRANCH   3  11
ATOM     11  C   UNL     1      32.561  -8.542 -20.376  0.00  0.00    +0.054 C 
ATOM     12  C   UNL     1      31.611  -9.279 -19.787  0.00  0.00    -0.021 C 
ATOM     13  C   UNL     1      31.904 -10.480 -18.949  0.00  0.00    +0.031 C 
ENDBRANCH   3  11
BRANCH   2  14
ATOM     14  C   UNL     1      32.078  -6.324 -23.472  0.00  0.00    +0.099 C 
ATOM     15  C   UNL     1      30.995  -6.698 -24.463  0.00  0.00    +0.024 C 
ENDBRANCH   2  14
TORSDOF 3
ENDMDL
MODEL 4
REMARK VINA RESULT:      -6.5      7.970     10.534
REMARK  Name = 2883
REMARK  3 active torsions:
REMARK  status: ('A' for Active; 'I' for Inactive)
REMARK    1  A    between atoms: N_2  and  C_4
REMARK    2  A    between atoms: N_2  and  C_14
REMARK    3  A    between atoms: C_3  and  C_11
REMARK                            x       y       z     vdW  Elec       q    Type
REMARK                         _______ _______ _______ _____ _____    ______ ____
ROOT
ATOM      1  O   UNL     1      32.884 -12.114 -22.955  0.00  0.00    -0.270 OA
ATOM      2  N   UNL     1      31.720 -10.105 -22.596  0.00  0.00    -0.255 N 
ATOM      3  C   UNL     1      32.755 -10.902 -23.124  0.00  0.00    +0.253 C 
ENDROOT
BRANCH   2   4
ATOM      4  C   UNL     1      31.704  -8.664 -22.782  0.00  0.00    +0.050 C 
ATOM      5  C   UNL     1      32.190  -7.864 -21.785  0.00  0.00    -0.008 C 
ATOM      6  C   UNL     1      31.193  -8.193 -23.961  0.00  0.00    +0.015 C 
ATOM      7  C   UNL     1      32.165  -6.484 -21.983  0.00  0.00    -0.003 C 
ATOM      8  C   UNL     1      32.742  -8.400 -20.504  0.00  0.00    +0.032 C 
ATOM      9  C   UNL     1      31.169  -6.812 -24.159  0.00  0.00    +0.001 C 
ATOM     10  C   UNL     1      31.655  -5.958 -23.169  0.00  0.00    -0.000 C 
ENDBRANCH   2   4
BRANCH   3  11
ATOM     11  C   UNL     1      33.773 -10.175 -23.941  0.00  0.00    +0.054 C 
ATOM     12  C   UNL     1      34.462 -10.824 -24.889  0.00  0.00    -0.021 C 
ATOM     13  C   UNL     1      35.517 -10.176 -25.726  0.00  0.00    +0.031 C 
ENDBRANCH   3  11
BRANCH   2  14
ATOM     14  C   UNL     1      30.655 -10.684 -21.759  0.00  0.00    +0.099 C 
ATOM     15  C   UNL     1      31.217 -11.291 -20.490  0.00  0.00    +0.024 C 
ENDBRANCH   2  14
TORSDOF 3
ENDMDL
MODEL 5
REMARK VINA RESULT:      -6.4      8.464     10.900
REMARK  Name = 2883
REMARK  3 active torsions:
REMARK  status: ('A' for Active; 'I' for Inactive)
REMARK    1  A    between atoms: N_2  and  C_4
REMARK    2  A    between atoms: N_2  and  C_14
REMARK    3  A    between atoms: C_3  and  C_11
REMARK                            x       y       z     vdW  Elec       q    Type
REMARK                         _______ _______ _______ _____ _____    ______ ____
ROOT
ATOM      1  O   UNL     1      32.923 -11.394 -23.281  0.00  0.00    -0.270 OA
ATOM      2  N   UNL     1      33.009  -9.065 -22.980  0.00  0.00    -0.255 N 
ATOM      3  C   UNL     1      32.521 -10.365 -22.739  0.00  0.00    +0.253 C 
ENDROOT
BRANCH   2   4
ATOM      4  C   UNL     1      32.408  -7.902 -22.351  0.00  0.00    +0.050 C 
ATOM      5  C   UNL     1      31.427  -7.222 -23.019  0.00  0.00    -0.008 C 
ATOM      6  C   UNL     1      32.871  -7.555 -21.110  0.00  0.00    +0.015 C 
ATOM      7  C   UNL     1      30.864  -6.108 -22.397  0.00  0.00    -0.003 C 
ATOM      8  C   UNL     1      30.936  -7.617 -24.374  0.00  0.00    +0.032 C 
ATOM      9  C   UNL     1      32.307  -6.441 -20.489  0.00  0.00    +0.001 C 
ATOM     10  C   UNL     1      31.303  -5.718 -21.133  0.00  0.00    -0.000 C 
ENDBRANCH   2   4
BRANCH   3  11
ATOM     11  C   UNL     1      31.412 -10.460 -21.742  0.00  0.00    +0.054 C 
ATOM     12  C   UNL     1      31.683 -10.731 -20.459  0.00  0.00    -0.021 C 
ATOM     13  C   UNL     1      30.629 -10.873 -19.409  0.00  0.00    +0.031 C 
ENDBRANCH   3  11
BRANCH   2  14
ATOM     14  C   UNL     1      34.090  -8.818 -23.949  0.00  0.00    +0.099 C 
ATOM     15  C   UNL     1      34.885  -7.580 -23.588  0.00  0.00    +0.024 C 
ENDBRANCH   2  14
TORSDOF 3
ENDMDL
MODEL 6
REMARK VINA RESULT:      -6.4      4.372      6.396
REMARK  Name = 2883
REMARK  3 active torsions:
REMARK  status: ('A' for Active; 'I' for Inactive)
REMARK    1  A    between atoms: N_2  and  C_4
REMARK    2  A    between atoms: N_2  and  C_14
REMARK    3  A    between atoms: C_3  and  C_11
REMARK                            x       y       z     vdW  Elec       q    Type
REMARK                         _______ _______ _______ _____ _____    ______ ____
ROOT
ATOM      1  O   UNL     1      32.693 -10.722 -23.109  0.00  0.00    -0.270 OA
ATOM      2  N   UNL     1      32.836 -13.066 -23.173  0.00  0.00    -0.255 N 
ATOM      3  C   UNL     1      33.169 -11.757 -23.573  0.00  0.00    +0.253 C 
ENDROOT
BRANCH   2   4
ATOM      4  C   UNL     1      33.392 -14.228 -23.844  0.00  0.00    +0.050 C 
ATOM      5  C   UNL     1      34.295 -15.009 -23.176  0.00  0.00    -0.008 C 
ATOM      6  C   UNL     1      32.970 -14.471 -25.124  0.00  0.00    +0.015 C 
ATOM      7  C   UNL     1      34.817 -16.119 -23.838  0.00  0.00    -0.003 C 
ATOM      8  C   UNL     1      34.743 -14.725 -21.779  0.00  0.00    +0.032 C 
ATOM      9  C   UNL     1      33.493 -15.582 -25.785  0.00  0.00    +0.001 C 
ATOM     10  C   UNL     1      34.416 -16.406 -25.143  0.00  0.00    -0.000 C 
ENDBRANCH   2   4
BRANCH   3  11
ATOM     11  C   UNL     1      34.182 -11.658 -24.668  0.00  0.00    +0.054 C 
ATOM     12  C   UNL     1      34.706 -10.469 -24.993  0.00  0.00    -0.021 C 
ATOM     13  C   UNL     1      35.698 -10.283 -26.094  0.00  0.00    +0.031 C 
ENDBRANCH   3  11
BRANCH   2  14
ATOM     14  C   UNL     1      31.841 -13.317 -22.115  0.00  0.00    +0.099 C 
ATOM     15  C   UNL     1      32.187 -12.571 -20.843  0.00  0.00    +0.024 C 
ENDBRANCH   2  14
TORSDOF 3
ENDMDL
MODEL 7
REMARK VINA RESULT:      -6.4      8.569     11.397
REMARK  Name = 2883
REMARK  3 active torsions:
REMARK  status: ('A' for Active; 'I' for Inactive)
REMARK    1  A    between atoms: N_2  and  C_4
REMARK    2  A    between atoms: N_2  and  C_14
REMARK    3  A    between atoms: C_3  and  C_11
REMARK                            x       y       z     vdW  Elec       q    Type
REMARK                         _______ _______ _______ _____ _____    ______ ____
ROOT
ATOM      1  O   UNL     1      34.110 -10.200 -23.764  0.00  0.00    -0.270 OA
ATOM      2  N   UNL     1      33.533  -7.982 -23.242  0.00  0.00    -0.255 N 
ATOM      3  C   UNL     1      33.306  -9.370 -23.342  0.00  0.00    +0.253 C 
ENDROOT
BRANCH   2   4
ATOM      4  C   UNL     1      32.487  -7.073 -22.809  0.00  0.00    +0.050 C 
ATOM      5  C   UNL     1      32.295  -6.875 -21.469  0.00  0.00    -0.008 C 
ATOM      6  C   UNL     1      31.748  -6.462 -23.787  0.00  0.00    +0.015 C 
ATOM      7  C   UNL     1      31.285  -5.998 -21.076  0.00  0.00    -0.003 C 
ATOM      8  C   UNL     1      33.113  -7.553 -20.419  0.00  0.00    +0.032 C 
ATOM      9  C   UNL     1      30.738  -5.585 -23.392  0.00  0.00    +0.001 C 
ATOM     10  C   UNL     1      30.507  -5.353 -22.036  0.00  0.00    -0.000 C 
ENDBRANCH   2   4
BRANCH   3  11
ATOM     11  C   UNL     1      31.956  -9.833 -22.899  0.00  0.00    +0.054 C 
ATOM     12  C   UNL     1      31.839 -10.666 -21.857  0.00  0.00    -0.021 C 
ATOM     13  C   UNL     1      30.530 -11.198 -21.374  0.00  0.00    +0.031 C 
ENDBRANCH   3  11
BRANCH   2  14
ATOM     14  C   UNL     1      34.813  -7.382 -23.656  0.00  0.00    +0.099 C 
ATOM     15  C   UNL     1      34.690  -6.685 -24.996  0.00  0.00    +0.024 C 
ENDBRANCH   2  14
TORSDOF 3
ENDMDL
MODEL 8
REMARK VINA RESULT:      -6.4      8.869     10.806
REMARK  Name = 2883
REMARK  3 active torsions:
REMARK  status: ('A' for Active; 'I' for Inactive)
REMARK    1  A    between atoms: N_2  and  C_4
REMARK    2  A    between atoms: N_2  and  C_14
REMARK    3  A    between atoms: C_3  and  C_11
REMARK                            x       y       z     vdW  Elec       q    Type
REMARK                         _______ _______ _______ _____ _____    ______ ____
ROOT
ATOM      1  O   UNL     1      33.126  -6.131 -24.401  0.00  0.00    -0.270 OA
ATOM      2  N   UNL     1      31.848  -7.343 -22.845  0.00  0.00    -0.255 N 
ATOM      3  C   UNL     1      32.985  -7.086 -23.638  0.00  0.00    +0.253 C 
ENDROOT
BRANCH   2   4
ATOM      4  C   UNL     1      31.743  -8.548 -22.041  0.00  0.00    +0.050 C 
ATOM      5  C   UNL     1      32.151  -8.509 -20.736  0.00  0.00    -0.008 C 
ATOM      6  C   UNL     1      31.235  -9.663 -22.651  0.00  0.00    +0.015 C 
ATOM      7  C   UNL     1      32.041  -9.677 -19.982  0.00  0.00    -0.003 C 
ATOM      8  C   UNL     1      32.704  -7.281 -20.089  0.00  0.00    +0.032 C 
ATOM      9  C   UNL     1      31.125 -10.830 -21.896  0.00  0.00    +0.001 C 
ATOM     10  C   UNL     1      31.528 -10.837 -20.561  0.00  0.00    -0.000 C 
ENDBRANCH   2   4
BRANCH   3  11
ATOM     11  C   UNL     1      34.086  -8.090 -23.527  0.00  0.00    +0.054 C 
ATOM     12  C   UNL     1      34.324  -8.941 -24.534  0.00  0.00    -0.021 C 
ATOM     13  C   UNL     1      35.385  -9.992 -24.487  0.00  0.00    +0.031 C 
ENDBRANCH   3  11
BRANCH   2  14
ATOM     14  C   UNL     1      30.679  -6.447 -22.865  0.00  0.00    +0.099 C 
ATOM     15  C   UNL     1      30.936  -5.184 -22.069  0.00  0.00    +0.024 C 
ENDBRANCH   2  14
TORSDOF 3
ENDMDL
MODEL 9
REMARK VINA RESULT:      -6.4      8.871     10.987
REMARK  Name = 2883
REMARK  3 active torsions:
REMARK  status: ('A' for Active; 'I' for Inactive)
REMARK    1  A    between atoms: N_2  and  C_4
REMARK    2  A    between atoms: N_2  and  C_14
REMARK    3  A    between atoms: C_3  and  C_11
REMARK                            x       y       z     vdW  Elec       q    Type
REMARK                         _______ _______ _______ _____ _____    ______ ____
ROOT
ATOM      1  O   UNL     1      30.796  -6.465 -22.460  0.00  0.00    -0.270 OA
ATOM      2  N   UNL     1      32.256  -8.302 -22.582  0.00  0.00    -0.255 N 
ATOM      3  C   UNL     1      31.595  -7.163 -23.083  0.00  0.00    +0.253 C 
ENDROOT
BRANCH   2   4
ATOM      4  C   UNL     1      33.117  -9.111 -23.427  0.00  0.00    +0.050 C 
ATOM      5  C   UNL     1      34.378  -8.662 -23.708  0.00  0.00    -0.008 C 
ATOM      6  C   UNL     1      32.602 -10.290 -23.895  0.00  0.00    +0.015 C 
ATOM      7  C   UNL     1      35.188  -9.453 -24.521  0.00  0.00    -0.003 C 
ATOM      8  C   UNL     1      34.920  -7.371 -23.187  0.00  0.00    +0.032 C 
ATOM      9  C   UNL     1      33.414 -11.081 -24.708  0.00  0.00    +0.001 C 
ATOM     10  C   UNL     1      34.707 -10.663 -25.021  0.00  0.00    -0.000 C 
ENDBRANCH   2   4
BRANCH   3  11
ATOM     11  C   UNL     1      31.906  -6.813 -24.502  0.00  0.00    +0.054 C 
ATOM     12  C   UNL     1      32.375  -5.595 -24.807  0.00  0.00    -0.021 C 
ATOM     13  C   UNL     1      32.680  -5.158 -26.202  0.00  0.00    +0.031 C 
ENDBRANCH   3  11
BRANCH   2  14
ATOM     14  C   UNL     1      32.034  -8.775 -21.205  0.00  0.00    +0.099 C 
ATOM     15  C   UNL     1      32.715  -7.876 -20.194  0.00  0.00    +0.024 C 
ENDBRANCH   2  14
TORSDOF 3
ENDMDL
