MODEL 1
REMARK VINA RESULT:      -9.7      0.000      0.000
REMARK  Name = 11196935
REMARK  0 active torsions:
REMARK  status: ('A' for Active; 'I' for Inactive)
REMARK                            x       y       z     vdW  Elec       q    Type
REMARK                         _______ _______ _______ _____ _____    ______ ____
ROOT
ATOM      1  O   UNL     1      34.256 -24.232 -12.511  0.00  0.00    -0.296 OA
ATOM      2  O   UNL     1      33.962 -19.288 -22.072  0.00  0.00    -0.291 OA
ATOM      3  C   UNL     1      35.765 -22.725 -16.866  0.00  0.00    +0.001 C 
ATOM      4  C   UNL     1      34.354 -22.233 -17.344  0.00  0.00    +0.004 C 
ATOM      5  C   UNL     1      35.733 -22.862 -15.341  0.00  0.00    +0.007 C 
ATOM      6  C   UNL     1      34.693 -23.903 -14.882  0.00  0.00    +0.052 C 
ATOM      7  C   UNL     1      34.317 -22.019 -18.904  0.00  0.00    +0.019 C 
ATOM      8  C   UNL     1      33.214 -23.129 -16.778  0.00  0.00    +0.001 C 
ATOM      9  C   UNL     1      35.462 -21.016 -19.257  0.00  0.00    +0.011 C 
ATOM     10  C   UNL     1      36.879 -21.773 -17.322  0.00  0.00    +0.000 C 
ATOM     11  C   UNL     1      33.312 -23.379 -15.261  0.00  0.00    +0.007 C 
ATOM     12  C   UNL     1      37.000 -23.244 -14.583  0.00  0.00    +0.008 C 
ATOM     13  C   UNL     1      36.842 -21.516 -18.825  0.00  0.00    +0.001 C 
ATOM     14  C   UNL     1      35.032 -23.916 -13.402  0.00  0.00    +0.150 C 
ATOM     15  C   UNL     1      36.478 -23.514 -13.164  0.00  0.00    +0.064 C 
ATOM     16  C   UNL     1      34.906 -25.340 -15.392  0.00  0.00    +0.007 C 
ATOM     17  C   UNL     1      34.452 -23.362 -19.661  0.00  0.00    +0.004 C 
ATOM     18  C   UNL     1      35.449 -20.606 -20.731  0.00  0.00    +0.069 C 
ATOM     19  C   UNL     1      33.008 -21.394 -19.373  0.00  0.00    -0.024 C 
ATOM     20  C   UNL     1      34.095 -20.054 -21.119  0.00  0.00    +0.173 C 
ATOM     21  C   UNL     1      32.899 -20.496 -20.361  0.00  0.00    +0.033 C 
ENDROOT
TORSDOF 0
ENDMDL
MODEL 2
REMARK VINA RESULT:      -9.3      3.618      6.060
REMARK  Name = 11196935
REMARK  0 active torsions:
REMARK  status: ('A' for Active; 'I' for Inactive)
REMARK                            x       y       z     vdW  Elec       q    Type
REMARK                         _______ _______ _______ _____ _____    ______ ____
ROOT
ATOM      1  O   UNL     1      29.072 -24.686 -14.729  0.00  0.00    -0.296 OA
ATOM      2  O   UNL     1      39.818 -25.379 -14.746  0.00  0.00    -0.291 OA
ATOM      3  C   UNL     1      33.686 -23.330 -15.355  0.00  0.00    +0.001 C 
ATOM      4  C   UNL     1      34.299 -24.544 -14.573  0.00  0.00    +0.004 C 
ATOM      5  C   UNL     1      32.244 -23.681 -15.731  0.00  0.00    +0.007 C 
ATOM      6  C   UNL     1      31.371 -23.926 -14.484  0.00  0.00    +0.052 C 
ATOM      7  C   UNL     1      35.805 -24.282 -14.190  0.00  0.00    +0.019 C 
ATOM      8  C   UNL     1      33.388 -24.981 -13.389  0.00  0.00    +0.001 C 
ATOM      9  C   UNL     1      36.567 -23.965 -15.517  0.00  0.00    +0.011 C 
ATOM     10  C   UNL     1      34.520 -22.976 -16.594  0.00  0.00    +0.000 C 
ATOM     11  C   UNL     1      31.909 -25.165 -13.776  0.00  0.00    +0.007 C 
ATOM     12  C   UNL     1      31.420 -22.718 -16.578  0.00  0.00    +0.008 C 
ATOM     13  C   UNL     1      35.992 -22.756 -16.257  0.00  0.00    +0.001 C 
ATOM     14  C   UNL     1      30.029 -24.069 -15.179  0.00  0.00    +0.150 C 
ATOM     15  C   UNL     1      30.008 -23.319 -16.500  0.00  0.00    +0.064 C 
ATOM     16  C   UNL     1      31.236 -22.740 -13.511  0.00  0.00    +0.007 C 
ATOM     17  C   UNL     1      35.931 -23.144 -13.149  0.00  0.00    +0.004 C 
ATOM     18  C   UNL     1      38.077 -23.830 -15.308  0.00  0.00    +0.069 C 
ATOM     19  C   UNL     1      36.467 -25.506 -13.569  0.00  0.00    -0.024 C 
ATOM     20  C   UNL     1      38.635 -25.064 -14.634  0.00  0.00    +0.173 C 
ATOM     21  C   UNL     1      37.738 -25.875 -13.774  0.00  0.00    +0.033 C 
ENDROOT
TORSDOF 0
ENDMDL
MODEL 3
REMARK VINA RESULT:      -8.1      3.175      4.824
REMARK  Name = 11196935
REMARK  0 active torsions:
REMARK  status: ('A' for Active; 'I' for Inactive)
REMARK                            x       y       z     vdW  Elec       q    Type
REMARK                         _______ _______ _______ _____ _____    ______ ____
ROOT
ATOM      1  O   UNL     1      37.944 -23.540 -12.969  0.00  0.00    -0.296 OA
ATOM      2  O   UNL     1      27.668 -22.162 -15.875  0.00  0.00    -0.291 OA
ATOM      3  C   UNL     1      34.017 -23.523 -15.814  0.00  0.00    +0.001 C 
ATOM      4  C   UNL     1      32.995 -23.300 -14.646  0.00  0.00    +0.004 C 
ATOM      5  C   UNL     1      35.411 -23.135 -15.312  0.00  0.00    +0.007 C 
ATOM      6  C   UNL     1      35.856 -24.013 -14.125  0.00  0.00    +0.052 C 
ATOM      7  C   UNL     1      31.522 -23.631 -15.097  0.00  0.00    +0.019 C 
ATOM      8  C   UNL     1      33.456 -24.011 -13.339  0.00  0.00    +0.001 C 
ATOM      9  C   UNL     1      31.216 -22.747 -16.349  0.00  0.00    +0.011 C 
ATOM     10  C   UNL     1      33.627 -22.724 -17.066  0.00  0.00    +0.000 C 
ATOM     11  C   UNL     1      34.919 -23.724 -12.957  0.00  0.00    +0.007 C 
ATOM     12  C   UNL     1      36.601 -23.167 -16.265  0.00  0.00    +0.008 C 
ATOM     13  C   UNL     1      32.191 -22.995 -17.502  0.00  0.00    +0.001 C 
ATOM     14  C   UNL     1      37.280 -23.503 -13.997  0.00  0.00    +0.150 C 
ATOM     15  C   UNL     1      37.797 -22.967 -15.322  0.00  0.00    +0.064 C 
ATOM     16  C   UNL     1      35.955 -25.524 -14.404  0.00  0.00    +0.007 C 
ATOM     17  C   UNL     1      31.346 -25.141 -15.382  0.00  0.00    +0.004 C 
ATOM     18  C   UNL     1      29.762 -22.864 -16.809  0.00  0.00    +0.069 C 
ATOM     19  C   UNL     1      30.494 -23.275 -14.030  0.00  0.00    -0.024 C 
ATOM     20  C   UNL     1      28.816 -22.550 -15.670  0.00  0.00    +0.173 C 
ATOM     21  C   UNL     1      29.277 -22.773 -14.277  0.00  0.00    +0.033 C 
ENDROOT
TORSDOF 0
ENDMDL
MODEL 4
REMARK VINA RESULT:      -7.7     15.663     19.945
REMARK  Name = 11196935
REMARK  0 active torsions:
REMARK  status: ('A' for Active; 'I' for Inactive)
REMARK                            x       y       z     vdW  Elec       q    Type
REMARK                         _______ _______ _______ _____ _____    ______ ____
ROOT
ATOM      1  O   UNL     1      35.136  -3.066 -28.907  0.00  0.00    -0.296 OA
ATOM      2  O   UNL     1      32.205  -7.784 -19.682  0.00  0.00    -0.291 OA
ATOM      3  C   UNL     1      32.271  -4.418 -25.235  0.00  0.00    +0.001 C 
ATOM      4  C   UNL     1      33.275  -5.474 -24.652  0.00  0.00    +0.004 C 
ATOM      5  C   UNL     1      33.049  -3.477 -26.159  0.00  0.00    +0.007 C 
ATOM      6  C   UNL     1      33.678  -4.233 -27.347  0.00  0.00    +0.052 C 
ATOM      7  C   UNL     1      32.560  -6.455 -23.647  0.00  0.00    +0.019 C 
ATOM      8  C   UNL     1      34.091  -6.170 -25.780  0.00  0.00    +0.001 C 
ATOM      9  C   UNL     1      31.894  -5.574 -22.541  0.00  0.00    +0.011 C 
ATOM     10  C   UNL     1      31.554  -3.645 -24.119  0.00  0.00    +0.000 C 
ATOM     11  C   UNL     1      34.723  -5.192 -26.787  0.00  0.00    +0.007 C 
ATOM     12  C   UNL     1      32.346  -2.289 -26.805  0.00  0.00    +0.008 C 
ATOM     13  C   UNL     1      30.886  -4.572 -23.109  0.00  0.00    +0.001 C 
ATOM     14  C   UNL     1      34.199  -3.035 -28.120  0.00  0.00    +0.150 C 
ATOM     15  C   UNL     1      33.387  -1.787 -27.817  0.00  0.00    +0.064 C 
ATOM     16  C   UNL     1      32.693  -4.961 -28.280  0.00  0.00    +0.007 C 
ATOM     17  C   UNL     1      31.540  -7.362 -24.376  0.00  0.00    +0.004 C 
ATOM     18  C   UNL     1      31.282  -6.410 -21.416  0.00  0.00    +0.069 C 
ATOM     19  C   UNL     1      33.542  -7.389 -22.951  0.00  0.00    -0.024 C 
ATOM     20  C   UNL     1      32.313  -7.347 -20.826  0.00  0.00    +0.173 C 
ATOM     21  C   UNL     1      33.448  -7.786 -21.675  0.00  0.00    +0.033 C 
ENDROOT
TORSDOF 0
ENDMDL
MODEL 5
REMARK VINA RESULT:      -7.6     15.030     19.257
REMARK  Name = 11196935
REMARK  0 active torsions:
REMARK  status: ('A' for Active; 'I' for Inactive)
REMARK                            x       y       z     vdW  Elec       q    Type
REMARK                         _______ _______ _______ _____ _____    ______ ____
ROOT
ATOM      1  O   UNL     1      30.826  -1.786 -27.500  0.00  0.00    -0.296 OA
ATOM      2  O   UNL     1      32.343 -11.097 -22.309  0.00  0.00    -0.291 OA
ATOM      3  C   UNL     1      33.170  -5.304 -25.125  0.00  0.00    +0.001 C 
ATOM      4  C   UNL     1      31.872  -6.057 -24.667  0.00  0.00    +0.004 C 
ATOM      5  C   UNL     1      32.800  -4.372 -26.282  0.00  0.00    +0.007 C 
ATOM      6  C   UNL     1      31.768  -3.310 -25.854  0.00  0.00    +0.052 C 
ATOM      7  C   UNL     1      32.177  -7.077 -23.506  0.00  0.00    +0.019 C 
ATOM      8  C   UNL     1      30.707  -5.065 -24.379  0.00  0.00    +0.001 C 
ATOM      9  C   UNL     1      33.290  -8.045 -24.025  0.00  0.00    +0.011 C 
ATOM     10  C   UNL     1      34.281  -6.286 -25.526  0.00  0.00    +0.000 C 
ATOM     11  C   UNL     1      30.475  -4.036 -25.501  0.00  0.00    +0.007 C 
ATOM     12  C   UNL     1      33.886  -3.571 -26.993  0.00  0.00    +0.008 C 
ATOM     13  C   UNL     1      34.569  -7.311 -24.434  0.00  0.00    +0.001 C 
ATOM     14  C   UNL     1      31.759  -2.485 -27.128  0.00  0.00    +0.150 C 
ATOM     15  C   UNL     1      33.075  -2.611 -27.878  0.00  0.00    +0.064 C 
ATOM     16  C   UNL     1      32.206  -2.362 -24.722  0.00  0.00    +0.007 C 
ATOM     17  C   UNL     1      32.589  -6.345 -22.206  0.00  0.00    +0.004 C 
ATOM     18  C   UNL     1      33.583  -9.182 -23.044  0.00  0.00    +0.069 C 
ATOM     19  C   UNL     1      30.966  -7.931 -23.150  0.00  0.00    -0.024 C 
ATOM     20  C   UNL     1      32.314  -9.934 -22.705  0.00  0.00    +0.173 C 
ATOM     21  C   UNL     1      31.015  -9.224 -22.802  0.00  0.00    +0.033 C 
ENDROOT
TORSDOF 0
ENDMDL
MODEL 6
REMARK VINA RESULT:      -7.6      3.391      6.367
REMARK  Name = 11196935
REMARK  0 active torsions:
REMARK  status: ('A' for Active; 'I' for Inactive)
REMARK                            x       y       z     vdW  Elec       q    Type
REMARK                         _______ _______ _______ _____ _____    ______ ____
ROOT
ATOM      1  O   UNL     1      29.879 -22.200 -17.036  0.00  0.00    -0.296 OA
ATOM      2  O   UNL     1      39.701 -24.417 -13.218  0.00  0.00    -0.291 OA
ATOM      3  C   UNL     1      33.282 -24.102 -14.151  0.00  0.00    +0.001 C 
ATOM      4  C   UNL     1      34.484 -23.747 -15.094  0.00  0.00    +0.004 C 
ATOM      5  C   UNL     1      32.082 -23.242 -14.560  0.00  0.00    +0.007 C 
ATOM      6  C   UNL     1      31.642 -23.528 -16.009  0.00  0.00    +0.052 C 
ATOM      7  C   UNL     1      35.779 -24.556 -14.708  0.00  0.00    +0.019 C 
ATOM      8  C   UNL     1      34.079 -23.836 -16.595  0.00  0.00    +0.001 C 
ATOM      9  C   UNL     1      36.077 -24.254 -13.203  0.00  0.00    +0.011 C 
ATOM     10  C   UNL     1      33.644 -23.897 -12.673  0.00  0.00    +0.000 C 
ATOM     11  C   UNL     1      32.774 -23.092 -16.933  0.00  0.00    +0.007 C 
ATOM     12  C   UNL     1      30.787 -23.309 -13.757  0.00  0.00    +0.008 C 
ATOM     13  C   UNL     1      34.918 -24.639 -12.281  0.00  0.00    +0.001 C 
ATOM     14  C   UNL     1      30.384 -22.678 -16.028  0.00  0.00    +0.150 C 
ATOM     15  C   UNL     1      29.804 -22.518 -14.632  0.00  0.00    +0.064 C 
ATOM     16  C   UNL     1      31.199 -24.972 -16.308  0.00  0.00    +0.007 C 
ATOM     17  C   UNL     1      35.601 -26.069 -14.983  0.00  0.00    +0.004 C 
ATOM     18  C   UNL     1      37.397 -24.868 -12.732  0.00  0.00    +0.069 C 
ATOM     19  C   UNL     1      36.999 -24.117 -15.507  0.00  0.00    -0.024 C 
ATOM     20  C   UNL     1      38.539 -24.422 -13.619  0.00  0.00    +0.173 C 
ATOM     21  C   UNL     1      38.245 -24.038 -15.022  0.00  0.00    +0.033 C 
ENDROOT
TORSDOF 0
ENDMDL
MODEL 7
REMARK VINA RESULT:      -7.5      9.503     13.735
REMARK  Name = 11196935
REMARK  0 active torsions:
REMARK  status: ('A' for Active; 'I' for Inactive)
REMARK                            x       y       z     vdW  Elec       q    Type
REMARK                         _______ _______ _______ _____ _____    ______ ____
ROOT
ATOM      1  O   UNL     1      33.645  -6.299 -23.650  0.00  0.00    -0.296 OA
ATOM      2  O   UNL     1      34.004 -16.853 -21.545  0.00  0.00    -0.291 OA
ATOM      3  C   UNL     1      32.189 -10.638 -22.047  0.00  0.00    +0.001 C 
ATOM      4  C   UNL     1      33.331 -11.444 -22.760  0.00  0.00    +0.004 C 
ATOM      5  C   UNL     1      32.609  -9.167 -21.985  0.00  0.00    +0.007 C 
ATOM      6  C   UNL     1      32.800  -8.566 -23.392  0.00  0.00    +0.052 C 
ATOM      7  C   UNL     1      32.999 -12.983 -22.822  0.00  0.00    +0.019 C 
ATOM      8  C   UNL     1      33.719 -10.802 -24.124  0.00  0.00    +0.001 C 
ATOM      9  C   UNL     1      32.744 -13.457 -21.354  0.00  0.00    +0.011 C 
ATOM     10  C   UNL     1      31.890 -11.198 -20.650  0.00  0.00    +0.000 C 
ATOM     11  C   UNL     1      33.973  -9.285 -24.048  0.00  0.00    +0.007 C 
ATOM     12  C   UNL     1      31.727  -8.152 -21.264  0.00  0.00    +0.008 C 
ATOM     13  C   UNL     1      31.603 -12.696 -20.675  0.00  0.00    +0.001 C 
ATOM     14  C   UNL     1      33.029  -7.121 -22.985  0.00  0.00    +0.150 C 
ATOM     15  C   UNL     1      32.365  -6.810 -21.654  0.00  0.00    +0.064 C 
ATOM     16  C   UNL     1      31.558  -8.573 -24.303  0.00  0.00    +0.007 C 
ATOM     17  C   UNL     1      31.793 -13.261 -23.751  0.00  0.00    +0.004 C 
ATOM     18  C   UNL     1      32.549 -14.971 -21.252  0.00  0.00    +0.069 C 
ATOM     19  C   UNL     1      34.159 -13.806 -23.368  0.00  0.00    -0.024 C 
ATOM     20  C   UNL     1      33.719 -15.702 -21.872  0.00  0.00    +0.173 C 
ATOM     21  C   UNL     1      34.501 -15.027 -22.936  0.00  0.00    +0.033 C 
ENDROOT
TORSDOF 0
ENDMDL
MODEL 8
REMARK VINA RESULT:      -7.4      6.121      9.463
REMARK  Name = 11196935
REMARK  0 active torsions:
REMARK  status: ('A' for Active; 'I' for Inactive)
REMARK                            x       y       z     vdW  Elec       q    Type
REMARK                         _______ _______ _______ _____ _____    ______ ____
ROOT
ATOM      1  O   UNL     1      36.072 -19.413 -20.218  0.00  0.00    -0.296 OA
ATOM      2  O   UNL     1      33.837 -10.539 -25.893  0.00  0.00    -0.291 OA
ATOM      3  C   UNL     1      34.118 -16.639 -23.681  0.00  0.00    +0.001 C 
ATOM      4  C   UNL     1      34.513 -15.276 -23.013  0.00  0.00    +0.004 C 
ATOM      5  C   UNL     1      34.977 -17.744 -23.061  0.00  0.00    +0.007 C 
ATOM      6  C   UNL     1      34.732 -17.876 -21.545  0.00  0.00    +0.052 C 
ATOM      7  C   UNL     1      33.704 -14.074 -23.632  0.00  0.00    +0.019 C 
ATOM      8  C   UNL     1      34.465 -15.366 -21.459  0.00  0.00    +0.001 C 
ATOM      9  C   UNL     1      33.964 -14.093 -25.174  0.00  0.00    +0.011 C 
ATOM     10  C   UNL     1      34.282 -16.588 -25.207  0.00  0.00    +0.000 C 
ATOM     11  C   UNL     1      35.205 -16.587 -20.883  0.00  0.00    +0.007 C 
ATOM     12  C   UNL     1      34.874 -19.173 -23.581  0.00  0.00    +0.008 C 
ATOM     13  C   UNL     1      33.541 -15.409 -25.830  0.00  0.00    +0.001 C 
ATOM     14  C   UNL     1      35.570 -19.117 -21.293  0.00  0.00    +0.150 C 
ATOM     15  C   UNL     1      35.682 -19.971 -22.546  0.00  0.00    +0.064 C 
ATOM     16  C   UNL     1      33.293 -18.227 -21.123  0.00  0.00    +0.007 C 
ATOM     17  C   UNL     1      32.199 -14.168 -23.285  0.00  0.00    +0.004 C 
ATOM     18  C   UNL     1      33.350 -12.887 -25.887  0.00  0.00    +0.069 C 
ATOM     19  C   UNL     1      34.179 -12.724 -23.110  0.00  0.00    -0.024 C 
ATOM     20  C   UNL     1      33.832 -11.595 -25.263  0.00  0.00    +0.173 C 
ATOM     21  C   UNL     1      34.255 -11.603 -23.841  0.00  0.00    +0.033 C 
ENDROOT
TORSDOF 0
ENDMDL
MODEL 9
REMARK VINA RESULT:      -7.4      0.927      6.624
REMARK  Name = 11196935
REMARK  0 active torsions:
REMARK  status: ('A' for Active; 'I' for Inactive)
REMARK                            x       y       z     vdW  Elec       q    Type
REMARK                         _______ _______ _______ _____ _____    ______ ____
ROOT
ATOM      1  O   UNL     1      35.657 -19.832 -20.931  0.00  0.00    -0.296 OA
ATOM      2  O   UNL     1      35.071 -24.390 -11.192  0.00  0.00    -0.291 OA
ATOM      3  C   UNL     1      34.081 -22.759 -17.400  0.00  0.00    +0.001 C 
ATOM      4  C   UNL     1      35.289 -22.485 -16.437  0.00  0.00    +0.004 C 
ATOM      5  C   UNL     1      34.038 -21.640 -18.444  0.00  0.00    +0.007 C 
ATOM      6  C   UNL     1      35.321 -21.606 -19.299  0.00  0.00    +0.052 C 
ATOM      7  C   UNL     1      35.376 -23.570 -15.298  0.00  0.00    +0.019 C 
ATOM      8  C   UNL     1      36.611 -22.260 -17.229  0.00  0.00    +0.001 C 
ATOM      9  C   UNL     1      33.998 -23.570 -14.559  0.00  0.00    +0.011 C 
ATOM     10  C   UNL     1      32.757 -22.860 -16.629  0.00  0.00    +0.000 C 
ATOM     11  C   UNL     1      36.482 -21.245 -18.380  0.00  0.00    +0.007 C 
ATOM     12  C   UNL     1      32.908 -21.595 -19.467  0.00  0.00    +0.008 C 
ATOM     13  C   UNL     1      32.825 -23.876 -15.493  0.00  0.00    +0.001 C 
ATOM     14  C   UNL     1      34.891 -20.548 -20.299  0.00  0.00    +0.150 C 
ATOM     15  C   UNL     1      33.378 -20.507 -20.445  0.00  0.00    +0.064 C 
ATOM     16  C   UNL     1      35.623 -22.879 -20.111  0.00  0.00    +0.007 C 
ATOM     17  C   UNL     1      35.740 -24.961 -15.870  0.00  0.00    +0.004 C 
ATOM     18  C   UNL     1      33.991 -24.482 -13.331  0.00  0.00    +0.069 C 
ATOM     19  C   UNL     1      36.444 -23.241 -14.262  0.00  0.00    -0.024 C 
ATOM     20  C   UNL     1      35.120 -24.119 -12.390  0.00  0.00    +0.173 C 
ATOM     21  C   UNL     1      36.332 -23.470 -12.947  0.00  0.00    +0.033 C 
ENDROOT
TORSDOF 0
ENDMDL
