MODEL 1
REMARK VINA RESULT:      -8.4      0.000      0.000
REMARK  Name = 64988
REMARK  7 active torsions:
REMARK  status: ('A' for Active; 'I' for Inactive)
REMARK    1  A    between atoms: N_1  and  C_16
REMARK    2  A    between atoms: C_16  and  C_17
REMARK    3  A    between atoms: C_17  and  O_18
REMARK    4  A    between atoms: O_18  and  C_19
REMARK    5  A    between atoms: C_19  and  P_20
REMARK    6  A    between atoms: P_20  and  O_22
REMARK    7  A    between atoms: P_20  and  O_24
REMARK                            x       y       z     vdW  Elec       q    Type
REMARK                         _______ _______ _______ _____ _____    ______ ____
ROOT
ATOM      1  N   UNL     1      35.395 -24.492 -14.523  0.00  0.00    -0.258 N 
ATOM      2  N   UNL     1      33.642 -24.078 -13.238  0.00  0.00    -0.240 NA
ATOM      3  N   UNL     1      34.529 -23.809 -16.684  0.00  0.00    -0.311 NA
ATOM      4  N   UNL     1      32.232 -23.010 -16.486  0.00  0.00    -0.312 NA
ATOM      5  N   UNL     1      33.337 -23.055 -18.551  0.00  0.00    -0.283 N 
ATOM      6  C   UNL     1      34.446 -24.005 -15.360  0.00  0.00    +0.220 C 
ATOM      7  C   UNL     1      33.358 -23.751 -14.540  0.00  0.00    +0.167 C 
ATOM      8  C   UNL     1      34.882 -24.523 -13.265  0.00  0.00    +0.222 C 
ATOM      9  C   UNL     1      32.219 -23.233 -15.150  0.00  0.00    +0.212 C 
ATOM     10  C   UNL     1      33.368 -23.307 -17.160  0.00  0.00    +0.199 C 
ATOM     11  H   UNL     1      34.128 -23.247 -19.104  0.00  0.00    +0.156 HD
ATOM     12  H   UNL     1      32.523 -22.687 -18.966  0.00  0.00    +0.156 HD
ATOM     13  N   UNL     1      31.069 -22.945 -14.395  0.00  0.00    -0.331 N 
ATOM     14  H   UNL     1      30.269 -22.579 -14.838  0.00  0.00    +0.145 HD
ATOM     15  H   UNL     1      31.063 -23.109 -13.425  0.00  0.00    +0.145 HD
ENDROOT
BRANCH   1  16
ATOM     16  C   UNL     1      36.741 -24.917 -14.900  0.00  0.00    +0.127 C 
BRANCH  16  17
ATOM     17  C   UNL     1      36.853 -26.427 -15.058  0.00  0.00    +0.164 C 
BRANCH  17  18
ATOM     18  O   UNL     1      38.152 -26.854 -14.668  0.00  0.00    -0.340 OA
BRANCH  18  19
ATOM     19  C   UNL     1      38.835 -25.846 -13.935  0.00  0.00    +0.258 C 
BRANCH  19  20
ATOM     20  P   UNL     1      40.507 -25.892 -14.546  0.00  0.00    +0.367 P 
ATOM     21  O   UNL     1      41.343 -27.014 -14.008  0.00  0.00    -0.256 OA
BRANCH  20  22
ATOM     22  O   UNL     1      41.066 -24.407 -14.237  0.00  0.00    -0.322 OA
ATOM     23  H   UNL     1      41.959 -24.469 -13.864  0.00  0.00    +0.220 HD
ENDBRANCH  20  22
BRANCH  20  24
ATOM     24  O   UNL     1      40.312 -25.890 -16.150  0.00  0.00    -0.322 OA
ATOM     25  H   UNL     1      40.828 -26.613 -16.539  0.00  0.00    +0.220 HD
ENDBRANCH  20  24
ENDBRANCH  19  20
ENDBRANCH  18  19
ENDBRANCH  17  18
ENDBRANCH  16  17
ENDBRANCH   1  16
TORSDOF 7
ENDMDL
MODEL 2
REMARK VINA RESULT:      -8.0      3.029      4.428
REMARK  Name = 64988
REMARK  7 active torsions:
REMARK  status: ('A' for Active; 'I' for Inactive)
REMARK    1  A    between atoms: N_1  and  C_16
REMARK    2  A    between atoms: C_16  and  C_17
REMARK    3  A    between atoms: C_17  and  O_18
REMARK    4  A    between atoms: O_18  and  C_19
REMARK    5  A    between atoms: C_19  and  P_20
REMARK    6  A    between atoms: P_20  and  O_22
REMARK    7  A    between atoms: P_20  and  O_24
REMARK                            x       y       z     vdW  Elec       q    Type
REMARK                         _______ _______ _______ _____ _____    ______ ____
ROOT
ATOM      1  N   UNL     1      33.702 -23.647 -16.197  0.00  0.00    -0.258 N 
ATOM      2  N   UNL     1      32.264 -22.733 -17.607  0.00  0.00    -0.240 NA
ATOM      3  N   UNL     1      32.201 -24.340 -14.422  0.00  0.00    -0.311 NA
ATOM      4  N   UNL     1      29.893 -23.753 -14.958  0.00  0.00    -0.312 NA
ATOM      5  N   UNL     1      30.445 -24.844 -12.959  0.00  0.00    -0.283 N 
ATOM      6  C   UNL     1      32.490 -23.780 -15.606  0.00  0.00    +0.220 C 
ATOM      7  C   UNL     1      31.602 -23.204 -16.501  0.00  0.00    +0.167 C 
ATOM      8  C   UNL     1      33.531 -23.017 -17.389  0.00  0.00    +0.222 C 
ATOM      9  C   UNL     1      30.258 -23.203 -16.141  0.00  0.00    +0.212 C 
ATOM     10  C   UNL     1      30.872 -24.279 -14.183  0.00  0.00    +0.199 C 
ATOM     11  H   UNL     1      31.103 -25.245 -12.346  0.00  0.00    +0.156 HD
ATOM     12  H   UNL     1      29.490 -24.836 -12.721  0.00  0.00    +0.156 HD
ATOM     13  N   UNL     1      29.288 -22.641 -16.989  0.00  0.00    -0.331 N 
ATOM     14  H   UNL     1      28.340 -22.646 -16.723  0.00  0.00    +0.145 HD
ATOM     15  H   UNL     1      29.556 -22.242 -17.847  0.00  0.00    +0.145 HD
ENDROOT
BRANCH   1  16
ATOM     16  C   UNL     1      34.981 -24.096 -15.652  0.00  0.00    +0.127 C 
BRANCH  16  17
ATOM     17  C   UNL     1      35.567 -23.112 -14.648  0.00  0.00    +0.164 C 
BRANCH  17  18
ATOM     18  O   UNL     1      36.439 -23.797 -13.759  0.00  0.00    -0.340 OA
BRANCH  18  19
ATOM     19  C   UNL     1      36.328 -23.298 -12.432  0.00  0.00    +0.258 C 
BRANCH  19  20
ATOM     20  P   UNL     1      35.625 -24.640 -11.498  0.00  0.00    +0.367 P 
ATOM     21  O   UNL     1      35.527 -24.397 -10.022  0.00  0.00    -0.256 OA
BRANCH  20  22
ATOM     22  O   UNL     1      36.521 -25.915 -11.928  0.00  0.00    -0.322 OA
ATOM     23  H   UNL     1      37.461 -25.703 -11.812  0.00  0.00    +0.220 HD
ENDBRANCH  20  22
BRANCH  20  24
ATOM     24  O   UNL     1      34.216 -24.909 -12.243  0.00  0.00    -0.322 OA
ATOM     25  H   UNL     1      34.043 -25.863 -12.272  0.00  0.00    +0.220 HD
ENDBRANCH  20  24
ENDBRANCH  19  20
ENDBRANCH  18  19
ENDBRANCH  17  18
ENDBRANCH  16  17
ENDBRANCH   1  16
TORSDOF 7
ENDMDL
MODEL 3
REMARK VINA RESULT:      -8.0      6.124      7.342
REMARK  Name = 64988
REMARK  7 active torsions:
REMARK  status: ('A' for Active; 'I' for Inactive)
REMARK    1  A    between atoms: N_1  and  C_16
REMARK    2  A    between atoms: C_16  and  C_17
REMARK    3  A    between atoms: C_17  and  O_18
REMARK    4  A    between atoms: O_18  and  C_19
REMARK    5  A    between atoms: C_19  and  P_20
REMARK    6  A    between atoms: P_20  and  O_22
REMARK    7  A    between atoms: P_20  and  O_24
REMARK                            x       y       z     vdW  Elec       q    Type
REMARK                         _______ _______ _______ _____ _____    ______ ____
ROOT
ATOM      1  N   UNL     1      32.411 -23.964 -14.214  0.00  0.00    -0.258 N 
ATOM      2  N   UNL     1      34.578 -23.987 -13.769  0.00  0.00    -0.240 NA
ATOM      3  N   UNL     1      32.443 -23.246 -16.531  0.00  0.00    -0.311 NA
ATOM      4  N   UNL     1      34.733 -22.891 -17.298  0.00  0.00    -0.312 NA
ATOM      5  N   UNL     1      32.901 -22.550 -18.718  0.00  0.00    -0.283 N 
ATOM      6  C   UNL     1      33.015 -23.577 -15.364  0.00  0.00    +0.220 C 
ATOM      7  C   UNL     1      34.369 -23.598 -15.068  0.00  0.00    +0.167 C 
ATOM      8  C   UNL     1      33.372 -24.199 -13.283  0.00  0.00    +0.222 C 
ATOM      9  C   UNL     1      35.241 -23.238 -16.091  0.00  0.00    +0.212 C 
ATOM     10  C   UNL     1      33.386 -22.916 -17.441  0.00  0.00    +0.199 C 
ATOM     11  H   UNL     1      31.932 -22.546 -18.894  0.00  0.00    +0.156 HD
ATOM     12  H   UNL     1      33.532 -22.300 -19.430  0.00  0.00    +0.156 HD
ATOM     13  N   UNL     1      36.631 -23.232 -15.881  0.00  0.00    -0.331 N 
ATOM     14  H   UNL     1      37.238 -22.975 -16.613  0.00  0.00    +0.145 HD
ATOM     15  H   UNL     1      36.997 -23.483 -15.003  0.00  0.00    +0.145 HD
ENDROOT
BRANCH   1  16
ATOM     16  C   UNL     1      30.972 -24.102 -14.000  0.00  0.00    +0.127 C 
BRANCH  16  17
ATOM     17  C   UNL     1      30.402 -25.353 -14.655  0.00  0.00    +0.164 C 
BRANCH  17  18
ATOM     18  O   UNL     1      29.227 -25.020 -15.382  0.00  0.00    -0.340 OA
BRANCH  18  19
ATOM     19  C   UNL     1      28.801 -23.692 -15.106  0.00  0.00    +0.258 C 
BRANCH  19  20
ATOM     20  P   UNL     1      28.432 -22.991 -16.701  0.00  0.00    +0.367 P 
ATOM     21  O   UNL     1      27.753 -23.925 -17.657  0.00  0.00    -0.256 OA
BRANCH  20  22
ATOM     22  O   UNL     1      29.856 -22.410 -17.200  0.00  0.00    -0.322 OA
ATOM     23  H   UNL     1      29.842 -21.441 -17.159  0.00  0.00    +0.220 HD
ENDBRANCH  20  22
BRANCH  20  24
ATOM     24  O   UNL     1      27.596 -21.658 -16.333  0.00  0.00    -0.322 OA
ATOM     25  H   UNL     1      27.866 -21.339 -15.457  0.00  0.00    +0.220 HD
ENDBRANCH  20  24
ENDBRANCH  19  20
ENDBRANCH  18  19
ENDBRANCH  17  18
ENDBRANCH  16  17
ENDBRANCH   1  16
TORSDOF 7
ENDMDL
MODEL 4
REMARK VINA RESULT:      -8.0      1.515      2.803
REMARK  Name = 64988
REMARK  7 active torsions:
REMARK  status: ('A' for Active; 'I' for Inactive)
REMARK    1  A    between atoms: N_1  and  C_16
REMARK    2  A    between atoms: C_16  and  C_17
REMARK    3  A    between atoms: C_17  and  O_18
REMARK    4  A    between atoms: O_18  and  C_19
REMARK    5  A    between atoms: C_19  and  P_20
REMARK    6  A    between atoms: P_20  and  O_22
REMARK    7  A    between atoms: P_20  and  O_24
REMARK                            x       y       z     vdW  Elec       q    Type
REMARK                         _______ _______ _______ _____ _____    ______ ____
ROOT
ATOM      1  N   UNL     1      34.974 -24.037 -14.284  0.00  0.00    -0.258 N 
ATOM      2  N   UNL     1      34.471 -23.081 -16.214  0.00  0.00    -0.240 NA
ATOM      3  N   UNL     1      32.755 -24.580 -13.468  0.00  0.00    -0.311 NA
ATOM      4  N   UNL     1      31.047 -23.868 -15.059  0.00  0.00    -0.312 NA
ATOM      5  N   UNL     1      30.479 -24.927 -13.048  0.00  0.00    -0.283 N 
ATOM      6  C   UNL     1      33.622 -24.076 -14.359  0.00  0.00    +0.220 C 
ATOM      7  C   UNL     1      33.324 -23.475 -15.572  0.00  0.00    +0.167 C 
ATOM      8  C   UNL     1      35.449 -23.436 -15.406  0.00  0.00    +0.222 C 
ATOM      9  C   UNL     1      31.978 -23.380 -15.913  0.00  0.00    +0.212 C 
ATOM     10  C   UNL     1      31.486 -24.429 -13.907  0.00  0.00    +0.199 C 
ATOM     11  H   UNL     1      30.726 -25.349 -12.193  0.00  0.00    +0.156 HD
ATOM     12  H   UNL     1      29.532 -24.853 -13.306  0.00  0.00    +0.156 HD
ATOM     13  N   UNL     1      31.585 -22.787 -17.125  0.00  0.00    -0.331 N 
ATOM     14  H   UNL     1      30.630 -22.725 -17.356  0.00  0.00    +0.145 HD
ATOM     15  H   UNL     1      32.264 -22.432 -17.743  0.00  0.00    +0.145 HD
ENDROOT
BRANCH   1  16
ATOM     16  C   UNL     1      35.792 -24.547 -13.185  0.00  0.00    +0.127 C 
BRANCH  16  17
ATOM     17  C   UNL     1      36.806 -23.526 -12.689  0.00  0.00    +0.164 C 
BRANCH  17  18
ATOM     18  O   UNL     1      38.091 -23.835 -13.211  0.00  0.00    -0.340 OA
BRANCH  18  19
ATOM     19  C   UNL     1      38.385 -25.221 -13.088  0.00  0.00    +0.258 C 
BRANCH  19  20
ATOM     20  P   UNL     1      39.099 -25.676 -14.655  0.00  0.00    +0.367 P 
ATOM     21  O   UNL     1      40.321 -26.540 -14.563  0.00  0.00    -0.256 OA
BRANCH  20  22
ATOM     22  O   UNL     1      39.312 -24.259 -15.402  0.00  0.00    -0.322 OA
ATOM     23  H   UNL     1      39.113 -23.535 -14.787  0.00  0.00    +0.220 HD
ENDBRANCH  20  22
BRANCH  20  24
ATOM     24  O   UNL     1      37.854 -26.331 -15.450  0.00  0.00    -0.322 OA
ATOM     25  H   UNL     1      37.782 -27.271 -15.221  0.00  0.00    +0.220 HD
ENDBRANCH  20  24
ENDBRANCH  19  20
ENDBRANCH  18  19
ENDBRANCH  17  18
ENDBRANCH  16  17
ENDBRANCH   1  16
TORSDOF 7
ENDMDL
MODEL 5
REMARK VINA RESULT:      -7.9      3.290      4.452
REMARK  Name = 64988
REMARK  7 active torsions:
REMARK  status: ('A' for Active; 'I' for Inactive)
REMARK    1  A    between atoms: N_1  and  C_16
REMARK    2  A    between atoms: C_16  and  C_17
REMARK    3  A    between atoms: C_17  and  O_18
REMARK    4  A    between atoms: O_18  and  C_19
REMARK    5  A    between atoms: C_19  and  P_20
REMARK    6  A    between atoms: P_20  and  O_22
REMARK    7  A    between atoms: P_20  and  O_24
REMARK                            x       y       z     vdW  Elec       q    Type
REMARK                         _______ _______ _______ _____ _____    ______ ____
ROOT
ATOM      1  N   UNL     1      36.127 -22.568 -16.659  0.00  0.00    -0.258 N 
ATOM      2  N   UNL     1      34.096 -23.175 -17.295  0.00  0.00    -0.240 NA
ATOM      3  N   UNL     1      36.728 -21.073 -18.472  0.00  0.00    -0.311 NA
ATOM      4  N   UNL     1      34.919 -20.912 -20.102  0.00  0.00    -0.312 NA
ATOM      5  N   UNL     1      36.919 -19.723 -20.374  0.00  0.00    -0.283 N 
ATOM      6  C   UNL     1      35.907 -21.913 -17.825  0.00  0.00    +0.220 C 
ATOM      7  C   UNL     1      34.633 -22.303 -18.208  0.00  0.00    +0.167 C 
ATOM      8  C   UNL     1      35.027 -23.314 -16.373  0.00  0.00    +0.222 C 
ATOM      9  C   UNL     1      34.143 -21.768 -19.395  0.00  0.00    +0.212 C 
ATOM     10  C   UNL     1      36.145 -20.623 -19.605  0.00  0.00    +0.199 C 
ATOM     11  H   UNL     1      37.821 -19.467 -20.073  0.00  0.00    +0.156 HD
ATOM     12  H   UNL     1      36.556 -19.353 -21.211  0.00  0.00    +0.156 HD
ATOM     13  N   UNL     1      32.860 -22.108 -19.859  0.00  0.00    -0.331 N 
ATOM     14  H   UNL     1      32.524 -21.723 -20.701  0.00  0.00    +0.145 HD
ATOM     15  H   UNL     1      32.299 -22.730 -19.344  0.00  0.00    +0.145 HD
ENDROOT
BRANCH   1  16
ATOM     16  C   UNL     1      37.338 -22.497 -15.844  0.00  0.00    +0.127 C 
BRANCH  16  17
ATOM     17  C   UNL     1      37.507 -23.711 -14.942  0.00  0.00    +0.164 C 
BRANCH  17  18
ATOM     18  O   UNL     1      37.482 -23.304 -13.581  0.00  0.00    -0.340 OA
BRANCH  18  19
ATOM     19  C   UNL     1      36.196 -23.492 -13.004  0.00  0.00    +0.258 C 
BRANCH  19  20
ATOM     20  P   UNL     1      36.417 -24.798 -11.814  0.00  0.00    +0.367 P 
ATOM     21  O   UNL     1      35.356 -24.875 -10.758  0.00  0.00    -0.256 OA
BRANCH  20  22
ATOM     22  O   UNL     1      37.919 -24.563 -11.264  0.00  0.00    -0.322 OA
ATOM     23  H   UNL     1      38.506 -24.349 -12.007  0.00  0.00    +0.220 HD
ENDBRANCH  20  22
BRANCH  20  24
ATOM     24  O   UNL     1      36.563 -26.116 -12.738  0.00  0.00    -0.322 OA
ATOM     25  H   UNL     1      35.722 -26.288 -13.190  0.00  0.00    +0.220 HD
ENDBRANCH  20  24
ENDBRANCH  19  20
ENDBRANCH  18  19
ENDBRANCH  17  18
ENDBRANCH  16  17
ENDBRANCH   1  16
TORSDOF 7
ENDMDL
MODEL 6
REMARK VINA RESULT:      -7.9      5.819      7.881
REMARK  Name = 64988
REMARK  7 active torsions:
REMARK  status: ('A' for Active; 'I' for Inactive)
REMARK    1  A    between atoms: N_1  and  C_16
REMARK    2  A    between atoms: C_16  and  C_17
REMARK    3  A    between atoms: C_17  and  O_18
REMARK    4  A    between atoms: O_18  and  C_19
REMARK    5  A    between atoms: C_19  and  P_20
REMARK    6  A    between atoms: P_20  and  O_22
REMARK    7  A    between atoms: P_20  and  O_24
REMARK                            x       y       z     vdW  Elec       q    Type
REMARK                         _______ _______ _______ _____ _____    ______ ____
ROOT
ATOM      1  N   UNL     1      33.298 -23.507 -15.076  0.00  0.00    -0.258 N 
ATOM      2  N   UNL     1      35.057 -23.724 -16.401  0.00  0.00    -0.240 NA
ATOM      3  N   UNL     1      34.282 -24.088 -12.936  0.00  0.00    -0.311 NA
ATOM      4  N   UNL     1      36.651 -24.622 -13.186  0.00  0.00    -0.312 NA
ATOM      5  N   UNL     1      35.594 -24.697 -11.096  0.00  0.00    -0.283 N 
ATOM      6  C   UNL     1      34.314 -23.884 -14.261  0.00  0.00    +0.220 C 
ATOM      7  C   UNL     1      35.406 -24.014 -15.105  0.00  0.00    +0.167 C 
ATOM      8  C   UNL     1      33.777 -23.423 -16.346  0.00  0.00    +0.222 C 
ATOM      9  C   UNL     1      36.609 -24.398 -14.521  0.00  0.00    +0.212 C 
ATOM     10  C   UNL     1      35.503 -24.456 -12.487  0.00  0.00    +0.199 C 
ATOM     11  H   UNL     1      34.798 -24.595 -10.526  0.00  0.00    +0.156 HD
ATOM     12  H   UNL     1      36.453 -24.966 -10.700  0.00  0.00    +0.156 HD
ATOM     13  N   UNL     1      37.768 -24.554 -15.301  0.00  0.00    -0.331 N 
ATOM     14  H   UNL     1      38.614 -24.826 -14.876  0.00  0.00    +0.145 HD
ATOM     15  H   UNL     1      37.735 -24.391 -16.271  0.00  0.00    +0.145 HD
ENDROOT
BRANCH   1  16
ATOM     16  C   UNL     1      31.921 -23.240 -14.670  0.00  0.00    +0.127 C 
BRANCH  16  17
ATOM     17  C   UNL     1      31.073 -24.504 -14.612  0.00  0.00    +0.164 C 
BRANCH  17  18
ATOM     18  O   UNL     1      30.184 -24.535 -15.720  0.00  0.00    -0.340 OA
BRANCH  18  19
ATOM     19  C   UNL     1      28.863 -24.175 -15.340  0.00  0.00    +0.258 C 
BRANCH  19  20
ATOM     20  P   UNL     1      28.301 -23.078 -16.625  0.00  0.00    +0.367 P 
ATOM     21  O   UNL     1      27.518 -23.738 -17.720  0.00  0.00    -0.256 OA
BRANCH  20  22
ATOM     22  O   UNL     1      29.651 -22.326 -17.101  0.00  0.00    -0.322 OA
ATOM     23  H   UNL     1      30.411 -22.690 -16.619  0.00  0.00    +0.220 HD
ENDBRANCH  20  22
BRANCH  20  24
ATOM     24  O   UNL     1      27.507 -21.931 -15.808  0.00  0.00    -0.322 OA
ATOM     25  H   UNL     1      26.763 -21.612 -16.343  0.00  0.00    +0.220 HD
ENDBRANCH  20  24
ENDBRANCH  19  20
ENDBRANCH  18  19
ENDBRANCH  17  18
ENDBRANCH  16  17
ENDBRANCH   1  16
TORSDOF 7
ENDMDL
MODEL 7
REMARK VINA RESULT:      -7.8     11.692     13.502
REMARK  Name = 64988
REMARK  7 active torsions:
REMARK  status: ('A' for Active; 'I' for Inactive)
REMARK    1  A    between atoms: N_1  and  C_16
REMARK    2  A    between atoms: C_16  and  C_17
REMARK    3  A    between atoms: C_17  and  O_18
REMARK    4  A    between atoms: O_18  and  C_19
REMARK    5  A    between atoms: C_19  and  P_20
REMARK    6  A    between atoms: P_20  and  O_22
REMARK    7  A    between atoms: P_20  and  O_24
REMARK                            x       y       z     vdW  Elec       q    Type
REMARK                         _______ _______ _______ _____ _____    ______ ____
ROOT
ATOM      1  N   UNL     1      34.488 -15.031 -21.948  0.00  0.00    -0.258 N 
ATOM      2  N   UNL     1      34.986 -16.332 -20.229  0.00  0.00    -0.240 NA
ATOM      3  N   UNL     1      34.503 -16.655 -23.750  0.00  0.00    -0.311 NA
ATOM      4  N   UNL     1      35.031 -18.883 -22.907  0.00  0.00    -0.312 NA
ATOM      5  N   UNL     1      34.612 -18.504 -25.181  0.00  0.00    -0.283 N 
ATOM      6  C   UNL     1      34.630 -16.273 -22.471  0.00  0.00    +0.220 C 
ATOM      7  C   UNL     1      34.941 -17.074 -21.383  0.00  0.00    +0.167 C 
ATOM      8  C   UNL     1      34.708 -15.102 -20.608  0.00  0.00    +0.222 C 
ATOM      9  C   UNL     1      35.144 -18.427 -21.637  0.00  0.00    +0.212 C 
ATOM     10  C   UNL     1      34.723 -17.983 -23.871  0.00  0.00    +0.199 C 
ATOM     11  H   UNL     1      34.390 -17.906 -25.931  0.00  0.00    +0.156 HD
ATOM     12  H   UNL     1      34.758 -19.463 -25.342  0.00  0.00    +0.156 HD
ATOM     13  N   UNL     1      35.462 -19.313 -20.593  0.00  0.00    -0.331 N 
ATOM     14  H   UNL     1      35.603 -20.269 -20.784  0.00  0.00    +0.145 HD
ATOM     15  H   UNL     1      35.543 -18.979 -19.671  0.00  0.00    +0.145 HD
ENDROOT
BRANCH   1  16
ATOM     16  C   UNL     1      34.158 -13.816 -22.689  0.00  0.00    +0.127 C 
BRANCH  16  17
ATOM     17  C   UNL     1      32.663 -13.670 -22.936  0.00  0.00    +0.164 C 
BRANCH  17  18
ATOM     18  O   UNL     1      32.395 -13.769 -24.328  0.00  0.00    -0.340 OA
BRANCH  18  19
ATOM     19  C   UNL     1      33.483 -13.287 -25.105  0.00  0.00    +0.258 C 
BRANCH  19  20
ATOM     20  P   UNL     1      33.327 -14.118 -26.672  0.00  0.00    +0.367 P 
ATOM     21  O   UNL     1      34.059 -13.466 -27.806  0.00  0.00    -0.256 OA
BRANCH  20  22
ATOM     22  O   UNL     1      31.729 -14.256 -26.873  0.00  0.00    -0.322 OA
ATOM     23  H   UNL     1      31.514 -15.162 -27.145  0.00  0.00    +0.220 HD
ENDBRANCH  20  22
BRANCH  20  24
ATOM     24  O   UNL     1      33.791 -15.629 -26.335  0.00  0.00    -0.322 OA
ATOM     25  H   UNL     1      34.749 -15.647 -26.183  0.00  0.00    +0.220 HD
ENDBRANCH  20  24
ENDBRANCH  19  20
ENDBRANCH  18  19
ENDBRANCH  17  18
ENDBRANCH  16  17
ENDBRANCH   1  16
TORSDOF 7
ENDMDL
MODEL 8
REMARK VINA RESULT:      -7.7      1.958      3.515
REMARK  Name = 64988
REMARK  7 active torsions:
REMARK  status: ('A' for Active; 'I' for Inactive)
REMARK    1  A    between atoms: N_1  and  C_16
REMARK    2  A    between atoms: C_16  and  C_17
REMARK    3  A    between atoms: C_17  and  O_18
REMARK    4  A    between atoms: O_18  and  C_19
REMARK    5  A    between atoms: C_19  and  P_20
REMARK    6  A    between atoms: P_20  and  O_22
REMARK    7  A    between atoms: P_20  and  O_24
REMARK                            x       y       z     vdW  Elec       q    Type
REMARK                         _______ _______ _______ _____ _____    ______ ____
ROOT
ATOM      1  N   UNL     1      33.517 -23.510 -16.352  0.00  0.00    -0.258 N 
ATOM      2  N   UNL     1      32.005 -22.634 -17.709  0.00  0.00    -0.240 NA
ATOM      3  N   UNL     1      32.099 -24.243 -14.525  0.00  0.00    -0.311 NA
ATOM      4  N   UNL     1      29.759 -23.716 -14.977  0.00  0.00    -0.312 NA
ATOM      5  N   UNL     1      30.410 -24.792 -13.000  0.00  0.00    -0.283 N 
ATOM      6  C   UNL     1      32.331 -23.675 -15.718  0.00  0.00    +0.220 C 
ATOM      7  C   UNL     1      31.396 -23.122 -16.580  0.00  0.00    +0.167 C 
ATOM      8  C   UNL     1      33.287 -22.885 -17.536  0.00  0.00    +0.222 C 
ATOM      9  C   UNL     1      30.067 -23.157 -16.172  0.00  0.00    +0.212 C 
ATOM     10  C   UNL     1      30.778 -24.216 -14.238  0.00  0.00    +0.199 C 
ATOM     11  H   UNL     1      31.100 -25.176 -12.412  0.00  0.00    +0.156 HD
ATOM     12  H   UNL     1      29.465 -24.809 -12.728  0.00  0.00    +0.156 HD
ATOM     13  N   UNL     1      29.052 -22.620 -16.984  0.00  0.00    -0.331 N 
ATOM     14  H   UNL     1      28.115 -22.650 -16.684  0.00  0.00    +0.145 HD
ATOM     15  H   UNL     1      29.279 -22.215 -17.851  0.00  0.00    +0.145 HD
ENDROOT
BRANCH   1  16
ATOM     16  C   UNL     1      34.826 -23.926 -15.854  0.00  0.00    +0.127 C 
BRANCH  16  17
ATOM     17  C   UNL     1      35.549 -22.812 -15.110  0.00  0.00    +0.164 C 
BRANCH  17  18
ATOM     18  O   UNL     1      36.578 -23.365 -14.301  0.00  0.00    -0.340 OA
BRANCH  18  19
ATOM     19  C   UNL     1      36.409 -24.765 -14.125  0.00  0.00    +0.258 C 
BRANCH  19  20
ATOM     20  P   UNL     1      37.990 -25.471 -14.539  0.00  0.00    +0.367 P 
ATOM     21  O   UNL     1      38.721 -26.097 -13.389  0.00  0.00    -0.256 OA
BRANCH  20  22
ATOM     22  O   UNL     1      38.768 -24.259 -15.272  0.00  0.00    -0.322 OA
ATOM     23  H   UNL     1      39.351 -24.618 -15.960  0.00  0.00    +0.220 HD
ENDBRANCH  20  22
BRANCH  20  24
ATOM     24  O   UNL     1      37.637 -26.476 -15.755  0.00  0.00    -0.322 OA
ATOM     25  H   UNL     1      38.203 -26.272 -16.516  0.00  0.00    +0.220 HD
ENDBRANCH  20  24
ENDBRANCH  19  20
ENDBRANCH  18  19
ENDBRANCH  17  18
ENDBRANCH  16  17
ENDBRANCH   1  16
TORSDOF 7
ENDMDL
MODEL 9
REMARK VINA RESULT:      -7.6     10.529     12.556
REMARK  Name = 64988
REMARK  7 active torsions:
REMARK  status: ('A' for Active; 'I' for Inactive)
REMARK    1  A    between atoms: N_1  and  C_16
REMARK    2  A    between atoms: C_16  and  C_17
REMARK    3  A    between atoms: C_17  and  O_18
REMARK    4  A    between atoms: O_18  and  C_19
REMARK    5  A    between atoms: C_19  and  P_20
REMARK    6  A    between atoms: P_20  and  O_22
REMARK    7  A    between atoms: P_20  and  O_24
REMARK                            x       y       z     vdW  Elec       q    Type
REMARK                         _______ _______ _______ _____ _____    ______ ____
ROOT
ATOM      1  N   UNL     1      33.095 -14.452 -22.468  0.00  0.00    -0.258 N 
ATOM      2  N   UNL     1      32.609 -12.974 -24.041  0.00  0.00    -0.240 NA
ATOM      3  N   UNL     1      33.913 -16.289 -23.827  0.00  0.00    -0.311 NA
ATOM      4  N   UNL     1      33.840 -15.715 -26.198  0.00  0.00    -0.312 NA
ATOM      5  N   UNL     1      34.622 -17.799 -25.468  0.00  0.00    -0.283 N 
ATOM      6  C   UNL     1      33.412 -15.059 -23.638  0.00  0.00    +0.220 C 
ATOM      7  C   UNL     1      33.103 -14.121 -24.611  0.00  0.00    +0.167 C 
ATOM      8  C   UNL     1      32.618 -13.210 -22.745  0.00  0.00    +0.222 C 
ATOM      9  C   UNL     1      33.335 -14.486 -25.933  0.00  0.00    +0.212 C 
ATOM     10  C   UNL     1      34.093 -16.528 -25.145  0.00  0.00    +0.199 C 
ATOM     11  H   UNL     1      34.830 -18.442 -24.751  0.00  0.00    +0.156 HD
ATOM     12  H   UNL     1      34.781 -18.041 -26.408  0.00  0.00    +0.156 HD
ATOM     13  N   UNL     1      33.051 -13.597 -26.984  0.00  0.00    -0.331 N 
ATOM     14  H   UNL     1      33.220 -13.867 -27.916  0.00  0.00    +0.145 HD
ATOM     15  H   UNL     1      32.684 -12.705 -26.789  0.00  0.00    +0.145 HD
ENDROOT
BRANCH   1  16
ATOM     16  C   UNL     1      33.235 -15.029 -21.133  0.00  0.00    +0.127 C 
BRANCH  16  17
ATOM     17  C   UNL     1      34.674 -15.009 -20.636  0.00  0.00    +0.164 C 
BRANCH  17  18
ATOM     18  O   UNL     1      35.073 -16.323 -20.271  0.00  0.00    -0.340 OA
BRANCH  18  19
ATOM     19  C   UNL     1      34.261 -17.308 -20.897  0.00  0.00    +0.258 C 
BRANCH  19  20
ATOM     20  P   UNL     1      35.413 -18.463 -21.610  0.00  0.00    +0.367 P 
ATOM     21  O   UNL     1      36.208 -19.255 -20.616  0.00  0.00    -0.256 OA
BRANCH  20  22
ATOM     22  O   UNL     1      36.287 -17.554 -22.622  0.00  0.00    -0.322 OA
ATOM     23  H   UNL     1      36.826 -16.929 -22.112  0.00  0.00    +0.220 HD
ENDBRANCH  20  22
BRANCH  20  24
ATOM     24  O   UNL     1      34.488 -19.340 -22.603  0.00  0.00    -0.322 OA
ATOM     25  H   UNL     1      34.946 -20.166 -22.827  0.00  0.00    +0.220 HD
ENDBRANCH  20  24
ENDBRANCH  19  20
ENDBRANCH  18  19
ENDBRANCH  17  18
ENDBRANCH  16  17
ENDBRANCH   1  16
TORSDOF 7
ENDMDL
