MODEL 1
REMARK VINA RESULT:     -10.4      0.000      0.000
REMARK  Name = 10320144
REMARK  6 active torsions:
REMARK  status: ('A' for Active; 'I' for Inactive)
REMARK    1  A    between atoms: C_1  and  C_2
REMARK    2  A    between atoms: C_1  and  C_19
REMARK    3  A    between atoms: C_1  and  C_22
REMARK    4  A    between atoms: C_5  and  C_11
REMARK    5  A    between atoms: C_22  and  C_30
REMARK    6  A    between atoms: C_22  and  N_31
REMARK                            x       y       z     vdW  Elec       q    Type
REMARK                         _______ _______ _______ _____ _____    ______ ____
ROOT
ATOM      1  C   UNL     1      32.789 -11.944 -23.599  0.00  0.00    +0.088 C 
ENDROOT
BRANCH   1   2
ATOM      2  C   UNL     1      33.164 -13.324 -23.068  0.00  0.00    -0.015 C 
ATOM      3  C   UNL     1      34.214 -13.997 -23.655  0.00  0.00    -0.004 C 
ATOM      4  C   UNL     1      32.442 -13.850 -22.019  0.00  0.00    -0.004 C 
ATOM      5  C   UNL     1      33.843 -15.816 -22.108  0.00  0.00    +0.001 C 
ATOM      6  C   UNL     1      34.557 -15.259 -23.169  0.00  0.00    -0.000 C 
ATOM      7  C   UNL     1      32.785 -15.112 -21.533  0.00  0.00    -0.000 C 
BRANCH   5  11
ATOM      8  N   UNL     1      33.552 -19.251 -20.680  0.00  0.00    -0.170 N 
ATOM      9  N   UNL     1      32.719 -20.213 -20.208  0.00  0.00    -0.150 NA
ATOM     10  N   UNL     1      34.882 -20.944 -20.129  0.00  0.00    -0.206 NA
ATOM     11  C   UNL     1      34.205 -17.151 -21.595  0.00  0.00    +0.017 C 
ATOM     12  C   UNL     1      33.231 -17.981 -21.163  0.00  0.00    +0.091 C 
ATOM     13  C   UNL     1      35.586 -17.637 -21.540  0.00  0.00    +0.004 C 
ATOM     14  C   UNL     1      34.864 -19.726 -20.622  0.00  0.00    +0.157 C 
ATOM     15  C   UNL     1      35.897 -18.862 -21.076  0.00  0.00    +0.036 C 
ATOM     16  C   UNL     1      33.565 -21.193 -19.896  0.00  0.00    +0.219 C 
ENDBRANCH   5  11
ENDBRANCH   1   2
BRANCH   1  19
ATOM     17  O   UNL     1      34.763 -10.573 -23.482  0.00  0.00    -0.275 OA
ATOM     18  N   UNL     1      34.263 -11.413 -25.577  0.00  0.00    -0.276 N 
ATOM     19  C   UNL     1      34.031 -11.257 -24.207  0.00  0.00    +0.228 C 
ATOM     20  C   UNL     1      33.452 -12.200 -26.503  0.00  0.00    +0.115 C 
ATOM     21  C   UNL     1      35.354 -10.672 -26.201  0.00  0.00    +0.115 C 
ENDBRANCH   1  19
BRANCH   1  22
ATOM     22  C   UNL     1      32.153 -11.083 -22.475  0.00  0.00    +0.026 C 
BRANCH  22  30
ATOM     23  F   UNL     1      33.733  -7.242 -20.002  0.00  0.00    -0.235 F 
ATOM     24  O   UNL     1      31.778  -9.389 -24.107  0.00  0.00    -0.277 OA
ATOM     25  N   UNL     1      32.000  -8.707 -21.911  0.00  0.00    -0.278 N 
ATOM     26  C   UNL     1      32.213  -8.956 -20.486  0.00  0.00    +0.128 C 
ATOM     27  C   UNL     1      31.835  -7.285 -22.175  0.00  0.00    +0.096 C 
ATOM     28  C   UNL     1      32.417  -7.573 -19.891  0.00  0.00    +0.182 C 
ATOM     29  C   UNL     1      31.607  -6.667 -20.804  0.00  0.00    +0.059 C 
ATOM     30  C   UNL     1      31.956  -9.654 -22.917  0.00  0.00    +0.206 C 
ENDBRANCH  22  30
BRANCH  22  31
ATOM     31  N   UNL     1      30.813 -11.545 -22.110  0.00  0.00    +0.388 N 
ATOM     32  H   UNL     1      30.239 -11.619 -22.949  0.00  0.00    -0.089 HD
ATOM     33  H   UNL     1      30.388 -10.879 -21.465  0.00  0.00    -0.089 HD
ATOM     34  H   UNL     1      30.880 -12.459 -21.662  0.00  0.00    -0.089 HD
ENDBRANCH  22  31
ENDBRANCH   1  22
TORSDOF 6
ENDMDL
MODEL 2
REMARK VINA RESULT:     -10.2      8.536     13.566
REMARK  Name = 10320144
REMARK  6 active torsions:
REMARK  status: ('A' for Active; 'I' for Inactive)
REMARK    1  A    between atoms: C_1  and  C_2
REMARK    2  A    between atoms: C_1  and  C_19
REMARK    3  A    between atoms: C_1  and  C_22
REMARK    4  A    between atoms: C_5  and  C_11
REMARK    5  A    between atoms: C_22  and  C_30
REMARK    6  A    between atoms: C_22  and  N_31
REMARK                            x       y       z     vdW  Elec       q    Type
REMARK                         _______ _______ _______ _____ _____    ______ ____
ROOT
ATOM      1  C   UNL     1      36.652 -23.614 -14.854  0.00  0.00    +0.088 C 
ENDROOT
BRANCH   1   2
ATOM      2  C   UNL     1      36.258 -22.864 -16.124  0.00  0.00    -0.015 C 
ATOM      3  C   UNL     1      37.173 -22.009 -16.699  0.00  0.00    -0.004 C 
ATOM      4  C   UNL     1      35.002 -23.068 -16.652  0.00  0.00    -0.004 C 
ATOM      5  C   UNL     1      35.547 -21.511 -18.416  0.00  0.00    +0.001 C 
ATOM      6  C   UNL     1      36.812 -21.324 -17.860  0.00  0.00    -0.000 C 
ATOM      7  C   UNL     1      34.641 -22.383 -17.812  0.00  0.00    -0.000 C 
BRANCH   5  11
ATOM      8  N   UNL     1      35.777 -19.444 -21.514  0.00  0.00    -0.170 N 
ATOM      9  N   UNL     1      36.584 -18.737 -22.345  0.00  0.00    -0.150 NA
ATOM     10  N   UNL     1      34.434 -18.690 -23.117  0.00  0.00    -0.206 NA
ATOM     11  C   UNL     1      35.166 -20.785 -19.643  0.00  0.00    +0.017 C 
ATOM     12  C   UNL     1      36.115 -20.131 -20.347  0.00  0.00    +0.091 C 
ATOM     13  C   UNL     1      33.793 -20.746 -20.154  0.00  0.00    +0.004 C 
ATOM     14  C   UNL     1      34.472 -19.399 -22.011  0.00  0.00    +0.157 C 
ATOM     15  C   UNL     1      33.466 -20.086 -21.280  0.00  0.00    +0.036 C 
ATOM     16  C   UNL     1      35.732 -18.313 -23.276  0.00  0.00    +0.219 C 
ENDBRANCH   5  11
ENDBRANCH   1   2
BRANCH   1  19
ATOM     17  O   UNL     1      35.634 -25.598 -15.759  0.00  0.00    -0.275 OA
ATOM     18  N   UNL     1      37.555 -25.947 -14.519  0.00  0.00    -0.276 N 
ATOM     19  C   UNL     1      36.570 -25.137 -15.095  0.00  0.00    +0.228 C 
ATOM     20  C   UNL     1      38.690 -25.486 -13.724  0.00  0.00    +0.115 C 
ATOM     21  C   UNL     1      37.430 -27.397 -14.622  0.00  0.00    +0.115 C 
ENDBRANCH   1  19
BRANCH   1  22
ATOM     22  C   UNL     1      35.757 -23.175 -13.664  0.00  0.00    +0.026 C 
BRANCH  22  30
ATOM     23  F   UNL     1      31.656 -24.144 -16.031  0.00  0.00    -0.235 F 
ATOM     24  O   UNL     1      35.176 -25.231 -12.610  0.00  0.00    -0.277 OA
ATOM     25  N   UNL     1      33.489 -24.092 -13.701  0.00  0.00    -0.278 N 
ATOM     26  C   UNL     1      32.971 -22.973 -14.488  0.00  0.00    +0.128 C 
ATOM     27  C   UNL     1      32.439 -25.056 -13.408  0.00  0.00    +0.096 C 
ATOM     28  C   UNL     1      31.573 -23.412 -14.886  0.00  0.00    +0.182 C 
ATOM     29  C   UNL     1      31.147 -24.330 -13.751  0.00  0.00    +0.059 C 
ATOM     30  C   UNL     1      34.791 -24.264 -13.269  0.00  0.00    +0.206 C 
ENDBRANCH  22  30
BRANCH  22  31
ATOM     31  N   UNL     1      36.534 -22.911 -12.452  0.00  0.00    +0.388 N 
ATOM     32  H   UNL     1      36.126 -23.422 -11.669  0.00  0.00    -0.089 HD
ATOM     33  H   UNL     1      36.519 -21.912 -12.250  0.00  0.00    -0.089 HD
ATOM     34  H   UNL     1      37.496 -23.216 -12.593  0.00  0.00    -0.089 HD
ENDBRANCH  22  31
ENDBRANCH   1  22
TORSDOF 6
ENDMDL
MODEL 3
REMARK VINA RESULT:      -9.8      8.573     14.471
REMARK  Name = 10320144
REMARK  6 active torsions:
REMARK  status: ('A' for Active; 'I' for Inactive)
REMARK    1  A    between atoms: C_1  and  C_2
REMARK    2  A    between atoms: C_1  and  C_19
REMARK    3  A    between atoms: C_1  and  C_22
REMARK    4  A    between atoms: C_5  and  C_11
REMARK    5  A    between atoms: C_22  and  C_30
REMARK    6  A    between atoms: C_22  and  N_31
REMARK                            x       y       z     vdW  Elec       q    Type
REMARK                         _______ _______ _______ _____ _____    ______ ____
ROOT
ATOM      1  C   UNL     1      35.792 -24.216 -14.712  0.00  0.00    +0.088 C 
ENDROOT
BRANCH   1   2
ATOM      2  C   UNL     1      35.514 -23.381 -15.958  0.00  0.00    -0.015 C 
ATOM      3  C   UNL     1      36.535 -22.621 -16.488  0.00  0.00    -0.004 C 
ATOM      4  C   UNL     1      34.253 -23.414 -16.511  0.00  0.00    -0.004 C 
ATOM      5  C   UNL     1      35.012 -21.872 -18.209  0.00  0.00    +0.001 C 
ATOM      6  C   UNL     1      36.280 -21.858 -17.628  0.00  0.00    -0.000 C 
ATOM      7  C   UNL     1      33.998 -22.651 -17.651  0.00  0.00    -0.000 C 
BRANCH   5  11
ATOM      8  N   UNL     1      35.539 -19.694 -21.192  0.00  0.00    -0.170 N 
ATOM      9  N   UNL     1      36.435 -19.019 -21.956  0.00  0.00    -0.150 NA
ATOM     10  N   UNL     1      34.331 -18.762 -22.808  0.00  0.00    -0.206 NA
ATOM     11  C   UNL     1      34.743 -21.064 -19.413  0.00  0.00    +0.017 C 
ATOM     12  C   UNL     1      35.771 -20.458 -20.047  0.00  0.00    +0.091 C 
ATOM     13  C   UNL     1      33.401 -20.890 -19.975  0.00  0.00    +0.004 C 
ATOM     14  C   UNL     1      34.265 -19.521 -21.737  0.00  0.00    +0.157 C 
ATOM     15  C   UNL     1      33.176 -20.156 -21.080  0.00  0.00    +0.036 C 
ATOM     16  C   UNL     1      35.660 -18.485 -22.898  0.00  0.00    +0.219 C 
ENDBRANCH   5  11
ENDBRANCH   1   2
BRANCH   1  19
ATOM     17  O   UNL     1      37.713 -22.882 -14.144  0.00  0.00    -0.275 OA
ATOM     18  N   UNL     1      36.287 -23.364 -12.389  0.00  0.00    -0.276 N 
ATOM     19  C   UNL     1      36.679 -23.420 -13.731  0.00  0.00    +0.228 C 
ATOM     20  C   UNL     1      35.086 -23.968 -11.818  0.00  0.00    +0.115 C 
ATOM     21  C   UNL     1      37.171 -22.729 -11.417  0.00  0.00    +0.115 C 
ENDBRANCH   1  19
BRANCH   1  22
ATOM     22  C   UNL     1      36.443 -25.571 -15.099  0.00  0.00    +0.026 C 
BRANCH  22  30
ATOM     23  F   UNL     1      41.028 -24.156 -14.521  0.00  0.00    -0.235 F 
ATOM     24  O   UNL     1      36.881 -26.535 -12.965  0.00  0.00    -0.277 OA
ATOM     25  N   UNL     1      38.707 -25.983 -14.268  0.00  0.00    -0.278 N 
ATOM     26  C   UNL     1      39.328 -25.449 -15.480  0.00  0.00    +0.128 C 
ATOM     27  C   UNL     1      39.714 -26.423 -13.314  0.00  0.00    +0.096 C 
ATOM     28  C   UNL     1      40.803 -25.351 -15.132  0.00  0.00    +0.182 C 
ATOM     29  C   UNL     1      41.007 -26.464 -14.115  0.00  0.00    +0.059 C 
ATOM     30  C   UNL     1      37.353 -26.078 -14.008  0.00  0.00    +0.206 C 
ENDBRANCH  22  30
BRANCH  22  31
ATOM     31  N   UNL     1      35.453 -26.633 -15.280  0.00  0.00    +0.388 N 
ATOM     32  H   UNL     1      34.751 -26.332 -15.955  0.00  0.00    -0.089 HD
ATOM     33  H   UNL     1      35.002 -26.833 -14.387  0.00  0.00    -0.089 HD
ATOM     34  H   UNL     1      35.916 -27.474 -15.624  0.00  0.00    -0.089 HD
ENDBRANCH  22  31
ENDBRANCH   1  22
TORSDOF 6
ENDMDL
MODEL 4
REMARK VINA RESULT:      -9.8      1.616      1.738
REMARK  Name = 10320144
REMARK  6 active torsions:
REMARK  status: ('A' for Active; 'I' for Inactive)
REMARK    1  A    between atoms: C_1  and  C_2
REMARK    2  A    between atoms: C_1  and  C_19
REMARK    3  A    between atoms: C_1  and  C_22
REMARK    4  A    between atoms: C_5  and  C_11
REMARK    5  A    between atoms: C_22  and  C_30
REMARK    6  A    between atoms: C_22  and  N_31
REMARK                            x       y       z     vdW  Elec       q    Type
REMARK                         _______ _______ _______ _____ _____    ______ ____
ROOT
ATOM      1  C   UNL     1      32.728 -12.883 -23.336  0.00  0.00    +0.088 C 
ENDROOT
BRANCH   1   2
ATOM      2  C   UNL     1      33.205 -14.225 -22.789  0.00  0.00    -0.015 C 
ATOM      3  C   UNL     1      34.387 -14.752 -23.262  0.00  0.00    -0.004 C 
ATOM      4  C   UNL     1      32.437 -14.864 -21.840  0.00  0.00    -0.004 C 
ATOM      5  C   UNL     1      34.065 -16.649 -21.800  0.00  0.00    +0.001 C 
ATOM      6  C   UNL     1      34.823 -15.979 -22.761  0.00  0.00    -0.000 C 
ATOM      7  C   UNL     1      32.872 -16.091 -21.339  0.00  0.00    -0.000 C 
BRANCH   5  11
ATOM      8  N   UNL     1      34.027 -20.094 -20.369  0.00  0.00    -0.170 N 
ATOM      9  N   UNL     1      33.266 -21.124 -19.919  0.00  0.00    -0.150 NA
ATOM     10  N   UNL     1      35.481 -21.666 -19.772  0.00  0.00    -0.206 NA
ATOM     11  C   UNL     1      34.525 -17.947 -21.272  0.00  0.00    +0.017 C 
ATOM     12  C   UNL     1      33.614 -18.857 -20.866  0.00  0.00    +0.091 C 
ATOM     13  C   UNL     1      35.941 -18.313 -21.173  0.00  0.00    +0.004 C 
ATOM     14  C   UNL     1      35.373 -20.454 -20.269  0.00  0.00    +0.157 C 
ATOM     15  C   UNL     1      36.342 -19.506 -20.696  0.00  0.00    +0.036 C 
ATOM     16  C   UNL     1      34.184 -22.027 -19.578  0.00  0.00    +0.219 C 
ENDBRANCH   5  11
ENDBRANCH   1   2
BRANCH   1  19
ATOM     17  O   UNL     1      34.448 -11.571 -24.392  0.00  0.00    -0.275 OA
ATOM     18  N   UNL     1      33.380 -13.095 -25.765  0.00  0.00    -0.276 N 
ATOM     19  C   UNL     1      33.603 -12.463 -24.537  0.00  0.00    +0.228 C 
ATOM     20  C   UNL     1      32.407 -14.154 -26.023  0.00  0.00    +0.115 C 
ATOM     21  C   UNL     1      34.102 -12.629 -26.944  0.00  0.00    +0.115 C 
ENDBRANCH   1  19
BRANCH   1  22
ATOM     22  C   UNL     1      32.737 -11.805 -22.219  0.00  0.00    +0.026 C 
BRANCH  22  30
ATOM     23  F   UNL     1      33.660  -7.653 -24.513  0.00  0.00    -0.235 F 
ATOM     24  O   UNL     1      30.508 -11.019 -22.510  0.00  0.00    -0.277 OA
ATOM     25  N   UNL     1      32.205  -9.460 -22.667  0.00  0.00    -0.278 N 
ATOM     26  C   UNL     1      33.611  -9.060 -22.642  0.00  0.00    +0.128 C 
ATOM     27  C   UNL     1      31.340  -8.319 -22.931  0.00  0.00    +0.096 C 
ATOM     28  C   UNL     1      33.602  -7.629 -23.153  0.00  0.00    +0.182 C 
ATOM     29  C   UNL     1      32.237  -7.107 -22.732  0.00  0.00    +0.059 C 
ATOM     30  C   UNL     1      31.706 -10.735 -22.475  0.00  0.00    +0.206 C 
ENDBRANCH  22  30
BRANCH  22  31
ATOM     31  N   UNL     1      32.381 -12.357 -20.911  0.00  0.00    +0.388 N 
ATOM     32  H   UNL     1      32.896 -11.863 -20.182  0.00  0.00    -0.089 HD
ATOM     33  H   UNL     1      32.621 -13.348 -20.883  0.00  0.00    -0.089 HD
ATOM     34  H   UNL     1      31.379 -12.244 -20.756  0.00  0.00    -0.089 HD
ENDBRANCH  22  31
ENDBRANCH   1  22
TORSDOF 6
ENDMDL
MODEL 5
REMARK VINA RESULT:      -9.5      6.573     11.764
REMARK  Name = 10320144
REMARK  6 active torsions:
REMARK  status: ('A' for Active; 'I' for Inactive)
REMARK    1  A    between atoms: C_1  and  C_2
REMARK    2  A    between atoms: C_1  and  C_19
REMARK    3  A    between atoms: C_1  and  C_22
REMARK    4  A    between atoms: C_5  and  C_11
REMARK    5  A    between atoms: C_22  and  C_30
REMARK    6  A    between atoms: C_22  and  N_31
REMARK                            x       y       z     vdW  Elec       q    Type
REMARK                         _______ _______ _______ _____ _____    ______ ____
ROOT
ATOM      1  C   UNL     1      34.830 -21.943 -17.848  0.00  0.00    +0.088 C 
ENDROOT
BRANCH   1   2
ATOM      2  C   UNL     1      34.745 -21.117 -19.127  0.00  0.00    -0.015 C 
ATOM      3  C   UNL     1      35.914 -20.744 -19.756  0.00  0.00    -0.004 C 
ATOM      4  C   UNL     1      33.502 -20.771 -19.612  0.00  0.00    -0.004 C 
ATOM      5  C   UNL     1      34.590 -19.625 -21.439  0.00  0.00    +0.001 C 
ATOM      6  C   UNL     1      35.835 -19.989 -20.926  0.00  0.00    -0.000 C 
ATOM      7  C   UNL     1      33.423 -20.016 -20.782  0.00  0.00    -0.000 C 
BRANCH   5  11
ATOM      8  N   UNL     1      34.184 -16.724 -23.750  0.00  0.00    -0.170 N 
ATOM      9  N   UNL     1      33.947 -15.392 -23.864  0.00  0.00    -0.150 NA
ATOM     10  N   UNL     1      34.238 -16.313 -25.934  0.00  0.00    -0.206 NA
ATOM     11  C   UNL     1      34.507 -18.825 -22.676  0.00  0.00    +0.017 C 
ATOM     12  C   UNL     1      34.260 -17.500 -22.592  0.00  0.00    +0.091 C 
ATOM     13  C   UNL     1      34.694 -19.398 -24.012  0.00  0.00    +0.004 C 
ATOM     14  C   UNL     1      34.360 -17.258 -25.028  0.00  0.00    +0.157 C 
ATOM     15  C   UNL     1      34.623 -18.651 -25.129  0.00  0.00    +0.036 C 
ATOM     16  C   UNL     1      33.990 -15.207 -25.182  0.00  0.00    +0.219 C 
ENDBRANCH   5  11
ENDBRANCH   1   2
BRANCH   1  19
ATOM     17  O   UNL     1      37.127 -22.338 -18.449  0.00  0.00    -0.275 OA
ATOM     18  N   UNL     1      36.652 -22.497 -16.191  0.00  0.00    -0.276 N 
ATOM     19  C   UNL     1      36.306 -22.266 -17.527  0.00  0.00    +0.228 C 
ATOM     20  C   UNL     1      35.748 -22.431 -15.045  0.00  0.00    +0.115 C 
ATOM     21  C   UNL     1      38.009 -22.930 -15.874  0.00  0.00    +0.115 C 
ENDBRANCH   1  19
BRANCH   1  22
ATOM     22  C   UNL     1      33.978 -23.234 -17.975  0.00  0.00    +0.026 C 
BRANCH  22  30
ATOM     23  F   UNL     1      33.158 -23.511 -13.220  0.00  0.00    -0.235 F 
ATOM     24  O   UNL     1      31.736 -22.431 -17.921  0.00  0.00    -0.277 OA
ATOM     25  N   UNL     1      32.464 -23.652 -16.100  0.00  0.00    -0.278 N 
ATOM     26  C   UNL     1      33.472 -24.409 -15.360  0.00  0.00    +0.128 C 
ATOM     27  C   UNL     1      31.216 -23.572 -15.354  0.00  0.00    +0.096 C 
ATOM     28  C   UNL     1      32.860 -24.599 -13.982  0.00  0.00    +0.182 C 
ATOM     29  C   UNL     1      31.364 -24.611 -14.253  0.00  0.00    +0.059 C 
ATOM     30  C   UNL     1      32.620 -23.064 -17.341  0.00  0.00    +0.206 C 
ENDBRANCH  22  30
BRANCH  22  31
ATOM     31  N   UNL     1      33.695 -23.578 -19.370  0.00  0.00    +0.388 N 
ATOM     32  H   UNL     1      33.321 -24.526 -19.416  0.00  0.00    -0.089 HD
ATOM     33  H   UNL     1      34.556 -23.526 -19.914  0.00  0.00    -0.089 HD
ATOM     34  H   UNL     1      33.012 -22.923 -19.749  0.00  0.00    -0.089 HD
ENDBRANCH  22  31
ENDBRANCH   1  22
TORSDOF 6
ENDMDL
MODEL 6
REMARK VINA RESULT:      -9.4      8.466     13.677
REMARK  Name = 10320144
REMARK  6 active torsions:
REMARK  status: ('A' for Active; 'I' for Inactive)
REMARK    1  A    between atoms: C_1  and  C_2
REMARK    2  A    between atoms: C_1  and  C_19
REMARK    3  A    between atoms: C_1  and  C_22
REMARK    4  A    between atoms: C_5  and  C_11
REMARK    5  A    between atoms: C_22  and  C_30
REMARK    6  A    between atoms: C_22  and  N_31
REMARK                            x       y       z     vdW  Elec       q    Type
REMARK                         _______ _______ _______ _____ _____    ______ ____
ROOT
ATOM      1  C   UNL     1      33.449 -24.143 -15.559  0.00  0.00    +0.088 C 
ENDROOT
BRANCH   1   2
ATOM      2  C   UNL     1      33.926 -23.247 -16.698  0.00  0.00    -0.015 C 
ATOM      3  C   UNL     1      35.225 -22.787 -16.681  0.00  0.00    -0.004 C 
ATOM      4  C   UNL     1      33.041 -22.927 -17.705  0.00  0.00    -0.004 C 
ATOM      5  C   UNL     1      34.787 -21.628 -18.755  0.00  0.00    +0.001 C 
ATOM      6  C   UNL     1      35.661 -21.968 -17.722  0.00  0.00    -0.000 C 
ATOM      7  C   UNL     1      33.477 -22.108 -18.747  0.00  0.00    -0.000 C 
BRANCH   5  11
ATOM      8  N   UNL     1      34.785 -19.559 -21.860  0.00  0.00    -0.170 N 
ATOM      9  N   UNL     1      34.057 -19.083 -22.903  0.00  0.00    -0.150 NA
ATOM     10  N   UNL     1      36.209 -18.329 -23.043  0.00  0.00    -0.206 NA
ATOM     11  C   UNL     1      35.247 -20.760 -19.856  0.00  0.00    +0.017 C 
ATOM     12  C   UNL     1      34.372 -20.385 -20.814  0.00  0.00    +0.091 C 
ATOM     13  C   UNL     1      36.622 -20.265 -19.961  0.00  0.00    +0.004 C 
ATOM     14  C   UNL     1      36.093 -19.081 -21.972  0.00  0.00    +0.157 C 
ATOM     15  C   UNL     1      37.022 -19.467 -20.968  0.00  0.00    +0.036 C 
ATOM     16  C   UNL     1      34.955 -18.362 -23.570  0.00  0.00    +0.219 C 
ENDBRANCH   5  11
ENDBRANCH   1   2
BRANCH   1  19
ATOM     17  O   UNL     1      32.268 -22.503 -14.253  0.00  0.00    -0.275 OA
ATOM     18  N   UNL     1      30.973 -24.232 -15.079  0.00  0.00    -0.276 N 
ATOM     19  C   UNL     1      32.181 -23.545 -14.914  0.00  0.00    +0.228 C 
ATOM     20  C   UNL     1      30.782 -25.464 -15.840  0.00  0.00    +0.115 C 
ATOM     21  C   UNL     1      29.786 -23.760 -14.374  0.00  0.00    +0.115 C 
ENDBRANCH   1  19
BRANCH   1  22
ATOM     22  C   UNL     1      34.580 -24.345 -14.515  0.00  0.00    +0.026 C 
BRANCH  22  30
ATOM     23  F   UNL     1      38.262 -25.976 -11.843  0.00  0.00    -0.235 F 
ATOM     24  O   UNL     1      35.403 -26.035 -15.978  0.00  0.00    -0.277 OA
ATOM     25  N   UNL     1      36.842 -25.261 -14.346  0.00  0.00    -0.278 N 
ATOM     26  C   UNL     1      37.181 -24.409 -13.206  0.00  0.00    +0.128 C 
ATOM     27  C   UNL     1      37.961 -26.119 -14.709  0.00  0.00    +0.096 C 
ATOM     28  C   UNL     1      38.509 -24.957 -12.712  0.00  0.00    +0.182 C 
ATOM     29  C   UNL     1      39.150 -25.530 -13.965  0.00  0.00    +0.059 C 
ATOM     30  C   UNL     1      35.638 -25.293 -15.023  0.00  0.00    +0.206 C 
ENDBRANCH  22  30
BRANCH  22  31
ATOM     31  N   UNL     1      35.302 -23.104 -14.230  0.00  0.00    +0.388 N 
ATOM     32  H   UNL     1      34.697 -22.307 -14.425  0.00  0.00    -0.089 HD
ATOM     33  H   UNL     1      36.133 -23.051 -14.818  0.00  0.00    -0.089 HD
ATOM     34  H   UNL     1      35.577 -23.090 -13.248  0.00  0.00    -0.089 HD
ENDBRANCH  22  31
ENDBRANCH   1  22
TORSDOF 6
ENDMDL
MODEL 7
REMARK VINA RESULT:      -9.3      2.043      2.566
REMARK  Name = 10320144
REMARK  6 active torsions:
REMARK  status: ('A' for Active; 'I' for Inactive)
REMARK    1  A    between atoms: C_1  and  C_2
REMARK    2  A    between atoms: C_1  and  C_19
REMARK    3  A    between atoms: C_1  and  C_22
REMARK    4  A    between atoms: C_5  and  C_11
REMARK    5  A    between atoms: C_22  and  C_30
REMARK    6  A    between atoms: C_22  and  N_31
REMARK                            x       y       z     vdW  Elec       q    Type
REMARK                         _______ _______ _______ _____ _____    ______ ____
ROOT
ATOM      1  C   UNL     1      32.697 -13.922 -23.979  0.00  0.00    +0.088 C 
ENDROOT
BRANCH   1   2
ATOM      2  C   UNL     1      33.266 -15.141 -23.259  0.00  0.00    -0.015 C 
ATOM      3  C   UNL     1      34.177 -15.937 -23.919  0.00  0.00    -0.004 C 
ATOM      4  C   UNL     1      32.849 -15.405 -21.972  0.00  0.00    -0.004 C 
ATOM      5  C   UNL     1      34.292 -17.342 -21.957  0.00  0.00    +0.001 C 
ATOM      6  C   UNL     1      34.696 -17.051 -23.260  0.00  0.00    -0.000 C 
ATOM      7  C   UNL     1      33.369 -16.519 -21.312  0.00  0.00    -0.000 C 
BRANCH   5  11
ATOM      8  N   UNL     1      34.495 -20.582 -20.117  0.00  0.00    -0.170 N 
ATOM      9  N   UNL     1      33.809 -21.615 -19.567  0.00  0.00    -0.150 NA
ATOM     10  N   UNL     1      36.054 -21.933 -19.290  0.00  0.00    -0.206 NA
ATOM     11  C   UNL     1      34.841 -18.521 -21.260  0.00  0.00    +0.017 C 
ATOM     12  C   UNL     1      33.996 -19.455 -20.773  0.00  0.00    +0.091 C 
ATOM     13  C   UNL     1      36.278 -18.743 -21.076  0.00  0.00    +0.004 C 
ATOM     14  C   UNL     1      35.862 -20.804 -19.934  0.00  0.00    +0.157 C 
ATOM     15  C   UNL     1      36.761 -19.829 -20.445  0.00  0.00    +0.036 C 
ATOM     16  C   UNL     1      34.786 -22.384 -19.091  0.00  0.00    +0.219 C 
ENDBRANCH   5  11
ENDBRANCH   1   2
BRANCH   1  19
ATOM     17  O   UNL     1      32.583 -15.109 -26.070  0.00  0.00    -0.275 OA
ATOM     18  N   UNL     1      33.514 -12.995 -26.179  0.00  0.00    -0.276 N 
ATOM     19  C   UNL     1      32.915 -14.062 -25.501  0.00  0.00    +0.228 C 
ATOM     20  C   UNL     1      33.935 -11.727 -25.587  0.00  0.00    +0.115 C 
ATOM     21  C   UNL     1      33.849 -13.150 -27.591  0.00  0.00    +0.115 C 
ENDBRANCH   1  19
BRANCH   1  22
ATOM     22  C   UNL     1      33.334 -12.618 -23.428  0.00  0.00    +0.026 C 
BRANCH  22  30
ATOM     23  F   UNL     1      31.849  -8.089 -24.225  0.00  0.00    -0.235 F 
ATOM     24  O   UNL     1      31.595 -12.488 -21.805  0.00  0.00    -0.277 OA
ATOM     25  N   UNL     1      32.449 -10.494 -22.598  0.00  0.00    -0.278 N 
ATOM     26  C   UNL     1      33.349  -9.706 -23.440  0.00  0.00    +0.128 C 
ATOM     27  C   UNL     1      31.589  -9.632 -21.801  0.00  0.00    +0.096 C 
ATOM     28  C   UNL     1      32.835  -8.283 -23.307  0.00  0.00    +0.182 C 
ATOM     29  C   UNL     1      32.219  -8.252 -21.917  0.00  0.00    +0.059 C 
ATOM     30  C   UNL     1      32.378 -11.873 -22.531  0.00  0.00    +0.206 C 
ENDBRANCH  22  30
BRANCH  22  31
ATOM     31  N   UNL     1      34.502 -12.882 -22.587  0.00  0.00    +0.388 N 
ATOM     32  H   UNL     1      34.440 -12.324 -21.735  0.00  0.00    -0.089 HD
ATOM     33  H   UNL     1      35.350 -12.632 -23.095  0.00  0.00    -0.089 HD
ATOM     34  H   UNL     1      34.529 -13.872 -22.344  0.00  0.00    -0.089 HD
ENDBRANCH  22  31
ENDBRANCH   1  22
TORSDOF 6
ENDMDL
MODEL 8
REMARK VINA RESULT:      -9.2      7.031     12.892
REMARK  Name = 10320144
REMARK  6 active torsions:
REMARK  status: ('A' for Active; 'I' for Inactive)
REMARK    1  A    between atoms: C_1  and  C_2
REMARK    2  A    between atoms: C_1  and  C_19
REMARK    3  A    between atoms: C_1  and  C_22
REMARK    4  A    between atoms: C_5  and  C_11
REMARK    5  A    between atoms: C_22  and  C_30
REMARK    6  A    between atoms: C_22  and  N_31
REMARK                            x       y       z     vdW  Elec       q    Type
REMARK                         _______ _______ _______ _____ _____    ______ ____
ROOT
ATOM      1  C   UNL     1      35.754 -22.918 -16.886  0.00  0.00    +0.088 C 
ENDROOT
BRANCH   1   2
ATOM      2  C   UNL     1      35.579 -22.019 -18.106  0.00  0.00    -0.015 C 
ATOM      3  C   UNL     1      36.686 -21.384 -18.627  0.00  0.00    -0.004 C 
ATOM      4  C   UNL     1      34.320 -21.872 -18.647  0.00  0.00    -0.004 C 
ATOM      5  C   UNL     1      35.262 -20.395 -20.310  0.00  0.00    +0.001 C 
ATOM      6  C   UNL     1      36.525 -20.562 -19.742  0.00  0.00    -0.000 C 
ATOM      7  C   UNL     1      34.159 -21.050 -19.762  0.00  0.00    -0.000 C 
BRANCH   5  11
ATOM      8  N   UNL     1      34.884 -17.344 -22.424  0.00  0.00    -0.170 N 
ATOM      9  N   UNL     1      34.809 -15.989 -22.452  0.00  0.00    -0.150 NA
ATOM     10  N   UNL     1      34.648 -16.825 -24.572  0.00  0.00    -0.206 NA
ATOM     11  C   UNL     1      35.092 -19.525 -21.489  0.00  0.00    +0.017 C 
ATOM     12  C   UNL     1      35.037 -18.186 -21.321  0.00  0.00    +0.091 C 
ATOM     13  C   UNL     1      34.990 -20.043 -22.856  0.00  0.00    +0.004 C 
ATOM     14  C   UNL     1      34.785 -17.825 -23.731  0.00  0.00    +0.157 C 
ATOM     15  C   UNL     1      34.844 -19.233 -23.921  0.00  0.00    +0.036 C 
ATOM     16  C   UNL     1      34.669 -15.739 -23.753  0.00  0.00    +0.219 C 
ENDBRANCH   5  11
ENDBRANCH   1   2
BRANCH   1  19
ATOM     17  O   UNL     1      33.425 -22.510 -16.438  0.00  0.00    -0.275 OA
ATOM     18  N   UNL     1      34.258 -24.504 -15.616  0.00  0.00    -0.276 N 
ATOM     19  C   UNL     1      34.374 -23.293 -16.305  0.00  0.00    +0.228 C 
ATOM     20  C   UNL     1      35.323 -25.483 -15.413  0.00  0.00    +0.115 C 
ATOM     21  C   UNL     1      33.001 -24.823 -14.947  0.00  0.00    +0.115 C 
ENDBRANCH   1  19
BRANCH   1  22
ATOM     22  C   UNL     1      36.652 -22.227 -15.825  0.00  0.00    +0.026 C 
BRANCH  22  30
ATOM     23  F   UNL     1      35.810 -25.233 -12.136  0.00  0.00    -0.235 F 
ATOM     24  O   UNL     1      38.620 -23.562 -15.955  0.00  0.00    -0.277 OA
ATOM     25  N   UNL     1      37.466 -23.577 -13.955  0.00  0.00    -0.278 N 
ATOM     26  C   UNL     1      36.366 -23.165 -13.084  0.00  0.00    +0.128 C 
ATOM     27  C   UNL     1      38.360 -24.499 -13.270  0.00  0.00    +0.096 C 
ATOM     28  C   UNL     1      36.484 -24.079 -11.876  0.00  0.00    +0.182 C 
ATOM     29  C   UNL     1      37.971 -24.388 -11.803  0.00  0.00    +0.059 C 
ATOM     30  C   UNL     1      37.676 -23.180 -15.262  0.00  0.00    +0.206 C 
ENDBRANCH  22  30
BRANCH  22  31
ATOM     31  N   UNL     1      37.439 -21.130 -16.391  0.00  0.00    +0.388 N 
ATOM     32  H   UNL     1      37.875 -20.600 -15.637  0.00  0.00    -0.089 HD
ATOM     33  H   UNL     1      36.827 -20.515 -16.928  0.00  0.00    -0.089 HD
ATOM     34  H   UNL     1      38.161 -21.510 -17.002  0.00  0.00    -0.089 HD
ENDBRANCH  22  31
ENDBRANCH   1  22
TORSDOF 6
ENDMDL
MODEL 9
REMARK VINA RESULT:      -9.2      3.527      9.631
REMARK  Name = 10320144
REMARK  6 active torsions:
REMARK  status: ('A' for Active; 'I' for Inactive)
REMARK    1  A    between atoms: C_1  and  C_2
REMARK    2  A    between atoms: C_1  and  C_19
REMARK    3  A    between atoms: C_1  and  C_22
REMARK    4  A    between atoms: C_5  and  C_11
REMARK    5  A    between atoms: C_22  and  C_30
REMARK    6  A    between atoms: C_22  and  N_31
REMARK                            x       y       z     vdW  Elec       q    Type
REMARK                         _______ _______ _______ _____ _____    ______ ____
ROOT
ATOM      1  C   UNL     1      33.242 -14.033 -23.319  0.00  0.00    +0.088 C 
ENDROOT
BRANCH   1   2
ATOM      2  C   UNL     1      32.901 -12.552 -23.182  0.00  0.00    -0.015 C 
ATOM      3  C   UNL     1      31.849 -12.186 -22.371  0.00  0.00    -0.004 C 
ATOM      4  C   UNL     1      33.659 -11.630 -23.872  0.00  0.00    -0.004 C 
ATOM      5  C   UNL     1      32.287  -9.877 -22.934  0.00  0.00    +0.001 C 
ATOM      6  C   UNL     1      31.538 -10.831 -22.246  0.00  0.00    -0.000 C 
ATOM      7  C   UNL     1      33.348 -10.276 -23.747  0.00  0.00    -0.000 C 
BRANCH   5  11
ATOM      8  N   UNL     1      31.343  -6.374 -23.804  0.00  0.00    -0.170 N 
ATOM      9  N   UNL     1      31.022  -5.501 -24.793  0.00  0.00    -0.150 NA
ATOM     10  N   UNL     1      30.975  -4.441 -22.769  0.00  0.00    -0.206 NA
ATOM     11  C   UNL     1      31.958  -8.445 -22.801  0.00  0.00    +0.017 C 
ATOM     12  C   UNL     1      31.664  -7.729 -23.908  0.00  0.00    +0.091 C 
ATOM     13  C   UNL     1      31.920  -7.750 -21.512  0.00  0.00    +0.004 C 
ATOM     14  C   UNL     1      31.304  -5.700 -22.581  0.00  0.00    +0.157 C 
ATOM     15  C   UNL     1      31.609  -6.444 -21.410  0.00  0.00    +0.036 C 
ATOM     16  C   UNL     1      30.816  -4.371 -24.119  0.00  0.00    +0.219 C 
ENDBRANCH   5  11
ENDBRANCH   1   2
BRANCH   1  19
ATOM     17  O   UNL     1      35.294 -14.112 -22.065  0.00  0.00    -0.275 OA
ATOM     18  N   UNL     1      33.543 -15.334 -21.179  0.00  0.00    -0.276 N 
ATOM     19  C   UNL     1      34.116 -14.485 -22.130  0.00  0.00    +0.228 C 
ATOM     20  C   UNL     1      32.165 -15.821 -21.179  0.00  0.00    +0.115 C 
ATOM     21  C   UNL     1      34.382 -15.880 -20.117  0.00  0.00    +0.115 C 
ENDBRANCH   1  19
BRANCH   1  22
ATOM     22  C   UNL     1      33.940 -14.306 -24.679  0.00  0.00    +0.026 C 
BRANCH  22  30
ATOM     23  F   UNL     1      34.462 -18.533 -22.394  0.00  0.00    -0.235 F 
ATOM     24  O   UNL     1      32.652 -15.692 -26.126  0.00  0.00    -0.277 OA
ATOM     25  N   UNL     1      34.171 -16.741 -24.738  0.00  0.00    -0.278 N 
ATOM     26  C   UNL     1      35.206 -16.741 -23.705  0.00  0.00    +0.128 C 
ATOM     27  C   UNL     1      33.877 -18.095 -25.186  0.00  0.00    +0.096 C 
ATOM     28  C   UNL     1      35.377 -18.208 -23.348  0.00  0.00    +0.182 C 
ATOM     29  C   UNL     1      35.019 -18.934 -24.635  0.00  0.00    +0.059 C 
ATOM     30  C   UNL     1      33.522 -15.635 -25.256  0.00  0.00    +0.206 C 
ENDBRANCH  22  30
BRANCH  22  31
ATOM     31  N   UNL     1      33.571 -13.326 -25.701  0.00  0.00    +0.388 N 
ATOM     32  H   UNL     1      33.963 -13.608 -26.599  0.00  0.00    -0.089 HD
ATOM     33  H   UNL     1      33.940 -12.410 -25.442  0.00  0.00    -0.089 HD
ATOM     34  H   UNL     1      32.555 -13.276 -25.773  0.00  0.00    -0.089 HD
ENDBRANCH  22  31
ENDBRANCH   1  22
TORSDOF 6
ENDMDL
