MODEL 1
REMARK VINA RESULT:      -7.5      0.000      0.000
REMARK  Name = 11675645
REMARK  3 active torsions:
REMARK  status: ('A' for Active; 'I' for Inactive)
REMARK    1  A    between atoms: N_2  and  C_19
REMARK    2  A    between atoms: C_4  and  C_26
REMARK    3  A    between atoms: C_7  and  C_12
REMARK                            x       y       z     vdW  Elec       q    Type
REMARK                         _______ _______ _______ _____ _____    ______ ____
ROOT
ATOM      1  O   UNL     1      36.700 -25.691 -16.059  0.00  0.00    -0.252 OA
ATOM      2  N   UNL     1      36.282 -25.362 -13.823  0.00  0.00    -0.264 N 
ATOM      3  N   UNL     1      34.922 -24.341 -15.519  0.00  0.00    -0.254 N 
ATOM      4  C   UNL     1      34.750 -23.868 -16.901  0.00  0.00    +0.122 C 
ATOM      5  C   UNL     1      33.699 -24.136 -14.735  0.00  0.00    +0.122 C 
ATOM      6  C   UNL     1      36.011 -25.153 -15.181  0.00  0.00    +0.308 C 
ATOM      7  C   UNL     1      32.706 -23.643 -15.749  0.00  0.00    -0.002 C 
ATOM      8  C   UNL     1      33.301 -23.488 -16.940  0.00  0.00    -0.005 C 
ATOM      9  C   UNL     1      37.066 -26.525 -13.430  0.00  0.00    +0.116 C 
ENDROOT
BRANCH   7  12
ATOM     10  F   UNL     1      31.608 -24.174 -13.192  0.00  0.00    -0.204 F 
ATOM     11  F   UNL     1      28.280 -22.055 -16.980  0.00  0.00    -0.204 F 
ATOM     12  C   UNL     1      31.296 -23.375 -15.410  0.00  0.00    +0.027 C 
ATOM     13  C   UNL     1      30.802 -23.655 -14.130  0.00  0.00    +0.140 C 
ATOM     14  C   UNL     1      30.432 -22.831 -16.370  0.00  0.00    +0.032 C 
ATOM     15  C   UNL     1      29.098 -22.574 -16.056  0.00  0.00    +0.140 C 
ATOM     16  C   UNL     1      29.467 -23.397 -13.814  0.00  0.00    +0.032 C 
ATOM     17  C   UNL     1      28.615 -22.857 -14.778  0.00  0.00    +0.032 C 
ENDBRANCH   7  12
BRANCH   2  19
ATOM     18  N   UNL     1      36.643 -23.329 -10.130  0.00  0.00    +0.384 N 
ATOM     19  C   UNL     1      36.022 -24.407 -12.774  0.00  0.00    +0.073 C 
ATOM     20  C   UNL     1      35.604 -25.116 -11.484  0.00  0.00    -0.004 C 
ATOM     21  C   UNL     1      37.244 -23.523 -12.520  0.00  0.00    -0.004 C 
ATOM     22  C   UNL     1      35.431 -24.122 -10.337  0.00  0.00    -0.080 C 
ATOM     23  C   UNL     1      37.011 -22.586 -11.335  0.00  0.00    -0.080 C 
ATOM     24  H   UNL     1      37.409 -23.953  -9.878  0.00  0.00    -0.085 HD
ATOM     25  H   UNL     1      36.462 -22.657  -9.383  0.00  0.00    -0.085 HD
ENDBRANCH   2  19
BRANCH   4  26
ATOM     26  C   UNL     1      35.679 -22.728 -17.259  0.00  0.00    -0.000 C 
ATOM     27  C   UNL     1      35.623 -22.157 -18.531  0.00  0.00    -0.002 C 
ATOM     28  C   UNL     1      36.589 -22.248 -16.319  0.00  0.00    -0.002 C 
ATOM     29  C   UNL     1      36.478 -21.106 -18.861  0.00  0.00    -0.000 C 
ATOM     30  C   UNL     1      37.445 -21.197 -16.650  0.00  0.00    -0.000 C 
ATOM     31  C   UNL     1      37.389 -20.626 -17.921  0.00  0.00    -0.000 C 
ENDBRANCH   4  26
TORSDOF 3
ENDMDL
MODEL 2
REMARK VINA RESULT:      -6.5      2.045      5.196
REMARK  Name = 11675645
REMARK  3 active torsions:
REMARK  status: ('A' for Active; 'I' for Inactive)
REMARK    1  A    between atoms: N_2  and  C_19
REMARK    2  A    between atoms: C_4  and  C_26
REMARK    3  A    between atoms: C_7  and  C_12
REMARK                            x       y       z     vdW  Elec       q    Type
REMARK                         _______ _______ _______ _____ _____    ______ ____
ROOT
ATOM      1  O   UNL     1      37.591 -21.911 -14.760  0.00  0.00    -0.252 OA
ATOM      2  N   UNL     1      36.742 -21.489 -16.854  0.00  0.00    -0.264 N 
ATOM      3  N   UNL     1      35.636 -22.974 -15.326  0.00  0.00    -0.254 N 
ATOM      4  C   UNL     1      35.680 -23.865 -14.157  0.00  0.00    +0.122 C 
ATOM      5  C   UNL     1      34.276 -22.887 -15.871  0.00  0.00    +0.122 C 
ATOM      6  C   UNL     1      36.710 -22.121 -15.605  0.00  0.00    +0.308 C 
ATOM      7  C   UNL     1      33.448 -23.660 -14.885  0.00  0.00    -0.002 C 
ATOM      8  C   UNL     1      34.237 -24.206 -13.948  0.00  0.00    -0.005 C 
ATOM      9  C   UNL     1      37.538 -20.278 -17.012  0.00  0.00    +0.116 C 
ENDROOT
BRANCH   7  12
ATOM     10  F   UNL     1      31.921 -25.487 -13.351  0.00  0.00    -0.204 F 
ATOM     11  F   UNL     1      29.231 -22.272 -16.865  0.00  0.00    -0.204 F 
ATOM     12  C   UNL     1      31.982 -23.773 -14.999  0.00  0.00    +0.027 C 
ATOM     13  C   UNL     1      31.272 -24.694 -14.217  0.00  0.00    +0.140 C 
ATOM     14  C   UNL     1      31.279 -22.956 -15.894  0.00  0.00    +0.032 C 
ATOM     15  C   UNL     1      29.893 -23.057 -16.007  0.00  0.00    +0.140 C 
ATOM     16  C   UNL     1      29.885 -24.795 -14.328  0.00  0.00    +0.032 C 
ATOM     17  C   UNL     1      29.196 -23.978 -15.224  0.00  0.00    +0.032 C 
ENDBRANCH   7  12
BRANCH   2  19
ATOM     18  N   UNL     1      34.629 -21.743 -20.511  0.00  0.00    +0.384 N 
ATOM     19  C   UNL     1      36.214 -22.045 -18.074  0.00  0.00    +0.073 C 
ATOM     20  C   UNL     1      34.685 -22.040 -18.058  0.00  0.00    -0.004 C 
ATOM     21  C   UNL     1      36.733 -21.286 -19.296  0.00  0.00    -0.004 C 
ATOM     22  C   UNL     1      34.115 -22.528 -19.389  0.00  0.00    -0.080 C 
ATOM     23  C   UNL     1      36.089 -21.802 -20.583  0.00  0.00    -0.080 C 
ATOM     24  H   UNL     1      34.342 -20.771 -20.396  0.00  0.00    -0.085 HD
ATOM     25  H   UNL     1      34.251 -22.133 -21.374  0.00  0.00    -0.085 HD
ENDBRANCH   2  19
BRANCH   4  26
ATOM     26  C   UNL     1      36.558 -25.080 -14.369  0.00  0.00    -0.000 C 
ATOM     27  C   UNL     1      37.780 -25.183 -13.702  0.00  0.00    -0.002 C 
ATOM     28  C   UNL     1      36.147 -26.096 -15.230  0.00  0.00    -0.002 C 
ATOM     29  C   UNL     1      38.588 -26.302 -13.897  0.00  0.00    -0.000 C 
ATOM     30  C   UNL     1      36.956 -27.216 -15.425  0.00  0.00    -0.000 C 
ATOM     31  C   UNL     1      38.176 -27.318 -14.758  0.00  0.00    -0.000 C 
ENDBRANCH   4  26
TORSDOF 3
ENDMDL
MODEL 3
REMARK VINA RESULT:      -5.2     11.234     14.005
REMARK  Name = 11675645
REMARK  3 active torsions:
REMARK  status: ('A' for Active; 'I' for Inactive)
REMARK    1  A    between atoms: N_2  and  C_19
REMARK    2  A    between atoms: C_4  and  C_26
REMARK    3  A    between atoms: C_7  and  C_12
REMARK                            x       y       z     vdW  Elec       q    Type
REMARK                         _______ _______ _______ _____ _____    ______ ____
ROOT
ATOM      1  O   UNL     1      32.617 -14.250 -26.511  0.00  0.00    -0.252 OA
ATOM      2  N   UNL     1      33.411 -15.576 -24.810  0.00  0.00    -0.264 N 
ATOM      3  N   UNL     1      33.030 -13.226 -24.497  0.00  0.00    -0.254 N 
ATOM      4  C   UNL     1      32.880 -11.874 -25.056  0.00  0.00    +0.122 C 
ATOM      5  C   UNL     1      32.860 -13.216 -23.040  0.00  0.00    +0.122 C 
ATOM      6  C   UNL     1      33.007 -14.344 -25.339  0.00  0.00    +0.308 C 
ATOM      7  C   UNL     1      32.450 -11.803 -22.739  0.00  0.00    -0.002 C 
ATOM      8  C   UNL     1      32.476 -11.067 -23.860  0.00  0.00    -0.005 C 
ATOM      9  C   UNL     1      32.973 -16.803 -25.463  0.00  0.00    +0.116 C 
ENDROOT
BRANCH   7  12
ATOM     10  F   UNL     1      32.010 -13.595 -20.590  0.00  0.00    -0.204 F 
ATOM     11  F   UNL     1      31.509  -8.246 -19.563  0.00  0.00    -0.204 F 
ATOM     12  C   UNL     1      32.097 -11.353 -21.380  0.00  0.00    +0.027 C 
ATOM     13  C   UNL     1      31.890 -12.280 -20.351  0.00  0.00    +0.140 C 
ATOM     14  C   UNL     1      31.965  -9.986 -21.102  0.00  0.00    +0.032 C 
ATOM     15  C   UNL     1      31.633  -9.554 -19.819  0.00  0.00    +0.140 C 
ATOM     16  C   UNL     1      31.558 -11.849 -19.066  0.00  0.00    +0.032 C 
ATOM     17  C   UNL     1      31.428 -10.486 -18.801  0.00  0.00    +0.032 C 
ENDBRANCH   7  12
BRANCH   2  19
ATOM     18  N   UNL     1      35.435 -17.237 -21.487  0.00  0.00    +0.384 N 
ATOM     19  C   UNL     1      34.402 -15.746 -23.777  0.00  0.00    +0.073 C 
ATOM     20  C   UNL     1      33.765 -15.655 -22.390  0.00  0.00    -0.004 C 
ATOM     21  C   UNL     1      35.141 -17.076 -23.935  0.00  0.00    -0.004 C 
ATOM     22  C   UNL     1      34.787 -15.940 -21.291  0.00  0.00    -0.080 C 
ATOM     23  C   UNL     1      36.114 -17.309 -22.781  0.00  0.00    -0.080 C 
ATOM     24  H   UNL     1      34.729 -17.971 -21.442  0.00  0.00    -0.085 HD
ATOM     25  H   UNL     1      36.133 -17.360 -20.752  0.00  0.00    -0.085 HD
ENDBRANCH   2  19
BRANCH   4  26
ATOM     26  C   UNL     1      34.139 -11.364 -25.725  0.00  0.00    -0.000 C 
ATOM     27  C   UNL     1      34.499 -11.840 -26.986  0.00  0.00    -0.002 C 
ATOM     28  C   UNL     1      34.938 -10.421 -25.081  0.00  0.00    -0.002 C 
ATOM     29  C   UNL     1      35.659 -11.370 -27.603  0.00  0.00    -0.000 C 
ATOM     30  C   UNL     1      36.098  -9.951 -25.698  0.00  0.00    -0.000 C 
ATOM     31  C   UNL     1      36.458 -10.426 -26.959  0.00  0.00    -0.000 C 
ENDBRANCH   4  26
TORSDOF 3
ENDMDL
