MODEL 1
REMARK VINA RESULT:      -9.7      0.000      0.000
REMARK  Name = 124716
REMARK  8 active torsions:
REMARK  status: ('A' for Active; 'I' for Inactive)
REMARK    1  A    between atoms: N_1  and  C_22
REMARK    2  A    between atoms: C_2  and  N_9
REMARK    3  A    between atoms: C_2  and  C_19
REMARK    4  A    between atoms: N_9  and  C_11
REMARK    5  A    between atoms: C_10  and  C_17
REMARK    6  A    between atoms: C_19  and  O_20
REMARK    7  A    between atoms: C_22  and  C_23
REMARK    8  A    between atoms: C_23  and  C_24
REMARK                            x       y       z     vdW  Elec       q    Type
REMARK                         _______ _______ _______ _____ _____    ______ ____
ROOT
ATOM      1  N   UNL     1      34.447 -15.466 -21.253  0.00  0.00    +0.387 N 
ATOM      2  C   UNL     1      33.066 -13.503 -22.990  0.00  0.00    +0.088 C 
ATOM      3  C   UNL     1      34.569 -13.828 -23.104  0.00  0.00    -0.002 C 
ATOM      4  C   UNL     1      32.584 -13.869 -21.573  0.00  0.00    -0.002 C 
ATOM      5  C   UNL     1      34.914 -15.242 -22.627  0.00  0.00    -0.076 C 
ATOM      6  C   UNL     1      32.994 -15.281 -21.147  0.00  0.00    -0.076 C 
ATOM      7  H   UNL     1      34.894 -14.774 -20.654  0.00  0.00    -0.080 HD
ENDROOT
BRANCH   2   9
ATOM      8  O   UNL     1      31.060 -11.787 -21.718  0.00  0.00    -0.275 OA
ATOM      9  N   UNL     1      32.870 -12.078 -23.206  0.00  0.00    -0.260 N 
ATOM     10  C   UNL     1      31.862 -11.332 -22.537  0.00  0.00    +0.229 C 
BRANCH   9  11
ATOM     11  C   UNL     1      33.741 -11.389 -24.148  0.00  0.00    +0.054 C 
ATOM     12  C   UNL     1      34.432 -10.245 -23.749  0.00  0.00    +0.015 C 
ATOM     13  C   UNL     1      33.883 -11.872 -25.449  0.00  0.00    +0.015 C 
ATOM     14  C   UNL     1      35.266  -9.584 -24.650  0.00  0.00    +0.001 C 
ATOM     15  C   UNL     1      34.718 -11.210 -26.350  0.00  0.00    +0.001 C 
ATOM     16  C   UNL     1      35.409 -10.066 -25.951  0.00  0.00    +0.000 C 
ENDBRANCH   9  11
BRANCH  10  17
ATOM     17  C   UNL     1      31.776  -9.858 -22.925  0.00  0.00    +0.086 C 
ATOM     18  C   UNL     1      31.836  -8.928 -21.721  0.00  0.00    +0.010 C 
ENDBRANCH  10  17
ENDBRANCH   2   9
BRANCH   2  19
ATOM     19  C   UNL     1      32.258 -14.257 -24.058  0.00  0.00    +0.160 C 
BRANCH  19  20
ATOM     20  O   UNL     1      33.154 -15.033 -24.827  0.00  0.00    -0.349 OA
ATOM     21  C   UNL     1      32.847 -14.976 -26.216  0.00  0.00    +0.174 C 
ENDBRANCH  19  20
ENDBRANCH   2  19
BRANCH   1  22
ATOM     22  C   UNL     1      34.829 -16.802 -20.793  0.00  0.00    -0.073 C 
BRANCH  22  23
ATOM     23  C   UNL     1      34.141 -17.884 -21.626  0.00  0.00    +0.004 C 
BRANCH  23  24
ATOM     24  C   UNL     1      34.170 -19.220 -20.927  0.00  0.00    -0.024 C 
ATOM     25  C   UNL     1      35.389 -19.849 -20.675  0.00  0.00    -0.004 C 
ATOM     26  C   UNL     1      32.978 -19.828 -20.534  0.00  0.00    -0.004 C 
ATOM     27  C   UNL     1      35.416 -21.084 -20.028  0.00  0.00    -0.000 C 
ATOM     28  C   UNL     1      33.005 -21.064 -19.888  0.00  0.00    -0.000 C 
ATOM     29  C   UNL     1      34.225 -21.692 -19.635  0.00  0.00    -0.000 C 
ENDBRANCH  23  24
ENDBRANCH  22  23
ENDBRANCH   1  22
TORSDOF 8
ENDMDL
MODEL 2
REMARK VINA RESULT:      -9.5      7.173     13.128
REMARK  Name = 124716
REMARK  8 active torsions:
REMARK  status: ('A' for Active; 'I' for Inactive)
REMARK    1  A    between atoms: N_1  and  C_22
REMARK    2  A    between atoms: C_2  and  N_9
REMARK    3  A    between atoms: C_2  and  C_19
REMARK    4  A    between atoms: N_9  and  C_11
REMARK    5  A    between atoms: C_10  and  C_17
REMARK    6  A    between atoms: C_19  and  O_20
REMARK    7  A    between atoms: C_22  and  C_23
REMARK    8  A    between atoms: C_23  and  C_24
REMARK                            x       y       z     vdW  Elec       q    Type
REMARK                         _______ _______ _______ _____ _____    ______ ____
ROOT
ATOM      1  N   UNL     1      36.189 -21.853 -17.445  0.00  0.00    +0.387 N 
ATOM      2  C   UNL     1      35.405 -23.746 -15.305  0.00  0.00    +0.088 C 
ATOM      3  C   UNL     1      34.404 -23.130 -16.302  0.00  0.00    -0.002 C 
ATOM      4  C   UNL     1      36.647 -22.838 -15.221  0.00  0.00    -0.002 C 
ATOM      5  C   UNL     1      35.046 -22.754 -17.640  0.00  0.00    -0.076 C 
ATOM      6  C   UNL     1      37.215 -22.471 -16.595  0.00  0.00    -0.076 C 
ATOM      7  H   UNL     1      35.852 -21.018 -16.969  0.00  0.00    -0.080 HD
ENDROOT
BRANCH   2   9
ATOM      8  O   UNL     1      36.764 -23.772 -12.709  0.00  0.00    -0.275 OA
ATOM      9  N   UNL     1      34.783 -23.824 -13.992  0.00  0.00    -0.260 N 
ATOM     10  C   UNL     1      35.535 -23.831 -12.785  0.00  0.00    +0.229 C 
BRANCH   9  11
ATOM     11  C   UNL     1      33.331 -23.899 -13.911  0.00  0.00    +0.054 C 
ATOM     12  C   UNL     1      32.568 -22.734 -13.988  0.00  0.00    +0.015 C 
ATOM     13  C   UNL     1      32.704 -25.135 -13.757  0.00  0.00    +0.015 C 
ATOM     14  C   UNL     1      31.177 -22.805 -13.911  0.00  0.00    +0.001 C 
ATOM     15  C   UNL     1      31.313 -25.206 -13.679  0.00  0.00    +0.001 C 
ATOM     16  C   UNL     1      30.550 -24.041 -13.756  0.00  0.00    +0.000 C 
ENDBRANCH   9  11
BRANCH  10  17
ATOM     17  C   UNL     1      34.713 -23.964 -11.506  0.00  0.00    +0.086 C 
ATOM     18  C   UNL     1      35.527 -24.498 -10.336  0.00  0.00    +0.010 C 
ENDBRANCH  10  17
ENDBRANCH   2   9
BRANCH   2  19
ATOM     19  C   UNL     1      35.795 -25.172 -15.727  0.00  0.00    +0.160 C 
BRANCH  19  20
ATOM     20  O   UNL     1      37.138 -25.394 -15.347  0.00  0.00    -0.349 OA
ATOM     21  C   UNL     1      37.313 -26.671 -14.742  0.00  0.00    +0.174 C 
ENDBRANCH  19  20
ENDBRANCH   2  19
BRANCH   1  22
ATOM     22  C   UNL     1      36.759 -21.462 -18.734  0.00  0.00    -0.073 C 
BRANCH  22  23
ATOM     23  C   UNL     1      35.760 -21.697 -19.867  0.00  0.00    +0.004 C 
BRANCH  23  24
ATOM     24  C   UNL     1      35.223 -20.397 -20.410  0.00  0.00    -0.024 C 
ATOM     25  C   UNL     1      33.846 -20.199 -20.510  0.00  0.00    -0.004 C 
ATOM     26  C   UNL     1      36.102 -19.392 -20.812  0.00  0.00    -0.004 C 
ATOM     27  C   UNL     1      33.349 -18.996 -21.012  0.00  0.00    -0.000 C 
ATOM     28  C   UNL     1      35.605 -18.189 -21.314  0.00  0.00    -0.000 C 
ATOM     29  C   UNL     1      34.228 -17.991 -21.413  0.00  0.00    -0.000 C 
ENDBRANCH  23  24
ENDBRANCH  22  23
ENDBRANCH   1  22
TORSDOF 8
ENDMDL
MODEL 3
REMARK VINA RESULT:      -9.4      1.441      3.100
REMARK  Name = 124716
REMARK  8 active torsions:
REMARK  status: ('A' for Active; 'I' for Inactive)
REMARK    1  A    between atoms: N_1  and  C_22
REMARK    2  A    between atoms: C_2  and  N_9
REMARK    3  A    between atoms: C_2  and  C_19
REMARK    4  A    between atoms: N_9  and  C_11
REMARK    5  A    between atoms: C_10  and  C_17
REMARK    6  A    between atoms: C_19  and  O_20
REMARK    7  A    between atoms: C_22  and  C_23
REMARK    8  A    between atoms: C_23  and  C_24
REMARK                            x       y       z     vdW  Elec       q    Type
REMARK                         _______ _______ _______ _____ _____    ______ ____
ROOT
ATOM      1  N   UNL     1      34.509 -16.301 -21.799  0.00  0.00    +0.387 N 
ATOM      2  C   UNL     1      33.167 -13.991 -23.079  0.00  0.00    +0.088 C 
ATOM      3  C   UNL     1      34.667 -14.301 -23.248  0.00  0.00    -0.002 C 
ATOM      4  C   UNL     1      32.666 -14.650 -21.780  0.00  0.00    -0.002 C 
ATOM      5  C   UNL     1      34.993 -15.789 -23.087  0.00  0.00    -0.076 C 
ATOM      6  C   UNL     1      33.057 -16.126 -21.667  0.00  0.00    -0.076 C 
ATOM      7  H   UNL     1      34.957 -15.760 -21.059  0.00  0.00    -0.080 HD
ENDROOT
BRANCH   2   9
ATOM      8  O   UNL     1      34.263 -11.951 -24.875  0.00  0.00    -0.275 OA
ATOM      9  N   UNL     1      32.987 -12.551 -22.981  0.00  0.00    -0.260 N 
ATOM     10  C   UNL     1      33.564 -11.639 -23.907  0.00  0.00    +0.229 C 
BRANCH   9  11
ATOM     11  C   UNL     1      32.183 -12.021 -21.888  0.00  0.00    +0.054 C 
ATOM     12  C   UNL     1      32.649 -12.105 -20.576  0.00  0.00    +0.015 C 
ATOM     13  C   UNL     1      30.948 -11.429 -22.154  0.00  0.00    +0.015 C 
ATOM     14  C   UNL     1      31.880 -11.598 -19.530  0.00  0.00    +0.001 C 
ATOM     15  C   UNL     1      30.179 -10.922 -21.106  0.00  0.00    +0.001 C 
ATOM     16  C   UNL     1      30.645 -11.006 -19.794  0.00  0.00    +0.000 C 
ENDBRANCH   9  11
BRANCH  10  17
ATOM     17  C   UNL     1      33.304 -10.163 -23.618  0.00  0.00    +0.086 C 
ATOM     18  C   UNL     1      34.486  -9.276 -23.980  0.00  0.00    +0.010 C 
ENDBRANCH  10  17
ENDBRANCH   2   9
BRANCH   2  19
ATOM     19  C   UNL     1      32.362 -14.485 -24.292  0.00  0.00    +0.160 C 
BRANCH  19  20
ATOM     20  O   UNL     1      33.267 -15.026 -25.233  0.00  0.00    -0.349 OA
ATOM     21  C   UNL     1      32.910 -14.684 -26.568  0.00  0.00    +0.174 C 
ENDBRANCH  19  20
ENDBRANCH   2  19
BRANCH   1  22
ATOM     22  C   UNL     1      34.873 -17.708 -21.638  0.00  0.00    -0.073 C 
BRANCH  22  23
ATOM     23  C   UNL     1      33.658 -18.545 -21.237  0.00  0.00    +0.004 C 
BRANCH  23  24
ATOM     24  C   UNL     1      34.069 -19.827 -20.558  0.00  0.00    -0.024 C 
ATOM     25  C   UNL     1      33.104 -20.646 -19.971  0.00  0.00    -0.004 C 
ATOM     26  C   UNL     1      35.413 -20.195 -20.516  0.00  0.00    -0.004 C 
ATOM     27  C   UNL     1      33.484 -21.832 -19.343  0.00  0.00    -0.000 C 
ATOM     28  C   UNL     1      35.793 -21.382 -19.888  0.00  0.00    -0.000 C 
ATOM     29  C   UNL     1      34.828 -22.200 -19.302  0.00  0.00    -0.000 C 
ENDBRANCH  23  24
ENDBRANCH  22  23
ENDBRANCH   1  22
TORSDOF 8
ENDMDL
MODEL 4
REMARK VINA RESULT:      -9.0      1.183      2.079
REMARK  Name = 124716
REMARK  8 active torsions:
REMARK  status: ('A' for Active; 'I' for Inactive)
REMARK    1  A    between atoms: N_1  and  C_22
REMARK    2  A    between atoms: C_2  and  N_9
REMARK    3  A    between atoms: C_2  and  C_19
REMARK    4  A    between atoms: N_9  and  C_11
REMARK    5  A    between atoms: C_10  and  C_17
REMARK    6  A    between atoms: C_19  and  O_20
REMARK    7  A    between atoms: C_22  and  C_23
REMARK    8  A    between atoms: C_23  and  C_24
REMARK                            x       y       z     vdW  Elec       q    Type
REMARK                         _______ _______ _______ _____ _____    ______ ____
ROOT
ATOM      1  N   UNL     1      34.831 -15.950 -23.583  0.00  0.00    +0.387 N 
ATOM      2  C   UNL     1      33.169 -13.572 -22.986  0.00  0.00    +0.088 C 
ATOM      3  C   UNL     1      33.069 -14.368 -24.302  0.00  0.00    -0.002 C 
ATOM      4  C   UNL     1      34.555 -13.817 -22.360  0.00  0.00    -0.002 C 
ATOM      5  C   UNL     1      33.480 -15.835 -24.147  0.00  0.00    -0.076 C 
ATOM      6  C   UNL     1      34.916 -15.302 -22.268  0.00  0.00    -0.076 C 
ATOM      7  H   UNL     1      35.474 -15.470 -24.211  0.00  0.00    -0.080 HD
ENDROOT
BRANCH   2   9
ATOM      8  O   UNL     1      31.334 -11.688 -21.693  0.00  0.00    -0.275 OA
ATOM      9  N   UNL     1      33.023 -12.154 -23.276  0.00  0.00    -0.260 N 
ATOM     10  C   UNL     1      32.098 -11.321 -22.589  0.00  0.00    +0.229 C 
BRANCH   9  11
ATOM     11  C   UNL     1      33.857 -11.564 -24.314  0.00  0.00    +0.054 C 
ATOM     12  C   UNL     1      34.658 -10.460 -24.020  0.00  0.00    +0.015 C 
ATOM     13  C   UNL     1      33.854 -12.102 -25.601  0.00  0.00    +0.015 C 
ATOM     14  C   UNL     1      35.458  -9.896 -25.013  0.00  0.00    +0.001 C 
ATOM     15  C   UNL     1      34.654 -11.536 -26.593  0.00  0.00    +0.001 C 
ATOM     16  C   UNL     1      35.456 -10.433 -26.300  0.00  0.00    +0.000 C 
ENDBRANCH   9  11
BRANCH  10  17
ATOM     17  C   UNL     1      32.052  -9.869 -23.060  0.00  0.00    +0.086 C 
ATOM     18  C   UNL     1      32.014  -8.877 -21.907  0.00  0.00    +0.010 C 
ENDBRANCH  10  17
ENDBRANCH   2   9
BRANCH   2  19
ATOM     19  C   UNL     1      32.047 -13.972 -22.014  0.00  0.00    +0.160 C 
BRANCH  19  20
ATOM     20  O   UNL     1      32.640 -14.382 -20.799  0.00  0.00    -0.349 OA
ATOM     21  C   UNL     1      32.085 -15.603 -20.324  0.00  0.00    +0.174 C 
ENDBRANCH  19  20
ENDBRANCH   2  19
BRANCH   1  22
ATOM     22  C   UNL     1      35.228 -17.355 -23.489  0.00  0.00    -0.073 C 
BRANCH  22  23
ATOM     23  C   UNL     1      35.858 -17.656 -22.129  0.00  0.00    +0.004 C 
BRANCH  23  24
ATOM     24  C   UNL     1      35.121 -18.758 -21.410  0.00  0.00    -0.024 C 
ATOM     25  C   UNL     1      33.726 -18.768 -21.392  0.00  0.00    -0.004 C 
ATOM     26  C   UNL     1      35.833 -19.767 -20.763  0.00  0.00    -0.004 C 
ATOM     27  C   UNL     1      33.044 -19.787 -20.728  0.00  0.00    -0.000 C 
ATOM     28  C   UNL     1      35.151 -20.787 -20.098  0.00  0.00    -0.000 C 
ATOM     29  C   UNL     1      33.756 -20.796 -20.081  0.00  0.00    -0.000 C 
ENDBRANCH  23  24
ENDBRANCH  22  23
ENDBRANCH   1  22
TORSDOF 8
ENDMDL
MODEL 5
REMARK VINA RESULT:      -8.8      1.252      2.931
REMARK  Name = 124716
REMARK  8 active torsions:
REMARK  status: ('A' for Active; 'I' for Inactive)
REMARK    1  A    between atoms: N_1  and  C_22
REMARK    2  A    between atoms: C_2  and  N_9
REMARK    3  A    between atoms: C_2  and  C_19
REMARK    4  A    between atoms: N_9  and  C_11
REMARK    5  A    between atoms: C_10  and  C_17
REMARK    6  A    between atoms: C_19  and  O_20
REMARK    7  A    between atoms: C_22  and  C_23
REMARK    8  A    between atoms: C_23  and  C_24
REMARK                            x       y       z     vdW  Elec       q    Type
REMARK                         _______ _______ _______ _____ _____    ______ ____
ROOT
ATOM      1  N   UNL     1      34.918 -16.127 -21.853  0.00  0.00    +0.387 N 
ATOM      2  C   UNL     1      33.362 -13.977 -23.170  0.00  0.00    +0.088 C 
ATOM      3  C   UNL     1      33.389 -15.434 -23.671  0.00  0.00    -0.002 C 
ATOM      4  C   UNL     1      34.628 -13.716 -22.330  0.00  0.00    -0.002 C 
ATOM      5  C   UNL     1      33.669 -16.446 -22.556  0.00  0.00    -0.076 C 
ATOM      6  C   UNL     1      34.867 -14.784 -21.260  0.00  0.00    -0.076 C 
ATOM      7  H   UNL     1      35.674 -16.138 -22.536  0.00  0.00    -0.080 HD
ENDROOT
BRANCH   2   9
ATOM      8  O   UNL     1      32.916 -14.699 -25.974  0.00  0.00    -0.275 OA
ATOM      9  N   UNL     1      33.359 -13.079 -24.315  0.00  0.00    -0.260 N 
ATOM     10  C   UNL     1      33.132 -13.530 -25.644  0.00  0.00    +0.229 C 
BRANCH   9  11
ATOM     11  C   UNL     1      33.599 -11.660 -24.090  0.00  0.00    +0.054 C 
ATOM     12  C   UNL     1      32.666 -10.898 -23.387  0.00  0.00    +0.015 C 
ATOM     13  C   UNL     1      34.762 -11.064 -24.579  0.00  0.00    +0.015 C 
ATOM     14  C   UNL     1      32.896  -9.540 -23.171  0.00  0.00    +0.001 C 
ATOM     15  C   UNL     1      34.990  -9.705 -24.363  0.00  0.00    +0.001 C 
ATOM     16  C   UNL     1      34.058  -8.943 -23.659  0.00  0.00    +0.000 C 
ENDBRANCH   9  11
BRANCH  10  17
ATOM     17  C   UNL     1      33.211 -12.452 -26.721  0.00  0.00    +0.086 C 
ATOM     18  C   UNL     1      34.422 -12.614 -27.628  0.00  0.00    +0.010 C 
ENDBRANCH  10  17
ENDBRANCH   2   9
BRANCH   2  19
ATOM     19  C   UNL     1      32.092 -13.699 -22.349  0.00  0.00    +0.160 C 
BRANCH  19  20
ATOM     20  O   UNL     1      32.479 -13.381 -21.028  0.00  0.00    -0.349 OA
ATOM     21  C   UNL     1      31.709 -12.310 -20.494  0.00  0.00    +0.174 C 
ENDBRANCH  19  20
ENDBRANCH   2  19
BRANCH   1  22
ATOM     22  C   UNL     1      35.198 -17.131 -20.826  0.00  0.00    -0.073 C 
BRANCH  22  23
ATOM     23  C   UNL     1      35.602 -18.462 -21.460  0.00  0.00    +0.004 C 
BRANCH  23  24
ATOM     24  C   UNL     1      34.960 -19.629 -20.751  0.00  0.00    -0.024 C 
ATOM     25  C   UNL     1      35.755 -20.579 -20.111  0.00  0.00    -0.004 C 
ATOM     26  C   UNL     1      33.572 -19.758 -20.735  0.00  0.00    -0.004 C 
ATOM     27  C   UNL     1      35.162 -21.658 -19.455  0.00  0.00    -0.000 C 
ATOM     28  C   UNL     1      32.978 -20.837 -20.079  0.00  0.00    -0.000 C 
ATOM     29  C   UNL     1      33.774 -21.787 -19.440  0.00  0.00    -0.000 C 
ENDBRANCH  23  24
ENDBRANCH  22  23
ENDBRANCH   1  22
TORSDOF 8
ENDMDL
MODEL 6
REMARK VINA RESULT:      -8.6      1.754      3.568
REMARK  Name = 124716
REMARK  8 active torsions:
REMARK  status: ('A' for Active; 'I' for Inactive)
REMARK    1  A    between atoms: N_1  and  C_22
REMARK    2  A    between atoms: C_2  and  N_9
REMARK    3  A    between atoms: C_2  and  C_19
REMARK    4  A    between atoms: N_9  and  C_11
REMARK    5  A    between atoms: C_10  and  C_17
REMARK    6  A    between atoms: C_19  and  O_20
REMARK    7  A    between atoms: C_22  and  C_23
REMARK    8  A    between atoms: C_23  and  C_24
REMARK                            x       y       z     vdW  Elec       q    Type
REMARK                         _______ _______ _______ _____ _____    ______ ____
ROOT
ATOM      1  N   UNL     1      35.207 -16.594 -23.178  0.00  0.00    +0.387 N 
ATOM      2  C   UNL     1      33.317 -14.379 -22.632  0.00  0.00    +0.088 C 
ATOM      3  C   UNL     1      33.476 -15.037 -24.016  0.00  0.00    -0.002 C 
ATOM      4  C   UNL     1      34.604 -14.617 -21.817  0.00  0.00    -0.002 C 
ATOM      5  C   UNL     1      33.955 -16.489 -23.937  0.00  0.00    -0.076 C 
ATOM      6  C   UNL     1      35.045 -16.083 -21.811  0.00  0.00    -0.076 C 
ATOM      7  H   UNL     1      35.906 -16.018 -23.646  0.00  0.00    -0.080 HD
ENDROOT
BRANCH   2   9
ATOM      8  O   UNL     1      34.430 -12.692 -24.755  0.00  0.00    -0.275 OA
ATOM      9  N   UNL     1      33.123 -12.948 -22.805  0.00  0.00    -0.260 N 
ATOM     10  C   UNL     1      33.710 -12.216 -23.873  0.00  0.00    +0.229 C 
BRANCH   9  11
ATOM     11  C   UNL     1      32.295 -12.234 -21.842  0.00  0.00    +0.054 C 
ATOM     12  C   UNL     1      32.621 -12.262 -20.486  0.00  0.00    +0.015 C 
ATOM     13  C   UNL     1      31.175 -11.524 -22.276  0.00  0.00    +0.015 C 
ATOM     14  C   UNL     1      31.829 -11.579 -19.565  0.00  0.00    +0.001 C 
ATOM     15  C   UNL     1      30.383 -10.841 -21.353  0.00  0.00    +0.001 C 
ATOM     16  C   UNL     1      30.709 -10.869 -19.997  0.00  0.00    +0.000 C 
ENDBRANCH   9  11
BRANCH  10  17
ATOM     17  C   UNL     1      33.433 -10.715 -23.866  0.00  0.00    +0.086 C 
ATOM     18  C   UNL     1      34.635  -9.892 -24.306  0.00  0.00    +0.010 C 
ENDBRANCH  10  17
ENDBRANCH   2   9
BRANCH   2  19
ATOM     19  C   UNL     1      32.089 -14.935 -21.894  0.00  0.00    +0.160 C 
BRANCH  19  20
ATOM     20  O   UNL     1      32.538 -15.636 -20.753  0.00  0.00    -0.349 OA
ATOM     21  C   UNL     1      31.755 -16.799 -20.503  0.00  0.00    +0.174 C 
ENDBRANCH  19  20
ENDBRANCH   2  19
BRANCH   1  22
ATOM     22  C   UNL     1      35.679 -17.979 -23.156  0.00  0.00    -0.073 C 
BRANCH  22  23
ATOM     23  C   UNL     1      36.265 -18.335 -21.790  0.00  0.00    +0.004 C 
BRANCH  23  24
ATOM     24  C   UNL     1      35.433 -19.376 -21.085  0.00  0.00    -0.024 C 
ATOM     25  C   UNL     1      34.044 -19.367 -21.220  0.00  0.00    -0.004 C 
ATOM     26  C   UNL     1      36.050 -20.347 -20.297  0.00  0.00    -0.004 C 
ATOM     27  C   UNL     1      33.274 -20.330 -20.569  0.00  0.00    -0.000 C 
ATOM     28  C   UNL     1      35.279 -21.311 -19.646  0.00  0.00    -0.000 C 
ATOM     29  C   UNL     1      33.891 -21.302 -19.782  0.00  0.00    -0.000 C 
ENDBRANCH  23  24
ENDBRANCH  22  23
ENDBRANCH   1  22
TORSDOF 8
ENDMDL
MODEL 7
REMARK VINA RESULT:      -8.5      3.282      5.487
REMARK  Name = 124716
REMARK  8 active torsions:
REMARK  status: ('A' for Active; 'I' for Inactive)
REMARK    1  A    between atoms: N_1  and  C_22
REMARK    2  A    between atoms: C_2  and  N_9
REMARK    3  A    between atoms: C_2  and  C_19
REMARK    4  A    between atoms: N_9  and  C_11
REMARK    5  A    between atoms: C_10  and  C_17
REMARK    6  A    between atoms: C_19  and  O_20
REMARK    7  A    between atoms: C_22  and  C_23
REMARK    8  A    between atoms: C_23  and  C_24
REMARK                            x       y       z     vdW  Elec       q    Type
REMARK                         _______ _______ _______ _____ _____    ______ ____
ROOT
ATOM      1  N   UNL     1      35.818 -19.503 -20.533  0.00  0.00    +0.387 N 
ATOM      2  C   UNL     1      34.981 -17.924 -22.896  0.00  0.00    +0.088 C 
ATOM      3  C   UNL     1      36.208 -17.573 -22.033  0.00  0.00    -0.002 C 
ATOM      4  C   UNL     1      34.008 -18.774 -22.056  0.00  0.00    -0.002 C 
ATOM      5  C   UNL     1      36.820 -18.793 -21.338  0.00  0.00    -0.076 C 
ATOM      6  C   UNL     1      34.692 -19.955 -21.361  0.00  0.00    -0.076 C 
ATOM      7  H   UNL     1      35.453 -18.849 -19.841  0.00  0.00    -0.080 HD
ENDROOT
BRANCH   2   9
ATOM      8  O   UNL     1      34.551 -16.958 -25.629  0.00  0.00    -0.275 OA
ATOM      9  N   UNL     1      34.313 -16.695 -23.295  0.00  0.00    -0.260 N 
ATOM     10  C   UNL     1      34.155 -16.312 -24.655  0.00  0.00    +0.229 C 
BRANCH   9  11
ATOM     11  C   UNL     1      33.786 -15.818 -22.258  0.00  0.00    +0.054 C 
ATOM     12  C   UNL     1      32.708 -16.233 -21.476  0.00  0.00    +0.015 C 
ATOM     13  C   UNL     1      34.359 -14.563 -22.048  0.00  0.00    +0.015 C 
ATOM     14  C   UNL     1      32.204 -15.395 -20.483  0.00  0.00    +0.001 C 
ATOM     15  C   UNL     1      33.853 -13.725 -21.054  0.00  0.00    +0.001 C 
ATOM     16  C   UNL     1      32.776 -14.140 -20.272  0.00  0.00    +0.000 C 
ENDBRANCH   9  11
BRANCH  10  17
ATOM     17  C   UNL     1      33.470 -14.967 -24.881  0.00  0.00    +0.086 C 
ATOM     18  C   UNL     1      33.004 -14.777 -26.316  0.00  0.00    +0.010 C 
ENDBRANCH  10  17
ENDBRANCH   2   9
BRANCH   2  19
ATOM     19  C   UNL     1      35.400 -18.668 -24.173  0.00  0.00    +0.160 C 
BRANCH  19  20
ATOM     20  O   UNL     1      34.559 -19.794 -24.326  0.00  0.00    -0.349 OA
ATOM     21  C   UNL     1      35.011 -20.656 -25.364  0.00  0.00    +0.174 C 
ENDBRANCH  19  20
ENDBRANCH   2  19
BRANCH   1  22
ATOM     22  C   UNL     1      36.429 -20.634 -19.835  0.00  0.00    -0.073 C 
BRANCH  22  23
ATOM     23  C   UNL     1      35.371 -21.659 -19.425  0.00  0.00    +0.004 C 
BRANCH  23  24
ATOM     24  C   UNL     1      35.573 -22.123 -18.004  0.00  0.00    -0.024 C 
ATOM     25  C   UNL     1      34.550 -22.800 -17.340  0.00  0.00    -0.004 C 
ATOM     26  C   UNL     1      36.781 -21.876 -17.354  0.00  0.00    -0.004 C 
ATOM     27  C   UNL     1      34.736 -23.230 -16.026  0.00  0.00    -0.000 C 
ATOM     28  C   UNL     1      36.968 -22.306 -16.040  0.00  0.00    -0.000 C 
ATOM     29  C   UNL     1      35.944 -22.983 -15.376  0.00  0.00    -0.000 C 
ENDBRANCH  23  24
ENDBRANCH  22  23
ENDBRANCH   1  22
TORSDOF 8
ENDMDL
MODEL 8
REMARK VINA RESULT:      -8.5      1.726      3.729
REMARK  Name = 124716
REMARK  8 active torsions:
REMARK  status: ('A' for Active; 'I' for Inactive)
REMARK    1  A    between atoms: N_1  and  C_22
REMARK    2  A    between atoms: C_2  and  N_9
REMARK    3  A    between atoms: C_2  and  C_19
REMARK    4  A    between atoms: N_9  and  C_11
REMARK    5  A    between atoms: C_10  and  C_17
REMARK    6  A    between atoms: C_19  and  O_20
REMARK    7  A    between atoms: C_22  and  C_23
REMARK    8  A    between atoms: C_23  and  C_24
REMARK                            x       y       z     vdW  Elec       q    Type
REMARK                         _______ _______ _______ _____ _____    ______ ____
ROOT
ATOM      1  N   UNL     1      34.556 -18.208 -22.526  0.00  0.00    +0.387 N 
ATOM      2  C   UNL     1      34.132 -15.350 -23.181  0.00  0.00    +0.088 C 
ATOM      3  C   UNL     1      33.043 -16.250 -22.567  0.00  0.00    -0.002 C 
ATOM      4  C   UNL     1      35.169 -16.239 -23.894  0.00  0.00    -0.002 C 
ATOM      5  C   UNL     1      33.615 -17.403 -21.737  0.00  0.00    -0.076 C 
ATOM      6  C   UNL     1      35.672 -17.392 -23.020  0.00  0.00    -0.076 C 
ATOM      7  H   UNL     1      34.054 -18.572 -23.335  0.00  0.00    -0.080 HD
ENDROOT
BRANCH   2   9
ATOM      8  O   UNL     1      33.428 -15.985 -25.954  0.00  0.00    -0.275 OA
ATOM      9  N   UNL     1      33.521 -14.459 -24.155  0.00  0.00    -0.260 N 
ATOM     10  C   UNL     1      33.218 -14.864 -25.483  0.00  0.00    +0.229 C 
BRANCH   9  11
ATOM     11  C   UNL     1      33.208 -13.095 -23.752  0.00  0.00    +0.054 C 
ATOM     12  C   UNL     1      32.142 -12.850 -22.887  0.00  0.00    +0.015 C 
ATOM     13  C   UNL     1      33.975 -12.033 -24.233  0.00  0.00    +0.015 C 
ATOM     14  C   UNL     1      31.842 -11.544 -22.502  0.00  0.00    +0.001 C 
ATOM     15  C   UNL     1      33.675 -10.726 -23.846  0.00  0.00    +0.001 C 
ATOM     16  C   UNL     1      32.608 -10.482 -22.981  0.00  0.00    +0.000 C 
ENDBRANCH   9  11
BRANCH  10  17
ATOM     17  C   UNL     1      32.621 -13.780 -26.377  0.00  0.00    +0.086 C 
ATOM     18  C   UNL     1      33.574 -13.332 -27.475  0.00  0.00    +0.010 C 
ENDBRANCH  10  17
ENDBRANCH   2   9
BRANCH   2  19
ATOM     19  C   UNL     1      34.801 -14.482 -22.103  0.00  0.00    +0.160 C 
BRANCH  19  20
ATOM     20  O   UNL     1      34.047 -14.595 -20.913  0.00  0.00    -0.349 OA
ATOM     21  C   UNL     1      34.799 -15.198 -19.865  0.00  0.00    +0.174 C 
ENDBRANCH  19  20
ENDBRANCH   2  19
BRANCH   1  22
ATOM     22  C   UNL     1      35.054 -19.334 -21.736  0.00  0.00    -0.073 C 
BRANCH  22  23
ATOM     23  C   UNL     1      33.904 -20.075 -21.055  0.00  0.00    +0.004 C 
BRANCH  23  24
ATOM     24  C   UNL     1      34.399 -20.948 -19.928  0.00  0.00    -0.024 C 
ATOM     25  C   UNL     1      35.749 -20.933 -19.576  0.00  0.00    -0.004 C 
ATOM     26  C   UNL     1      33.508 -21.769 -19.239  0.00  0.00    -0.004 C 
ATOM     27  C   UNL     1      36.206 -21.739 -18.534  0.00  0.00    -0.000 C 
ATOM     28  C   UNL     1      33.966 -22.576 -18.197  0.00  0.00    -0.000 C 
ATOM     29  C   UNL     1      35.316 -22.560 -17.845  0.00  0.00    -0.000 C 
ENDBRANCH  23  24
ENDBRANCH  22  23
ENDBRANCH   1  22
TORSDOF 8
ENDMDL
MODEL 9
REMARK VINA RESULT:      -8.4      2.031      4.379
REMARK  Name = 124716
REMARK  8 active torsions:
REMARK  status: ('A' for Active; 'I' for Inactive)
REMARK    1  A    between atoms: N_1  and  C_22
REMARK    2  A    between atoms: C_2  and  N_9
REMARK    3  A    between atoms: C_2  and  C_19
REMARK    4  A    between atoms: N_9  and  C_11
REMARK    5  A    between atoms: C_10  and  C_17
REMARK    6  A    between atoms: C_19  and  O_20
REMARK    7  A    between atoms: C_22  and  C_23
REMARK    8  A    between atoms: C_23  and  C_24
REMARK                            x       y       z     vdW  Elec       q    Type
REMARK                         _______ _______ _______ _____ _____    ______ ____
ROOT
ATOM      1  N   UNL     1      33.774 -13.665 -24.183  0.00  0.00    +0.387 N 
ATOM      2  C   UNL     1      32.999 -10.895 -23.476  0.00  0.00    +0.088 C 
ATOM      3  C   UNL     1      33.113 -11.400 -24.927  0.00  0.00    -0.002 C 
ATOM      4  C   UNL     1      33.861 -11.793 -22.568  0.00  0.00    -0.002 C 
ATOM      5  C   UNL     1      32.872 -12.907 -25.058  0.00  0.00    -0.076 C 
ATOM      6  C   UNL     1      33.595 -13.286 -22.775  0.00  0.00    -0.076 C 
ATOM      7  H   UNL     1      34.731 -13.438 -24.448  0.00  0.00    -0.080 HD
ENDROOT
BRANCH   2   9
ATOM      8  O   UNL     1      35.443  -9.846 -24.707  0.00  0.00    -0.275 OA
ATOM      9  N   UNL     1      33.498  -9.530 -23.406  0.00  0.00    -0.260 N 
ATOM     10  C   UNL     1      34.702  -9.119 -24.041  0.00  0.00    +0.229 C 
BRANCH   9  11
ATOM     11  C   UNL     1      32.734  -8.545 -22.653  0.00  0.00    +0.054 C 
ATOM     12  C   UNL     1      31.742  -7.799 -23.289  0.00  0.00    +0.015 C 
ATOM     13  C   UNL     1      32.995  -8.348 -21.297  0.00  0.00    +0.015 C 
ATOM     14  C   UNL     1      31.010  -6.856 -22.568  0.00  0.00    +0.001 C 
ATOM     15  C   UNL     1      32.262  -7.405 -20.577  0.00  0.00    +0.001 C 
ATOM     16  C   UNL     1      31.270  -6.658 -21.212  0.00  0.00    +0.000 C 
ENDBRANCH   9  11
BRANCH  10  17
ATOM     17  C   UNL     1      35.091  -7.660 -23.819  0.00  0.00    +0.086 C 
ATOM     18  C   UNL     1      34.661  -6.756 -24.965  0.00  0.00    +0.010 C 
ENDBRANCH  10  17
ENDBRANCH   2   9
BRANCH   2  19
ATOM     19  C   UNL     1      31.535 -10.885 -23.010  0.00  0.00    +0.160 C 
BRANCH  19  20
ATOM     20  O   UNL     1      31.426 -11.717 -21.873  0.00  0.00    -0.349 OA
ATOM     21  C   UNL     1      30.622 -11.126 -20.858  0.00  0.00    +0.174 C 
ENDBRANCH  19  20
ENDBRANCH   2  19
BRANCH   1  22
ATOM     22  C   UNL     1      33.567 -15.103 -24.357  0.00  0.00    -0.073 C 
BRANCH  22  23
ATOM     23  C   UNL     1      34.902 -15.849 -24.378  0.00  0.00    +0.004 C 
BRANCH  23  24
ATOM     24  C   UNL     1      34.913 -16.990 -23.393  0.00  0.00    -0.024 C 
ATOM     25  C   UNL     1      34.972 -16.729 -22.024  0.00  0.00    -0.004 C 
ATOM     26  C   UNL     1      34.865 -18.307 -23.849  0.00  0.00    -0.004 C 
ATOM     27  C   UNL     1      34.982 -17.784 -21.112  0.00  0.00    -0.000 C 
ATOM     28  C   UNL     1      34.874 -19.363 -22.937  0.00  0.00    -0.000 C 
ATOM     29  C   UNL     1      34.933 -19.101 -21.568  0.00  0.00    -0.000 C 
ENDBRANCH  23  24
ENDBRANCH  22  23
ENDBRANCH   1  22
TORSDOF 8
ENDMDL
