MODEL 1
REMARK VINA RESULT:      -9.0      0.000      0.000
REMARK  Name = 16656685
REMARK  6 active torsions:
REMARK  status: ('A' for Active; 'I' for Inactive)
REMARK    1  A    between atoms: C_3  and  N_9
REMARK    2  A    between atoms: C_5  and  C_19
REMARK    3  A    between atoms: C_7  and  CA_22
REMARK    4  A    between atoms: C_10  and  C_12
REMARK    5  A    between atoms: C_19  and  O_20
REMARK    6  A    between atoms: CA_22  and  N_23
REMARK                            x       y       z     vdW  Elec       q    Type
REMARK                         _______ _______ _______ _____ _____    ______ ____
ROOT
ATOM      1  O   GLY A   1      31.728 -24.827 -12.811  0.00  0.00    -0.277 OA
ATOM      2  N   UNK A   2      32.048 -23.964 -14.934  0.00  0.00    -0.271 N 
ATOM      3  C   UNK A   2      31.936 -23.135 -17.148  0.00  0.00    +0.094 C 
ATOM      4  C   UNK A   2      30.710 -22.651 -16.371  0.00  0.00    +0.053 C 
ATOM      5  C   UNK A   2      30.660 -23.591 -15.172  0.00  0.00    +0.176 C 
ATOM      6  C   UNK A   2      32.903 -23.557 -16.048  0.00  0.00    +0.113 C 
ATOM      7  C   GLY A   1      32.480 -24.495 -13.730  0.00  0.00    +0.204 C 
ENDROOT
BRANCH   3   9
ATOM      8  O   UNK A   2      33.962 -23.507 -19.149  0.00  0.00    -0.270 OA
ATOM      9  N   UNK A   2      32.475 -22.130 -18.019  0.00  0.00    -0.301 N 
ATOM     10  C   UNK A   2      33.460 -22.401 -18.963  0.00  0.00    +0.246 C 
ATOM     11  H   UNK A   2      32.133 -21.210 -17.944  0.00  0.00    +0.150 HD
BRANCH  10  12
ATOM     12  C   UNK A   2      33.932 -21.246 -19.770  0.00  0.00    +0.053 C 
ATOM     13  C   UNK A   2      32.999 -20.381 -20.303  0.00  0.00    +0.005 C 
ATOM     14  C   UNK A   2      35.287 -21.075 -19.960  0.00  0.00    +0.005 C 
ATOM     15  C   UNK A   2      33.441 -19.296 -21.061  0.00  0.00    +0.000 C 
ATOM     16  C   UNK A   2      35.730 -19.990 -20.717  0.00  0.00    +0.000 C 
ATOM     17  C   UNK A   2      34.807 -19.100 -21.267  0.00  0.00    +0.000 C 
ENDBRANCH  10  12
ENDBRANCH   3   9
BRANCH   5  19
ATOM     18  O   UNK A   2      29.866 -25.390 -16.578  0.00  0.00    -0.248 OA
ATOM     19  C   UNK A   2      29.911 -24.852 -15.482  0.00  0.00    +0.332 C 
BRANCH  19  20
ATOM     20  O   UNK A   2      29.282 -25.319 -14.377  0.00  0.00    -0.479 OA
ATOM     21  H   UNK A   2      29.676 -25.999 -13.865  0.00  0.00    +0.295 HD
ENDBRANCH  19  20
ENDBRANCH   5  19
BRANCH   7  22
ATOM     22  CA  GLY A   1      33.972 -24.667 -13.592  0.00  0.00    +0.001 C 
BRANCH  22  23
ATOM     23  N   GLY A   1      34.433 -23.561 -12.781  0.00  0.00    +0.386 N 
ATOM     24  H1  GLY A   1      34.133 -22.681 -13.203  0.00  0.00    -0.089 HD
ATOM     25  H2  GLY A   1      35.451 -23.581 -12.726  0.00  0.00    -0.089 HD
ATOM     26  H3  GLY A   1      34.040 -23.639 -11.843  0.00  0.00    -0.089 HD
ENDBRANCH  22  23
ENDBRANCH   7  22
TORSDOF 6
ENDMDL
MODEL 2
REMARK VINA RESULT:      -8.7      2.894      4.076
REMARK  Name = 16656685
REMARK  6 active torsions:
REMARK  status: ('A' for Active; 'I' for Inactive)
REMARK    1  A    between atoms: C_3  and  N_9
REMARK    2  A    between atoms: C_5  and  C_19
REMARK    3  A    between atoms: C_7  and  CA_22
REMARK    4  A    between atoms: C_10  and  C_12
REMARK    5  A    between atoms: C_19  and  O_20
REMARK    6  A    between atoms: CA_22  and  N_23
REMARK                            x       y       z     vdW  Elec       q    Type
REMARK                         _______ _______ _______ _____ _____    ______ ____
ROOT
ATOM      1  O   GLY A   1      37.550 -25.891 -12.157  0.00  0.00    -0.277 OA
ATOM      2  N   UNK A   2      36.521 -24.831 -13.938  0.00  0.00    -0.271 N 
ATOM      3  C   UNK A   2      35.189 -23.591 -15.451  0.00  0.00    +0.094 C 
ATOM      4  C   UNK A   2      35.347 -22.793 -14.155  0.00  0.00    +0.053 C 
ATOM      5  C   UNK A   2      35.797 -23.844 -13.148  0.00  0.00    +0.176 C 
ATOM      6  C   UNK A   2      36.314 -24.617 -15.369  0.00  0.00    +0.113 C 
ATOM      7  C   GLY A   1      37.401 -25.739 -13.371  0.00  0.00    +0.204 C 
ENDROOT
BRANCH   3   9
ATOM      8  O   UNK A   2      33.244 -23.434 -17.557  0.00  0.00    -0.270 OA
ATOM      9  N   UNK A   2      35.261 -22.768 -16.624  0.00  0.00    -0.301 N 
ATOM     10  C   UNK A   2      34.267 -22.755 -17.598  0.00  0.00    +0.246 C 
ATOM     11  H   UNK A   2      36.047 -22.187 -16.744  0.00  0.00    +0.150 HD
BRANCH  10  12
ATOM     12  C   UNK A   2      34.503 -21.867 -18.765  0.00  0.00    +0.053 C 
ATOM     13  C   UNK A   2      33.417 -21.316 -19.413  0.00  0.00    +0.005 C 
ATOM     14  C   UNK A   2      35.800 -21.621 -19.163  0.00  0.00    +0.005 C 
ATOM     15  C   UNK A   2      33.637 -20.482 -20.509  0.00  0.00    +0.000 C 
ATOM     16  C   UNK A   2      36.022 -20.786 -20.259  0.00  0.00    +0.000 C 
ATOM     17  C   UNK A   2      34.940 -20.216 -20.931  0.00  0.00    +0.000 C 
ENDBRANCH  10  12
ENDBRANCH   3   9
BRANCH   5  19
ATOM     18  O   UNK A   2      33.509 -24.610 -12.995  0.00  0.00    -0.248 OA
ATOM     19  C   UNK A   2      34.633 -24.551 -12.520  0.00  0.00    +0.332 C 
BRANCH  19  20
ATOM     20  O   UNK A   2      34.996 -25.117 -11.343  0.00  0.00    -0.479 OA
ATOM     21  H   UNK A   2      35.243 -26.021 -11.314  0.00  0.00    +0.295 HD
ENDBRANCH  19  20
ENDBRANCH   5  19
BRANCH   7  22
ATOM     22  CA  GLY A   1      38.193 -26.574 -14.346  0.00  0.00    +0.001 C 
BRANCH  22  23
ATOM     23  N   GLY A   1      39.583 -26.239 -14.131  0.00  0.00    +0.386 N 
ATOM     24  H1  GLY A   1      39.715 -25.235 -14.259  0.00  0.00    -0.089 HD
ATOM     25  H2  GLY A   1      40.163 -26.746 -14.799  0.00  0.00    -0.089 HD
ATOM     26  H3  GLY A   1      39.853 -26.497 -13.182  0.00  0.00    -0.089 HD
ENDBRANCH  22  23
ENDBRANCH   7  22
TORSDOF 6
ENDMDL
MODEL 3
REMARK VINA RESULT:      -8.7      5.131      9.566
REMARK  Name = 16656685
REMARK  6 active torsions:
REMARK  status: ('A' for Active; 'I' for Inactive)
REMARK    1  A    between atoms: C_3  and  N_9
REMARK    2  A    between atoms: C_5  and  C_19
REMARK    3  A    between atoms: C_7  and  CA_22
REMARK    4  A    between atoms: C_10  and  C_12
REMARK    5  A    between atoms: C_19  and  O_20
REMARK    6  A    between atoms: CA_22  and  N_23
REMARK                            x       y       z     vdW  Elec       q    Type
REMARK                         _______ _______ _______ _____ _____    ______ ____
ROOT
ATOM      1  O   GLY A   1      34.185 -14.320 -23.791  0.00  0.00    -0.277 OA
ATOM      2  N   UNK A   2      34.202 -16.440 -22.863  0.00  0.00    -0.271 N 
ATOM      3  C   UNK A   2      34.397 -18.731 -22.303  0.00  0.00    +0.094 C 
ATOM      4  C   UNK A   2      35.627 -18.307 -23.109  0.00  0.00    +0.053 C 
ATOM      5  C   UNK A   2      35.180 -17.013 -23.779  0.00  0.00    +0.176 C 
ATOM      6  C   UNK A   2      33.811 -17.403 -21.836  0.00  0.00    +0.113 C 
ATOM      7  C   GLY A   1      33.834 -15.104 -22.907  0.00  0.00    +0.204 C 
ENDROOT
BRANCH   3   9
ATOM      8  O   UNK A   2      32.582 -20.467 -20.913  0.00  0.00    -0.270 OA
ATOM      9  N   UNK A   2      34.718 -19.617 -21.223  0.00  0.00    -0.301 N 
ATOM     10  C   UNK A   2      33.771 -20.427 -20.604  0.00  0.00    +0.246 C 
ATOM     11  H   UNK A   2      35.650 -19.654 -20.905  0.00  0.00    +0.150 HD
BRANCH  10  12
ATOM     12  C   UNK A   2      34.258 -21.269 -19.482  0.00  0.00    +0.053 C 
ATOM     13  C   UNK A   2      33.358 -22.071 -18.811  0.00  0.00    +0.005 C 
ATOM     14  C   UNK A   2      35.595 -21.224 -19.147  0.00  0.00    +0.005 C 
ATOM     15  C   UNK A   2      33.815 -22.862 -17.757  0.00  0.00    +0.000 C 
ATOM     16  C   UNK A   2      36.053 -22.016 -18.094  0.00  0.00    +0.000 C 
ATOM     17  C   UNK A   2      35.163 -22.836 -17.399  0.00  0.00    +0.000 C 
ENDBRANCH  10  12
ENDBRANCH   3   9
BRANCH   5  19
ATOM     18  O   UNK A   2      33.845 -18.283 -25.343  0.00  0.00    -0.248 OA
ATOM     19  C   UNK A   2      34.473 -17.270 -25.075  0.00  0.00    +0.332 C 
BRANCH  19  20
ATOM     20  O   UNK A   2      34.627 -16.221 -25.920  0.00  0.00    -0.479 OA
ATOM     21  H   UNK A   2      34.530 -15.344 -25.602  0.00  0.00    +0.295 HD
ENDBRANCH  19  20
ENDBRANCH   5  19
BRANCH   7  22
ATOM     22  CA  GLY A   1      32.942 -14.637 -21.786  0.00  0.00    +0.001 C 
BRANCH  22  23
ATOM     23  N   GLY A   1      32.117 -13.584 -22.336  0.00  0.00    +0.386 N 
ATOM     24  H1  GLY A   1      31.908 -13.790 -23.313  0.00  0.00    -0.089 HD
ATOM     25  H2  GLY A   1      32.614 -12.695 -22.275  0.00  0.00    -0.089 HD
ATOM     26  H3  GLY A   1      31.246 -13.523 -21.808  0.00  0.00    -0.089 HD
ENDBRANCH  22  23
ENDBRANCH   7  22
TORSDOF 6
ENDMDL
MODEL 4
REMARK VINA RESULT:      -8.6      6.989     10.948
REMARK  Name = 16656685
REMARK  6 active torsions:
REMARK  status: ('A' for Active; 'I' for Inactive)
REMARK    1  A    between atoms: C_3  and  N_9
REMARK    2  A    between atoms: C_5  and  C_19
REMARK    3  A    between atoms: C_7  and  CA_22
REMARK    4  A    between atoms: C_10  and  C_12
REMARK    5  A    between atoms: C_19  and  O_20
REMARK    6  A    between atoms: CA_22  and  N_23
REMARK                            x       y       z     vdW  Elec       q    Type
REMARK                         _______ _______ _______ _____ _____    ______ ____
ROOT
ATOM      1  O   GLY A   1      32.680 -11.311 -22.920  0.00  0.00    -0.277 OA
ATOM      2  N   UNK A   2      33.019 -13.574 -22.574  0.00  0.00    -0.271 N 
ATOM      3  C   UNK A   2      33.554 -15.879 -22.622  0.00  0.00    +0.094 C 
ATOM      4  C   UNK A   2      34.699 -15.086 -23.256  0.00  0.00    +0.053 C 
ATOM      5  C   UNK A   2      34.060 -13.741 -23.579  0.00  0.00    +0.176 C 
ATOM      6  C   UNK A   2      32.785 -14.818 -21.842  0.00  0.00    +0.113 C 
ATOM      7  C   GLY A   1      32.459 -12.341 -22.279  0.00  0.00    +0.204 C 
ENDROOT
BRANCH   3   9
ATOM      8  O   UNK A   2      34.470 -18.447 -23.522  0.00  0.00    -0.270 OA
ATOM      9  N   UNK A   2      34.014 -16.960 -21.800  0.00  0.00    -0.301 N 
ATOM     10  C   UNK A   2      34.442 -18.176 -22.324  0.00  0.00    +0.246 C 
ATOM     11  H   UNK A   2      34.028 -16.836 -20.823  0.00  0.00    +0.150 HD
BRANCH  10  12
ATOM     12  C   UNK A   2      34.864 -19.204 -21.338  0.00  0.00    +0.053 C 
ATOM     13  C   UNK A   2      36.199 -19.300 -21.006  0.00  0.00    +0.005 C 
ATOM     14  C   UNK A   2      33.906 -20.030 -20.786  0.00  0.00    +0.005 C 
ATOM     15  C   UNK A   2      36.596 -20.266 -20.080  0.00  0.00    +0.000 C 
ATOM     16  C   UNK A   2      34.302 -20.995 -19.859  0.00  0.00    +0.000 C 
ATOM     17  C   UNK A   2      35.647 -21.112 -19.505  0.00  0.00    +0.000 C 
ENDBRANCH  10  12
ENDBRANCH   3   9
BRANCH   5  19
ATOM     18  O   UNK A   2      32.773 -14.698 -25.388  0.00  0.00    -0.248 OA
ATOM     19  C   UNK A   2      33.384 -13.751 -24.917  0.00  0.00    +0.332 C 
BRANCH  19  20
ATOM     20  O   UNK A   2      33.544 -12.559 -25.542  0.00  0.00    -0.479 OA
ATOM     21  H   UNK A   2      32.963 -11.848 -25.352  0.00  0.00    +0.295 HD
ENDBRANCH  19  20
ENDBRANCH   5  19
BRANCH   7  22
ATOM     22  CA  GLY A   1      31.520 -12.317 -21.100  0.00  0.00    +0.001 C 
BRANCH  22  23
ATOM     23  N   GLY A   1      30.416 -11.462 -21.478  0.00  0.00    +0.386 N 
ATOM     24  H1  GLY A   1      29.559 -11.796 -21.034  0.00  0.00    -0.089 HD
ATOM     25  H2  GLY A   1      30.303 -11.480 -22.492  0.00  0.00    -0.089 HD
ATOM     26  H3  GLY A   1      30.606 -10.507 -21.174  0.00  0.00    -0.089 HD
ENDBRANCH  22  23
ENDBRANCH   7  22
TORSDOF 6
ENDMDL
MODEL 5
REMARK VINA RESULT:      -8.4      4.536      6.503
REMARK  Name = 16656685
REMARK  6 active torsions:
REMARK  status: ('A' for Active; 'I' for Inactive)
REMARK    1  A    between atoms: C_3  and  N_9
REMARK    2  A    between atoms: C_5  and  C_19
REMARK    3  A    between atoms: C_7  and  CA_22
REMARK    4  A    between atoms: C_10  and  C_12
REMARK    5  A    between atoms: C_19  and  O_20
REMARK    6  A    between atoms: CA_22  and  N_23
REMARK                            x       y       z     vdW  Elec       q    Type
REMARK                         _______ _______ _______ _____ _____    ______ ____
ROOT
ATOM      1  O   GLY A   1      38.447 -23.714 -13.090  0.00  0.00    -0.277 OA
ATOM      2  N   UNK A   2      36.237 -24.104 -13.656  0.00  0.00    -0.271 N 
ATOM      3  C   UNK A   2      33.918 -24.552 -13.796  0.00  0.00    +0.094 C 
ATOM      4  C   UNK A   2      34.184 -23.680 -12.568  0.00  0.00    +0.053 C 
ATOM      5  C   UNK A   2      35.680 -23.850 -12.333  0.00  0.00    +0.176 C 
ATOM      6  C   UNK A   2      35.183 -24.378 -14.630  0.00  0.00    +0.113 C 
ATOM      7  C   GLY A   1      37.585 -23.946 -13.939  0.00  0.00    +0.204 C 
ENDROOT
BRANCH   3   9
ATOM      8  O   UNK A   2      31.218 -25.170 -13.039  0.00  0.00    -0.270 OA
ATOM      9  N   UNK A   2      32.724 -24.176 -14.497  0.00  0.00    -0.301 N 
ATOM     10  C   UNK A   2      31.450 -24.521 -14.055  0.00  0.00    +0.246 C 
ATOM     11  H   UNK A   2      32.810 -23.652 -15.326  0.00  0.00    +0.150 HD
BRANCH  10  12
ATOM     12  C   UNK A   2      30.317 -24.078 -14.908  0.00  0.00    +0.053 C 
ATOM     13  C   UNK A   2      29.918 -22.759 -14.852  0.00  0.00    +0.005 C 
ATOM     14  C   UNK A   2      29.701 -25.000 -15.728  0.00  0.00    +0.005 C 
ATOM     15  C   UNK A   2      28.854 -22.342 -15.653  0.00  0.00    +0.000 C 
ATOM     16  C   UNK A   2      28.638 -24.584 -16.529  0.00  0.00    +0.000 C 
ATOM     17  C   UNK A   2      28.214 -23.255 -16.492  0.00  0.00    +0.000 C 
ENDBRANCH  10  12
ENDBRANCH   3   9
BRANCH   5  19
ATOM     18  O   UNK A   2      36.702 -25.981 -11.822  0.00  0.00    -0.248 OA
ATOM     19  C   UNK A   2      35.980 -25.053 -11.490  0.00  0.00    +0.332 C 
BRANCH  19  20
ATOM     20  O   UNK A   2      35.337 -24.975 -10.300  0.00  0.00    -0.479 OA
ATOM     21  H   UNK A   2      34.521 -24.516 -10.237  0.00  0.00    +0.295 HD
ENDBRANCH  19  20
ENDBRANCH   5  19
BRANCH   7  22
ATOM     22  CA  GLY A   1      37.965 -24.085 -15.391  0.00  0.00    +0.001 C 
BRANCH  22  23
ATOM     23  N   GLY A   1      39.271 -24.706 -15.410  0.00  0.00    +0.386 N 
ATOM     24  H1  GLY A   1      39.977 -24.021 -15.134  0.00  0.00    -0.089 HD
ATOM     25  H2  GLY A   1      39.475 -25.042 -16.351  0.00  0.00    -0.089 HD
ATOM     26  H3  GLY A   1      39.285 -25.490 -14.758  0.00  0.00    -0.089 HD
ENDBRANCH  22  23
ENDBRANCH   7  22
TORSDOF 6
ENDMDL
MODEL 6
REMARK VINA RESULT:      -8.4      6.418     10.485
REMARK  Name = 16656685
REMARK  6 active torsions:
REMARK  status: ('A' for Active; 'I' for Inactive)
REMARK    1  A    between atoms: C_3  and  N_9
REMARK    2  A    between atoms: C_5  and  C_19
REMARK    3  A    between atoms: C_7  and  CA_22
REMARK    4  A    between atoms: C_10  and  C_12
REMARK    5  A    between atoms: C_19  and  O_20
REMARK    6  A    between atoms: CA_22  and  N_23
REMARK                            x       y       z     vdW  Elec       q    Type
REMARK                         _______ _______ _______ _____ _____    ______ ____
ROOT
ATOM      1  O   GLY A   1      33.146 -12.269 -23.454  0.00  0.00    -0.277 OA
ATOM      2  N   UNK A   2      33.377 -14.479 -22.811  0.00  0.00    -0.271 N 
ATOM      3  C   UNK A   2      33.783 -16.797 -22.560  0.00  0.00    +0.094 C 
ATOM      4  C   UNK A   2      34.938 -16.170 -23.342  0.00  0.00    +0.053 C 
ATOM      5  C   UNK A   2      34.359 -14.845 -23.824  0.00  0.00    +0.176 C 
ATOM      6  C   UNK A   2      33.110 -15.596 -21.906  0.00  0.00    +0.113 C 
ATOM      7  C   GLY A   1      32.899 -13.186 -22.669  0.00  0.00    +0.204 C 
ENDROOT
BRANCH   3   9
ATOM      8  O   UNK A   2      34.520 -19.513 -23.130  0.00  0.00    -0.270 OA
ATOM      9  N   UNK A   2      34.222 -17.782 -21.614  0.00  0.00    -0.301 N 
ATOM     10  C   UNK A   2      34.560 -19.081 -21.981  0.00  0.00    +0.246 C 
ATOM     11  H   UNK A   2      34.286 -17.528 -20.665  0.00  0.00    +0.150 HD
BRANCH  10  12
ATOM     12  C   UNK A   2      34.971 -19.989 -20.879  0.00  0.00    +0.053 C 
ATOM     13  C   UNK A   2      36.305 -20.055 -20.533  0.00  0.00    +0.005 C 
ATOM     14  C   UNK A   2      34.006 -20.736 -20.237  0.00  0.00    +0.005 C 
ATOM     15  C   UNK A   2      36.691 -20.907 -19.498  0.00  0.00    +0.000 C 
ATOM     16  C   UNK A   2      34.392 -21.588 -19.202  0.00  0.00    +0.000 C 
ATOM     17  C   UNK A   2      35.734 -21.673 -18.832  0.00  0.00    +0.000 C 
ENDBRANCH  10  12
ENDBRANCH   3   9
BRANCH   5  19
ATOM     18  O   UNK A   2      32.653 -14.331 -25.457  0.00  0.00    -0.248 OA
ATOM     19  C   UNK A   2      33.620 -14.996 -25.120  0.00  0.00    +0.332 C 
BRANCH  19  20
ATOM     20  O   UNK A   2      34.172 -15.978 -25.873  0.00  0.00    -0.479 OA
ATOM     21  H   UNK A   2      33.651 -16.431 -26.507  0.00  0.00    +0.295 HD
ENDBRANCH  19  20
ENDBRANCH   5  19
BRANCH   7  22
ATOM     22  CA  GLY A   1      32.020 -12.945 -21.469  0.00  0.00    +0.001 C 
BRANCH  22  23
ATOM     23  N   GLY A   1      31.145 -11.848 -21.821  0.00  0.00    +0.386 N 
ATOM     24  H1  GLY A   1      30.886 -11.334 -20.977  0.00  0.00    -0.089 HD
ATOM     25  H2  GLY A   1      30.304 -12.213 -22.268  0.00  0.00    -0.089 HD
ATOM     26  H3  GLY A   1      31.628 -11.221 -22.465  0.00  0.00    -0.089 HD
ENDBRANCH  22  23
ENDBRANCH   7  22
TORSDOF 6
ENDMDL
MODEL 7
REMARK VINA RESULT:      -8.1      4.176      6.609
REMARK  Name = 16656685
REMARK  6 active torsions:
REMARK  status: ('A' for Active; 'I' for Inactive)
REMARK    1  A    between atoms: C_3  and  N_9
REMARK    2  A    between atoms: C_5  and  C_19
REMARK    3  A    between atoms: C_7  and  CA_22
REMARK    4  A    between atoms: C_10  and  C_12
REMARK    5  A    between atoms: C_19  and  O_20
REMARK    6  A    between atoms: CA_22  and  N_23
REMARK                            x       y       z     vdW  Elec       q    Type
REMARK                         _______ _______ _______ _____ _____    ______ ____
ROOT
ATOM      1  O   GLY A   1      38.344 -24.871 -11.735  0.00  0.00    -0.277 OA
ATOM      2  N   UNK A   2      36.658 -24.305 -13.215  0.00  0.00    -0.271 N 
ATOM      3  C   UNK A   2      35.169 -23.962 -15.022  0.00  0.00    +0.094 C 
ATOM      4  C   UNK A   2      35.698 -25.397 -15.076  0.00  0.00    +0.053 C 
ATOM      5  C   UNK A   2      36.939 -25.348 -14.193  0.00  0.00    +0.176 C 
ATOM      6  C   UNK A   2      35.478 -23.529 -13.593  0.00  0.00    +0.113 C 
ATOM      7  C   GLY A   1      37.352 -24.197 -12.020  0.00  0.00    +0.204 C 
ENDROOT
BRANCH   3   9
ATOM      8  O   UNK A   2      32.958 -24.649 -13.323  0.00  0.00    -0.270 OA
ATOM      9  N   UNK A   2      33.775 -23.870 -15.350  0.00  0.00    -0.301 N 
ATOM     10  C   UNK A   2      32.766 -24.227 -14.461  0.00  0.00    +0.246 C 
ATOM     11  H   UNK A   2      33.523 -23.541 -16.243  0.00  0.00    +0.150 HD
BRANCH  10  12
ATOM     12  C   UNK A   2      31.374 -24.098 -14.961  0.00  0.00    +0.053 C 
ATOM     13  C   UNK A   2      30.423 -24.997 -14.524  0.00  0.00    +0.005 C 
ATOM     14  C   UNK A   2      31.076 -23.085 -15.849  0.00  0.00    +0.005 C 
ATOM     15  C   UNK A   2      29.115 -24.877 -14.994  0.00  0.00    +0.000 C 
ATOM     16  C   UNK A   2      29.768 -22.964 -16.318  0.00  0.00    +0.000 C 
ATOM     17  C   UNK A   2      28.787 -23.860 -15.890  0.00  0.00    +0.000 C 
ENDBRANCH  10  12
ENDBRANCH   3   9
BRANCH   5  19
ATOM     18  O   UNK A   2      38.464 -23.759 -15.190  0.00  0.00    -0.248 OA
ATOM     19  C   UNK A   2      38.153 -24.918 -14.959  0.00  0.00    +0.332 C 
BRANCH  19  20
ATOM     20  O   UNK A   2      38.866 -25.995 -15.370  0.00  0.00    -0.479 OA
ATOM     21  H   UNK A   2      38.426 -26.794 -15.585  0.00  0.00    +0.295 HD
ENDBRANCH  19  20
ENDBRANCH   5  19
BRANCH   7  22
ATOM     22  CA  GLY A   1      36.824 -23.171 -11.051  0.00  0.00    +0.001 C 
BRANCH  22  23
ATOM     23  N   GLY A   1      36.073 -23.903 -10.054  0.00  0.00    +0.386 N 
ATOM     24  H1  GLY A   1      35.353 -24.462 -10.514  0.00  0.00    -0.089 HD
ATOM     25  H2  GLY A   1      35.633 -23.247  -9.409  0.00  0.00    -0.089 HD
ATOM     26  H3  GLY A   1      36.702 -24.518  -9.538  0.00  0.00    -0.089 HD
ENDBRANCH  22  23
ENDBRANCH   7  22
TORSDOF 6
ENDMDL
MODEL 8
REMARK VINA RESULT:      -8.1      3.189      5.863
REMARK  Name = 16656685
REMARK  6 active torsions:
REMARK  status: ('A' for Active; 'I' for Inactive)
REMARK    1  A    between atoms: C_3  and  N_9
REMARK    2  A    between atoms: C_5  and  C_19
REMARK    3  A    between atoms: C_7  and  CA_22
REMARK    4  A    between atoms: C_10  and  C_12
REMARK    5  A    between atoms: C_19  and  O_20
REMARK    6  A    between atoms: CA_22  and  N_23
REMARK                            x       y       z     vdW  Elec       q    Type
REMARK                         _______ _______ _______ _____ _____    ______ ____
ROOT
ATOM      1  O   GLY A   1      34.356 -23.769 -17.265  0.00  0.00    -0.277 OA
ATOM      2  N   UNK A   2      34.628 -21.982 -18.709  0.00  0.00    -0.271 N 
ATOM      3  C   UNK A   2      35.340 -20.203 -20.099  0.00  0.00    +0.094 C 
ATOM      4  C   UNK A   2      36.339 -21.356 -20.212  0.00  0.00    +0.053 C 
ATOM      5  C   UNK A   2      36.043 -22.201 -18.979  0.00  0.00    +0.176 C 
ATOM      6  C   UNK A   2      34.106 -20.868 -19.499  0.00  0.00    +0.113 C 
ATOM      7  C   GLY A   1      33.880 -22.838 -17.917  0.00  0.00    +0.204 C 
ENDROOT
BRANCH   3   9
ATOM      8  O   UNK A   2      35.390 -17.382 -20.634  0.00  0.00    -0.270 OA
ATOM      9  N   UNK A   2      35.081 -19.565 -21.357  0.00  0.00    -0.301 N 
ATOM     10  C   UNK A   2      35.128 -18.185 -21.526  0.00  0.00    +0.246 C 
ATOM     11  H   UNK A   2      34.861 -20.128 -22.134  0.00  0.00    +0.150 HD
BRANCH  10  12
ATOM     12  C   UNK A   2      34.809 -17.679 -22.886  0.00  0.00    +0.053 C 
ATOM     13  C   UNK A   2      34.725 -18.578 -23.928  0.00  0.00    +0.005 C 
ATOM     14  C   UNK A   2      34.608 -16.326 -23.063  0.00  0.00    +0.005 C 
ATOM     15  C   UNK A   2      34.426 -18.103 -25.206  0.00  0.00    +0.000 C 
ATOM     16  C   UNK A   2      34.308 -15.850 -24.340  0.00  0.00    +0.000 C 
ATOM     17  C   UNK A   2      34.217 -16.740 -25.412  0.00  0.00    +0.000 C 
ENDBRANCH  10  12
ENDBRANCH   3   9
BRANCH   5  19
ATOM     18  O   UNK A   2      37.141 -20.564 -17.579  0.00  0.00    -0.248 OA
ATOM     19  C   UNK A   2      36.801 -21.720 -17.777  0.00  0.00    +0.332 C 
BRANCH  19  20
ATOM     20  O   UNK A   2      37.063 -22.748 -16.934  0.00  0.00    -0.479 OA
ATOM     21  H   UNK A   2      36.359 -23.188 -16.499  0.00  0.00    +0.295 HD
ENDBRANCH  19  20
ENDBRANCH   5  19
BRANCH   7  22
ATOM     22  CA  GLY A   1      32.399 -22.561 -17.879  0.00  0.00    +0.001 C 
BRANCH  22  23
ATOM     23  N   GLY A   1      31.904 -23.171 -16.664  0.00  0.00    +0.386 N 
ATOM     24  H1  GLY A   1      31.153 -22.597 -16.277  0.00  0.00    -0.089 HD
ATOM     25  H2  GLY A   1      32.662 -23.241 -15.985  0.00  0.00    -0.089 HD
ATOM     26  H3  GLY A   1      31.546 -24.103 -16.872  0.00  0.00    -0.089 HD
ENDBRANCH  22  23
ENDBRANCH   7  22
TORSDOF 6
ENDMDL
MODEL 9
REMARK VINA RESULT:      -8.0      8.921     12.468
REMARK  Name = 16656685
REMARK  6 active torsions:
REMARK  status: ('A' for Active; 'I' for Inactive)
REMARK    1  A    between atoms: C_3  and  N_9
REMARK    2  A    between atoms: C_5  and  C_19
REMARK    3  A    between atoms: C_7  and  CA_22
REMARK    4  A    between atoms: C_10  and  C_12
REMARK    5  A    between atoms: C_19  and  O_20
REMARK    6  A    between atoms: CA_22  and  N_23
REMARK                            x       y       z     vdW  Elec       q    Type
REMARK                         _______ _______ _______ _____ _____    ______ ____
ROOT
ATOM      1  O   GLY A   1      33.929 -17.903 -22.842  0.00  0.00    -0.277 OA
ATOM      2  N   UNK A   2      34.088 -15.625 -23.211  0.00  0.00    -0.271 N 
ATOM      3  C   UNK A   2      34.111 -13.393 -23.998  0.00  0.00    +0.094 C 
ATOM      4  C   UNK A   2      32.892 -14.114 -24.577  0.00  0.00    +0.053 C 
ATOM      5  C   UNK A   2      33.234 -15.588 -24.390  0.00  0.00    +0.176 C 
ATOM      6  C   UNK A   2      34.521 -14.282 -22.829  0.00  0.00    +0.113 C 
ATOM      7  C   GLY A   1      34.310 -16.786 -22.488  0.00  0.00    +0.204 C 
ENDROOT
BRANCH   3   9
ATOM      8  O   UNK A   2      34.710 -11.014 -25.490  0.00  0.00    -0.270 OA
ATOM      9  N   UNK A   2      33.825 -12.043 -23.608  0.00  0.00    -0.301 N 
ATOM     10  C   UNK A   2      34.153 -10.945 -24.397  0.00  0.00    +0.246 C 
ATOM     11  H   UNK A   2      33.379 -11.887 -22.745  0.00  0.00    +0.150 HD
BRANCH  10  12
ATOM     12  C   UNK A   2      33.813  -9.610 -23.839  0.00  0.00    +0.053 C 
ATOM     13  C   UNK A   2      32.592  -9.438 -23.221  0.00  0.00    +0.005 C 
ATOM     14  C   UNK A   2      34.729  -8.586 -23.957  0.00  0.00    +0.005 C 
ATOM     15  C   UNK A   2      32.272  -8.186 -22.697  0.00  0.00    +0.000 C 
ATOM     16  C   UNK A   2      34.410  -7.333 -23.432  0.00  0.00    +0.000 C 
ATOM     17  C   UNK A   2      33.182  -7.133 -22.802  0.00  0.00    +0.000 C 
ENDBRANCH  10  12
ENDBRANCH   3   9
BRANCH   5  19
ATOM     18  O   UNK A   2      34.894 -16.992 -25.446  0.00  0.00    -0.248 OA
ATOM     19  C   UNK A   2      34.040 -16.124 -25.535  0.00  0.00    +0.332 C 
BRANCH  19  20
ATOM     20  O   UNK A   2      33.694 -15.509 -26.693  0.00  0.00    -0.479 OA
ATOM     21  H   UNK A   2      33.383 -14.625 -26.680  0.00  0.00    +0.295 HD
ENDBRANCH  19  20
ENDBRANCH   5  19
BRANCH   7  22
ATOM     22  CA  GLY A   1      35.079 -16.616 -21.202  0.00  0.00    +0.001 C 
BRANCH  22  23
ATOM     23  N   GLY A   1      35.493 -17.942 -20.799  0.00  0.00    +0.386 N 
ATOM     24  H1  GLY A   1      36.399 -18.158 -21.219  0.00  0.00    -0.089 HD
ATOM     25  H2  GLY A   1      34.803 -18.624 -21.112  0.00  0.00    -0.089 HD
ATOM     26  H3  GLY A   1      35.573 -17.980 -19.783  0.00  0.00    -0.089 HD
ENDBRANCH  22  23
ENDBRANCH   7  22
TORSDOF 6
ENDMDL
