MODEL 1
REMARK VINA RESULT:      -8.3      0.000      0.000
REMARK  Name = 5681
REMARK  9 active torsions:
REMARK  status: ('A' for Active; 'I' for Inactive)
REMARK    1  A    between atoms: S_1  and  C_5
REMARK    2  A    between atoms: S_1  and  N_15
REMARK    3  A    between atoms: N_15  and  C_17
REMARK    4  A    between atoms: C_17  and  C_18
REMARK    5  A    between atoms: C_18  and  C_19
REMARK    6  A    between atoms: C_19  and  C_20
REMARK    7  A    between atoms: C_20  and  C_21
REMARK    8  A    between atoms: C_21  and  C_22
REMARK    9  A    between atoms: C_22  and  N_23
REMARK                            x       y       z     vdW  Elec       q    Type
REMARK                         _______ _______ _______ _____ _____    ______ ____
ROOT
ATOM      1  S   UNL     1      35.413 -18.616 -22.258  0.00  0.00    +0.060 S 
ATOM      2  O   UNL     1      34.353 -19.396 -22.864  0.00  0.00    -0.153 OA
ATOM      3  O   UNL     1      36.711 -18.526 -22.900  0.00  0.00    -0.153 OA
ENDROOT
BRANCH   1   5
ATOM      4 CL   UNL     1      32.872 -12.464 -23.742  0.00  0.00    -0.082 Cl
ATOM      5  C   UNL     1      34.825 -16.963 -22.050  0.00  0.00    +0.122 C 
ATOM      6  C   UNL     1      34.367 -16.188 -23.121  0.00  0.00    +0.019 C 
ATOM      7  C   UNL     1      33.912 -14.872 -22.869  0.00  0.00    +0.012 C 
ATOM      8  C   UNL     1      34.840 -16.466 -20.751  0.00  0.00    +0.020 C 
ATOM      9  C   UNL     1      34.347 -16.682 -24.436  0.00  0.00    +0.001 C 
ATOM     10  C   UNL     1      33.931 -14.379 -21.554  0.00  0.00    +0.001 C 
ATOM     11  C   UNL     1      34.393 -15.173 -20.503  0.00  0.00    +0.001 C 
ATOM     12  C   UNL     1      33.451 -14.088 -23.939  0.00  0.00    +0.058 C 
ATOM     13  C   UNL     1      33.885 -15.888 -25.487  0.00  0.00    +0.001 C 
ATOM     14  C   UNL     1      33.438 -14.594 -25.239  0.00  0.00    +0.011 C 
ENDBRANCH   1   5
BRANCH   1  15
ATOM     15  N   UNL     1      35.630 -19.115 -20.647  0.00  0.00    -0.179 NA
ATOM     16  H   UNL     1      34.831 -19.706 -20.412  0.00  0.00    +0.149 HD
BRANCH  15  17
ATOM     17  C   UNL     1      36.845 -19.866 -20.264  0.00  0.00    +0.091 C 
BRANCH  17  18
ATOM     18  C   UNL     1      36.504 -21.329 -19.995  0.00  0.00    +0.019 C 
BRANCH  18  19
ATOM     19  C   UNL     1      36.237 -21.605 -18.512  0.00  0.00    +0.001 C 
BRANCH  19  20
ATOM     20  C   UNL     1      34.936 -22.375 -18.261  0.00  0.00    -0.002 C 
BRANCH  20  21
ATOM     21  C   UNL     1      33.966 -22.338 -19.444  0.00  0.00    -0.024 C 
BRANCH  21  22
ATOM     22  C   UNL     1      32.965 -21.193 -19.299  0.00  0.00    -0.086 C 
BRANCH  22  23
ATOM     23  N   UNL     1      32.747 -20.542 -20.586  0.00  0.00    +0.380 N 
ATOM     24  H   UNL     1      32.659 -19.536 -20.447  0.00  0.00    -0.089 HD
ATOM     25  H   UNL     1      31.892 -20.904 -21.009  0.00  0.00    -0.089 HD
ATOM     26  H   UNL     1      33.538 -20.733 -21.201  0.00  0.00    -0.089 HD
ENDBRANCH  22  23
ENDBRANCH  21  22
ENDBRANCH  20  21
ENDBRANCH  19  20
ENDBRANCH  18  19
ENDBRANCH  17  18
ENDBRANCH  15  17
ENDBRANCH   1  15
TORSDOF 9
ENDMDL
MODEL 2
REMARK VINA RESULT:      -8.3      2.053      3.360
REMARK  Name = 5681
REMARK  9 active torsions:
REMARK  status: ('A' for Active; 'I' for Inactive)
REMARK    1  A    between atoms: S_1  and  C_5
REMARK    2  A    between atoms: S_1  and  N_15
REMARK    3  A    between atoms: N_15  and  C_17
REMARK    4  A    between atoms: C_17  and  C_18
REMARK    5  A    between atoms: C_18  and  C_19
REMARK    6  A    between atoms: C_19  and  C_20
REMARK    7  A    between atoms: C_20  and  C_21
REMARK    8  A    between atoms: C_21  and  C_22
REMARK    9  A    between atoms: C_22  and  N_23
REMARK                            x       y       z     vdW  Elec       q    Type
REMARK                         _______ _______ _______ _____ _____    ______ ____
ROOT
ATOM      1  S   UNL     1      35.807 -18.503 -21.399  0.00  0.00    +0.060 S 
ATOM      2  O   UNL     1      37.226 -18.718 -21.602  0.00  0.00    -0.153 OA
ATOM      3  O   UNL     1      35.347 -17.535 -20.422  0.00  0.00    -0.153 OA
ENDROOT
BRANCH   1   5
ATOM      4 CL   UNL     1      32.994 -14.693 -26.306  0.00  0.00    -0.082 Cl
ATOM      5  C   UNL     1      35.097 -18.045 -22.951  0.00  0.00    +0.122 C 
ATOM      6  C   UNL     1      34.675 -16.741 -23.229  0.00  0.00    +0.019 C 
ATOM      7  C   UNL     1      34.117 -16.457 -24.498  0.00  0.00    +0.012 C 
ATOM      8  C   UNL     1      34.978 -19.062 -23.894  0.00  0.00    +0.020 C 
ATOM      9  C   UNL     1      34.793 -15.709 -22.284  0.00  0.00    +0.001 C 
ATOM     10  C   UNL     1      34.001 -17.490 -25.443  0.00  0.00    +0.001 C 
ATOM     11  C   UNL     1      34.429 -18.782 -25.141  0.00  0.00    +0.001 C 
ATOM     12  C   UNL     1      33.692 -15.149 -24.784  0.00  0.00    +0.058 C 
ATOM     13  C   UNL     1      34.365 -14.415 -22.586  0.00  0.00    +0.001 C 
ATOM     14  C   UNL     1      33.815 -14.136 -23.834  0.00  0.00    +0.011 C 
ENDBRANCH   1   5
BRANCH   1  15
ATOM     15  N   UNL     1      35.049 -19.995 -21.095  0.00  0.00    -0.179 NA
ATOM     16  H   UNL     1      35.624 -20.482 -20.406  0.00  0.00    +0.149 HD
BRANCH  15  17
ATOM     17  C   UNL     1      33.659 -20.028 -20.593  0.00  0.00    +0.091 C 
BRANCH  17  18
ATOM     18  C   UNL     1      33.457 -21.221 -19.663  0.00  0.00    +0.019 C 
BRANCH  18  19
ATOM     19  C   UNL     1      34.723 -22.070 -19.516  0.00  0.00    +0.001 C 
BRANCH  19  20
ATOM     20  C   UNL     1      35.256 -22.125 -18.080  0.00  0.00    -0.002 C 
BRANCH  20  21
ATOM     21  C   UNL     1      36.722 -21.707 -17.954  0.00  0.00    -0.024 C 
BRANCH  21  22
ATOM     22  C   UNL     1      37.174 -21.716 -16.495  0.00  0.00    -0.086 C 
BRANCH  22  23
ATOM     23  N   UNL     1      37.853 -22.968 -16.181  0.00  0.00    +0.380 N 
ATOM     24  H   UNL     1      38.844 -22.785 -16.019  0.00  0.00    -0.089 HD
ATOM     25  H   UNL     1      37.750 -23.615 -16.963  0.00  0.00    -0.089 HD
ATOM     26  H   UNL     1      37.441 -23.378 -15.343  0.00  0.00    -0.089 HD
ENDBRANCH  22  23
ENDBRANCH  21  22
ENDBRANCH  20  21
ENDBRANCH  19  20
ENDBRANCH  18  19
ENDBRANCH  17  18
ENDBRANCH  15  17
ENDBRANCH   1  15
TORSDOF 9
ENDMDL
MODEL 3
REMARK VINA RESULT:      -8.2      4.720      8.938
REMARK  Name = 5681
REMARK  9 active torsions:
REMARK  status: ('A' for Active; 'I' for Inactive)
REMARK    1  A    between atoms: S_1  and  C_5
REMARK    2  A    between atoms: S_1  and  N_15
REMARK    3  A    between atoms: N_15  and  C_17
REMARK    4  A    between atoms: C_17  and  C_18
REMARK    5  A    between atoms: C_18  and  C_19
REMARK    6  A    between atoms: C_19  and  C_20
REMARK    7  A    between atoms: C_20  and  C_21
REMARK    8  A    between atoms: C_21  and  C_22
REMARK    9  A    between atoms: C_22  and  N_23
REMARK                            x       y       z     vdW  Elec       q    Type
REMARK                         _______ _______ _______ _____ _____    ______ ____
ROOT
ATOM      1  S   UNL     1      33.777 -22.602 -18.825  0.00  0.00    +0.060 S 
ATOM      2  O   UNL     1      34.015 -23.817 -19.580  0.00  0.00    -0.153 OA
ATOM      3  O   UNL     1      32.497 -22.385 -18.179  0.00  0.00    -0.153 OA
ENDROOT
BRANCH   1   5
ATOM      4 CL   UNL     1      36.904 -23.285 -12.803  0.00  0.00    -0.082 Cl
ATOM      5  C   UNL     1      35.015 -22.489 -17.569  0.00  0.00    +0.122 C 
ATOM      6  C   UNL     1      34.829 -23.007 -16.283  0.00  0.00    +0.019 C 
ATOM      7  C   UNL     1      35.871 -22.875 -15.335  0.00  0.00    +0.012 C 
ATOM      8  C   UNL     1      36.197 -21.851 -17.930  0.00  0.00    +0.020 C 
ATOM      9  C   UNL     1      33.640 -23.654 -15.911  0.00  0.00    +0.001 C 
ATOM     10  C   UNL     1      37.061 -22.228 -15.708  0.00  0.00    +0.001 C 
ATOM     11  C   UNL     1      37.221 -21.721 -16.998  0.00  0.00    +0.001 C 
ATOM     12  C   UNL     1      35.693 -23.393 -14.041  0.00  0.00    +0.058 C 
ATOM     13  C   UNL     1      33.481 -24.162 -14.621  0.00  0.00    +0.001 C 
ATOM     14  C   UNL     1      34.505 -24.032 -13.688  0.00  0.00    +0.011 C 
ENDBRANCH   1   5
BRANCH   1  15
ATOM     15  N   UNL     1      34.140 -21.254 -19.796  0.00  0.00    -0.179 NA
ATOM     16  H   UNL     1      34.640 -21.606 -20.613  0.00  0.00    +0.149 HD
BRANCH  15  17
ATOM     17  C   UNL     1      33.049 -20.393 -20.300  0.00  0.00    +0.091 C 
BRANCH  17  18
ATOM     18  C   UNL     1      33.607 -19.318 -21.230  0.00  0.00    +0.019 C 
BRANCH  18  19
ATOM     19  C   UNL     1      35.126 -19.165 -21.105  0.00  0.00    +0.001 C 
BRANCH  19  20
ATOM     20  C   UNL     1      35.778 -18.538 -22.341  0.00  0.00    -0.002 C 
BRANCH  20  21
ATOM     21  C   UNL     1      35.051 -18.863 -23.648  0.00  0.00    -0.024 C 
BRANCH  21  22
ATOM     22  C   UNL     1      34.790 -17.596 -24.461  0.00  0.00    -0.086 C 
BRANCH  22  23
ATOM     23  N   UNL     1      35.450 -16.451 -23.844  0.00  0.00    +0.380 N 
ATOM     24  H   UNL     1      36.096 -16.031 -24.512  0.00  0.00    -0.089 HD
ATOM     25  H   UNL     1      35.965 -16.760 -23.020  0.00  0.00    -0.089 HD
ATOM     26  H   UNL     1      34.749 -15.762 -23.569  0.00  0.00    -0.089 HD
ENDBRANCH  22  23
ENDBRANCH  21  22
ENDBRANCH  20  21
ENDBRANCH  19  20
ENDBRANCH  18  19
ENDBRANCH  17  18
ENDBRANCH  15  17
ENDBRANCH   1  15
TORSDOF 9
ENDMDL
MODEL 4
REMARK VINA RESULT:      -8.1      5.074      8.426
REMARK  Name = 5681
REMARK  9 active torsions:
REMARK  status: ('A' for Active; 'I' for Inactive)
REMARK    1  A    between atoms: S_1  and  C_5
REMARK    2  A    between atoms: S_1  and  N_15
REMARK    3  A    between atoms: N_15  and  C_17
REMARK    4  A    between atoms: C_17  and  C_18
REMARK    5  A    between atoms: C_18  and  C_19
REMARK    6  A    between atoms: C_19  and  C_20
REMARK    7  A    between atoms: C_20  and  C_21
REMARK    8  A    between atoms: C_21  and  C_22
REMARK    9  A    between atoms: C_22  and  N_23
REMARK                            x       y       z     vdW  Elec       q    Type
REMARK                         _______ _______ _______ _____ _____    ______ ____
ROOT
ATOM      1  S   UNL     1      32.959 -13.410 -23.678  0.00  0.00    +0.060 S 
ATOM      2  O   UNL     1      32.502 -14.070 -24.885  0.00  0.00    -0.153 OA
ATOM      3  O   UNL     1      32.027 -12.657 -22.861  0.00  0.00    -0.153 OA
ENDROOT
BRANCH   1   5
ATOM      4 CL   UNL     1      36.006 -19.177 -21.686  0.00  0.00    -0.082 Cl
ATOM      5  C   UNL     1      33.692 -14.630 -22.632  0.00  0.00    +0.122 C 
ATOM      6  C   UNL     1      34.200 -15.836 -23.126  0.00  0.00    +0.019 C 
ATOM      7  C   UNL     1      34.772 -16.761 -22.220  0.00  0.00    +0.012 C 
ATOM      8  C   UNL     1      33.739 -14.326 -21.275  0.00  0.00    +0.020 C 
ATOM      9  C   UNL     1      34.158 -16.151 -24.494  0.00  0.00    +0.001 C 
ATOM     10  C   UNL     1      34.814 -16.445 -20.852  0.00  0.00    +0.001 C 
ATOM     11  C   UNL     1      34.301 -15.235 -20.385  0.00  0.00    +0.001 C 
ATOM     12  C   UNL     1      35.284 -17.974 -22.708  0.00  0.00    +0.058 C 
ATOM     13  C   UNL     1      34.672 -17.362 -24.961  0.00  0.00    +0.001 C 
ATOM     14  C   UNL     1      35.234 -18.271 -24.070  0.00  0.00    +0.011 C 
ENDBRANCH   1   5
BRANCH   1  15
ATOM     15  N   UNL     1      34.291 -12.420 -24.047  0.00  0.00    -0.179 NA
ATOM     16  H   UNL     1      35.029 -13.035 -24.393  0.00  0.00    +0.149 HD
BRANCH  15  17
ATOM     17  C   UNL     1      34.148 -11.327 -25.033  0.00  0.00    +0.091 C 
BRANCH  17  18
ATOM     18  C   UNL     1      34.726 -10.028 -24.477  0.00  0.00    +0.019 C 
BRANCH  18  19
ATOM     19  C   UNL     1      33.784  -9.348 -23.479  0.00  0.00    +0.001 C 
BRANCH  19  20
ATOM     20  C   UNL     1      34.129  -7.878 -23.220  0.00  0.00    -0.002 C 
BRANCH  20  21
ATOM     21  C   UNL     1      33.095  -7.149 -22.360  0.00  0.00    -0.024 C 
BRANCH  21  22
ATOM     22  C   UNL     1      32.521  -8.074 -21.288  0.00  0.00    -0.086 C 
BRANCH  22  23
ATOM     23  N   UNL     1      33.011  -7.689 -19.969  0.00  0.00    +0.380 N 
ATOM     24  H   UNL     1      33.955  -7.311 -20.055  0.00  0.00    -0.089 HD
ATOM     25  H   UNL     1      33.027  -8.508 -19.360  0.00  0.00    -0.089 HD
ATOM     26  H   UNL     1      32.395  -6.981 -19.571  0.00  0.00    -0.089 HD
ENDBRANCH  22  23
ENDBRANCH  21  22
ENDBRANCH  20  21
ENDBRANCH  19  20
ENDBRANCH  18  19
ENDBRANCH  17  18
ENDBRANCH  15  17
ENDBRANCH   1  15
TORSDOF 9
ENDMDL
MODEL 5
REMARK VINA RESULT:      -8.0      5.038      8.654
REMARK  Name = 5681
REMARK  9 active torsions:
REMARK  status: ('A' for Active; 'I' for Inactive)
REMARK    1  A    between atoms: S_1  and  C_5
REMARK    2  A    between atoms: S_1  and  N_15
REMARK    3  A    between atoms: N_15  and  C_17
REMARK    4  A    between atoms: C_17  and  C_18
REMARK    5  A    between atoms: C_18  and  C_19
REMARK    6  A    between atoms: C_19  and  C_20
REMARK    7  A    between atoms: C_20  and  C_21
REMARK    8  A    between atoms: C_21  and  C_22
REMARK    9  A    between atoms: C_22  and  N_23
REMARK                            x       y       z     vdW  Elec       q    Type
REMARK                         _______ _______ _______ _____ _____    ______ ____
ROOT
ATOM      1  S   UNL     1      33.059 -13.743 -24.731  0.00  0.00    +0.060 S 
ATOM      2  O   UNL     1      32.739 -13.758 -26.144  0.00  0.00    -0.153 OA
ATOM      3  O   UNL     1      32.014 -13.522 -23.749  0.00  0.00    -0.153 OA
ENDROOT
BRANCH   1   5
ATOM      4 CL   UNL     1      35.914 -18.739 -21.070  0.00  0.00    -0.082 Cl
ATOM      5  C   UNL     1      33.826 -15.283 -24.328  0.00  0.00    +0.122 C 
ATOM      6  C   UNL     1      34.186 -15.624 -23.021  0.00  0.00    +0.019 C 
ATOM      7  C   UNL     1      34.796 -16.878 -22.783  0.00  0.00    +0.012 C 
ATOM      8  C   UNL     1      34.057 -16.149 -25.393  0.00  0.00    +0.020 C 
ATOM      9  C   UNL     1      33.955 -14.757 -21.940  0.00  0.00    +0.001 C 
ATOM     10  C   UNL     1      35.026 -17.746 -23.864  0.00  0.00    +0.001 C 
ATOM     11  C   UNL     1      34.657 -17.382 -25.159  0.00  0.00    +0.001 C 
ATOM     12  C   UNL     1      35.160 -17.228 -21.472  0.00  0.00    +0.058 C 
ATOM     13  C   UNL     1      34.324 -15.122 -20.644  0.00  0.00    +0.001 C 
ATOM     14  C   UNL     1      34.925 -16.355 -20.411  0.00  0.00    +0.011 C 
ENDBRANCH   1   5
BRANCH   1  15
ATOM     15  N   UNL     1      34.321 -12.639 -24.450  0.00  0.00    -0.179 NA
ATOM     16  H   UNL     1      35.182 -13.091 -24.762  0.00  0.00    +0.149 HD
BRANCH  15  17
ATOM     17  C   UNL     1      34.287 -11.302 -25.081  0.00  0.00    +0.091 C 
BRANCH  17  18
ATOM     18  C   UNL     1      33.757 -10.263 -24.097  0.00  0.00    +0.019 C 
BRANCH  18  19
ATOM     19  C   UNL     1      34.666  -9.034 -23.996  0.00  0.00    +0.001 C 
BRANCH  19  20
ATOM     20  C   UNL     1      34.055  -7.890 -23.181  0.00  0.00    -0.002 C 
BRANCH  20  21
ATOM     21  C   UNL     1      32.932  -8.339 -22.243  0.00  0.00    -0.024 C 
BRANCH  21  22
ATOM     22  C   UNL     1      32.623  -7.264 -21.202  0.00  0.00    -0.086 C 
BRANCH  22  23
ATOM     23  N   UNL     1      32.993  -7.726 -19.869  0.00  0.00    +0.380 N 
ATOM     24  H   UNL     1      33.375  -8.670 -19.932  0.00  0.00    -0.089 HD
ATOM     25  H   UNL     1      32.167  -7.732 -19.271  0.00  0.00    -0.089 HD
ATOM     26  H   UNL     1      33.695  -7.100 -19.475  0.00  0.00    -0.089 HD
ENDBRANCH  22  23
ENDBRANCH  21  22
ENDBRANCH  20  21
ENDBRANCH  19  20
ENDBRANCH  18  19
ENDBRANCH  17  18
ENDBRANCH  15  17
ENDBRANCH   1  15
TORSDOF 9
ENDMDL
MODEL 6
REMARK VINA RESULT:      -7.9      1.664      2.043
REMARK  Name = 5681
REMARK  9 active torsions:
REMARK  status: ('A' for Active; 'I' for Inactive)
REMARK    1  A    between atoms: S_1  and  C_5
REMARK    2  A    between atoms: S_1  and  N_15
REMARK    3  A    between atoms: N_15  and  C_17
REMARK    4  A    between atoms: C_17  and  C_18
REMARK    5  A    between atoms: C_18  and  C_19
REMARK    6  A    between atoms: C_19  and  C_20
REMARK    7  A    between atoms: C_20  and  C_21
REMARK    8  A    between atoms: C_21  and  C_22
REMARK    9  A    between atoms: C_22  and  N_23
REMARK                            x       y       z     vdW  Elec       q    Type
REMARK                         _______ _______ _______ _____ _____    ______ ____
ROOT
ATOM      1  S   UNL     1      35.345 -18.612 -22.202  0.00  0.00    +0.060 S 
ATOM      2  O   UNL     1      34.200 -19.408 -22.599  0.00  0.00    -0.153 OA
ATOM      3  O   UNL     1      36.544 -18.602 -23.019  0.00  0.00    -0.153 OA
ENDROOT
BRANCH   1   5
ATOM      4 CL   UNL     1      32.992 -12.429 -23.856  0.00  0.00    -0.082 Cl
ATOM      5  C   UNL     1      34.815 -16.934 -22.042  0.00  0.00    +0.122 C 
ATOM      6  C   UNL     1      34.370 -16.180 -23.132  0.00  0.00    +0.019 C 
ATOM      7  C   UNL     1      33.962 -14.842 -22.918  0.00  0.00    +0.012 C 
ATOM      8  C   UNL     1      34.865 -16.397 -20.759  0.00  0.00    +0.020 C 
ATOM      9  C   UNL     1      34.315 -16.715 -24.429  0.00  0.00    +0.001 C 
ATOM     10  C   UNL     1      34.016 -14.307 -21.620  0.00  0.00    +0.001 C 
ATOM     11  C   UNL     1      34.465 -15.081 -20.549  0.00  0.00    +0.001 C 
ATOM     12  C   UNL     1      33.513 -14.077 -24.007  0.00  0.00    +0.058 C 
ATOM     13  C   UNL     1      33.865 -15.941 -25.499  0.00  0.00    +0.001 C 
ATOM     14  C   UNL     1      33.466 -14.624 -25.289  0.00  0.00    +0.011 C 
ENDBRANCH   1   5
BRANCH   1  15
ATOM     15  N   UNL     1      35.772 -18.999 -20.602  0.00  0.00    -0.179 NA
ATOM     16  H   UNL     1      34.951 -18.812 -20.025  0.00  0.00    +0.149 HD
BRANCH  15  17
ATOM     17  C   UNL     1      36.226 -20.366 -20.269  0.00  0.00    +0.091 C 
BRANCH  17  18
ATOM     18  C   UNL     1      35.046 -21.225 -19.823  0.00  0.00    +0.019 C 
BRANCH  18  19
ATOM     19  C   UNL     1      35.360 -22.044 -18.567  0.00  0.00    +0.001 C 
BRANCH  19  20
ATOM     20  C   UNL     1      36.701 -21.680 -17.922  0.00  0.00    -0.002 C 
BRANCH  20  21
ATOM     21  C   UNL     1      36.798 -22.075 -16.447  0.00  0.00    -0.024 C 
BRANCH  21  22
ATOM     22  C   UNL     1      35.608 -22.939 -16.030  0.00  0.00    -0.086 C 
BRANCH  22  23
ATOM     23  N   UNL     1      35.260 -22.685 -14.636  0.00  0.00    +0.380 N 
ATOM     24  H   UNL     1      35.003 -23.563 -14.185  0.00  0.00    -0.089 HD
ATOM     25  H   UNL     1      34.474 -22.037 -14.595  0.00  0.00    -0.089 HD
ATOM     26  H   UNL     1      36.062 -22.277 -14.155  0.00  0.00    -0.089 HD
ENDBRANCH  22  23
ENDBRANCH  21  22
ENDBRANCH  20  21
ENDBRANCH  19  20
ENDBRANCH  18  19
ENDBRANCH  17  18
ENDBRANCH  15  17
ENDBRANCH   1  15
TORSDOF 9
ENDMDL
MODEL 7
REMARK VINA RESULT:      -7.9      2.800      4.089
REMARK  Name = 5681
REMARK  9 active torsions:
REMARK  status: ('A' for Active; 'I' for Inactive)
REMARK    1  A    between atoms: S_1  and  C_5
REMARK    2  A    between atoms: S_1  and  N_15
REMARK    3  A    between atoms: N_15  and  C_17
REMARK    4  A    between atoms: C_17  and  C_18
REMARK    5  A    between atoms: C_18  and  C_19
REMARK    6  A    between atoms: C_19  and  C_20
REMARK    7  A    between atoms: C_20  and  C_21
REMARK    8  A    between atoms: C_21  and  C_22
REMARK    9  A    between atoms: C_22  and  N_23
REMARK                            x       y       z     vdW  Elec       q    Type
REMARK                         _______ _______ _______ _____ _____    ______ ____
ROOT
ATOM      1  S   UNL     1      33.626 -15.614 -21.159  0.00  0.00    +0.060 S 
ATOM      2  O   UNL     1      34.673 -15.316 -20.202  0.00  0.00    -0.153 OA
ATOM      3  O   UNL     1      32.308 -16.011 -20.699  0.00  0.00    -0.153 OA
ENDROOT
BRANCH   1   5
ATOM      4 CL   UNL     1      31.703  -9.403 -23.219  0.00  0.00    -0.082 Cl
ATOM      5  C   UNL     1      33.407 -14.194 -22.188  0.00  0.00    +0.122 C 
ATOM      6  C   UNL     1      32.730 -13.049 -21.755  0.00  0.00    +0.019 C 
ATOM      7  C   UNL     1      32.599 -11.955 -22.642  0.00  0.00    +0.012 C 
ATOM      8  C   UNL     1      33.948 -14.276 -23.467  0.00  0.00    +0.020 C 
ATOM      9  C   UNL     1      32.182 -12.958 -20.465  0.00  0.00    +0.001 C 
ATOM     10  C   UNL     1      33.149 -12.046 -23.931  0.00  0.00    +0.001 C 
ATOM     11  C   UNL     1      33.819 -13.200 -24.339  0.00  0.00    +0.001 C 
ATOM     12  C   UNL     1      31.921 -10.801 -22.214  0.00  0.00    +0.058 C 
ATOM     13  C   UNL     1      31.512 -11.804 -20.057  0.00  0.00    +0.001 C 
ATOM     14  C   UNL     1      31.382 -10.727 -20.930  0.00  0.00    +0.011 C 
ENDBRANCH   1   5
BRANCH   1  15
ATOM     15  N   UNL     1      34.191 -16.768 -22.272  0.00  0.00    -0.179 NA
ATOM     16  H   UNL     1      34.191 -16.319 -23.189  0.00  0.00    +0.149 HD
BRANCH  15  17
ATOM     17  C   UNL     1      35.529 -17.373 -22.093  0.00  0.00    +0.091 C 
BRANCH  17  18
ATOM     18  C   UNL     1      35.425 -18.671 -21.298  0.00  0.00    +0.019 C 
BRANCH  18  19
ATOM     19  C   UNL     1      34.124 -19.429 -21.582  0.00  0.00    +0.001 C 
BRANCH  19  20
ATOM     20  C   UNL     1      33.629 -20.256 -20.391  0.00  0.00    -0.002 C 
BRANCH  20  21
ATOM     21  C   UNL     1      34.713 -21.134 -19.763  0.00  0.00    -0.024 C 
BRANCH  21  22
ATOM     22  C   UNL     1      34.098 -22.295 -18.983  0.00  0.00    -0.086 C 
BRANCH  22  23
ATOM     23  N   UNL     1      32.666 -22.083 -18.804  0.00  0.00    +0.380 N 
ATOM     24  H   UNL     1      32.492 -21.702 -17.874  0.00  0.00    -0.089 HD
ATOM     25  H   UNL     1      32.176 -22.972 -18.905  0.00  0.00    -0.089 HD
ATOM     26  H   UNL     1      32.328 -21.428 -19.509  0.00  0.00    -0.089 HD
ENDBRANCH  22  23
ENDBRANCH  21  22
ENDBRANCH  20  21
ENDBRANCH  19  20
ENDBRANCH  18  19
ENDBRANCH  17  18
ENDBRANCH  15  17
ENDBRANCH   1  15
TORSDOF 9
ENDMDL
MODEL 8
REMARK VINA RESULT:      -7.9      3.465      5.423
REMARK  Name = 5681
REMARK  9 active torsions:
REMARK  status: ('A' for Active; 'I' for Inactive)
REMARK    1  A    between atoms: S_1  and  C_5
REMARK    2  A    between atoms: S_1  and  N_15
REMARK    3  A    between atoms: N_15  and  C_17
REMARK    4  A    between atoms: C_17  and  C_18
REMARK    5  A    between atoms: C_18  and  C_19
REMARK    6  A    between atoms: C_19  and  C_20
REMARK    7  A    between atoms: C_20  and  C_21
REMARK    8  A    between atoms: C_21  and  C_22
REMARK    9  A    between atoms: C_22  and  N_23
REMARK                            x       y       z     vdW  Elec       q    Type
REMARK                         _______ _______ _______ _____ _____    ______ ____
ROOT
ATOM      1  S   UNL     1      33.391 -14.686 -22.354  0.00  0.00    +0.060 S 
ATOM      2  O   UNL     1      34.607 -14.798 -21.574  0.00  0.00    -0.153 OA
ATOM      3  O   UNL     1      32.122 -15.107 -21.790  0.00  0.00    -0.153 OA
ENDROOT
BRANCH   1   5
ATOM      4 CL   UNL     1      31.634  -8.099 -22.150  0.00  0.00    -0.082 Cl
ATOM      5  C   UNL     1      33.205 -12.996 -22.836  0.00  0.00    +0.122 C 
ATOM      6  C   UNL     1      32.566 -12.050 -22.028  0.00  0.00    +0.019 C 
ATOM      7  C   UNL     1      32.459 -10.716 -22.488  0.00  0.00    +0.012 C 
ATOM      8  C   UNL     1      33.733 -12.652 -24.077  0.00  0.00    +0.020 C 
ATOM      9  C   UNL     1      32.032 -12.389 -20.774  0.00  0.00    +0.001 C 
ATOM     10  C   UNL     1      32.995 -10.378 -23.742  0.00  0.00    +0.001 C 
ATOM     11  C   UNL     1      33.627 -11.341 -24.529  0.00  0.00    +0.001 C 
ATOM     12  C   UNL     1      31.820  -9.760 -21.682  0.00  0.00    +0.058 C 
ATOM     13  C   UNL     1      31.400 -11.425 -19.987  0.00  0.00    +0.001 C 
ATOM     14  C   UNL     1      31.294 -10.114 -20.440  0.00  0.00    +0.011 C 
ENDBRANCH   1   5
BRANCH   1  15
ATOM     15  N   UNL     1      33.609 -15.456 -23.854  0.00  0.00    -0.179 NA
ATOM     16  H   UNL     1      33.546 -14.730 -24.569  0.00  0.00    +0.149 HD
BRANCH  15  17
ATOM     17  C   UNL     1      34.851 -16.213 -24.121  0.00  0.00    +0.091 C 
BRANCH  17  18
ATOM     18  C   UNL     1      34.615 -17.255 -25.211  0.00  0.00    +0.019 C 
BRANCH  18  19
ATOM     19  C   UNL     1      34.510 -18.676 -24.650  0.00  0.00    +0.001 C 
BRANCH  19  20
ATOM     20  C   UNL     1      35.275 -18.870 -23.336  0.00  0.00    -0.002 C 
BRANCH  20  21
ATOM     21  C   UNL     1      34.406 -19.403 -22.195  0.00  0.00    -0.024 C 
BRANCH  21  22
ATOM     22  C   UNL     1      34.136 -18.317 -21.155  0.00  0.00    -0.086 C 
BRANCH  22  23
ATOM     23  N   UNL     1      35.375 -17.634 -20.802  0.00  0.00    +0.380 N 
ATOM     24  H   UNL     1      36.028 -18.303 -20.394  0.00  0.00    -0.089 HD
ATOM     25  H   UNL     1      35.176 -16.897 -20.125  0.00  0.00    -0.089 HD
ATOM     26  H   UNL     1      35.787 -17.223 -21.639  0.00  0.00    -0.089 HD
ENDBRANCH  22  23
ENDBRANCH  21  22
ENDBRANCH  20  21
ENDBRANCH  19  20
ENDBRANCH  18  19
ENDBRANCH  17  18
ENDBRANCH  15  17
ENDBRANCH   1  15
TORSDOF 9
ENDMDL
MODEL 9
REMARK VINA RESULT:      -7.9      4.505      6.375
REMARK  Name = 5681
REMARK  9 active torsions:
REMARK  status: ('A' for Active; 'I' for Inactive)
REMARK    1  A    between atoms: S_1  and  C_5
REMARK    2  A    between atoms: S_1  and  N_15
REMARK    3  A    between atoms: N_15  and  C_17
REMARK    4  A    between atoms: C_17  and  C_18
REMARK    5  A    between atoms: C_18  and  C_19
REMARK    6  A    between atoms: C_19  and  C_20
REMARK    7  A    between atoms: C_20  and  C_21
REMARK    8  A    between atoms: C_21  and  C_22
REMARK    9  A    between atoms: C_22  and  N_23
REMARK                            x       y       z     vdW  Elec       q    Type
REMARK                         _______ _______ _______ _____ _____    ______ ____
ROOT
ATOM      1  S   UNL     1      33.682 -23.059 -18.155  0.00  0.00    +0.060 S 
ATOM      2  O   UNL     1      32.459 -22.351 -17.830  0.00  0.00    -0.153 OA
ATOM      3  O   UNL     1      33.640 -24.244 -18.990  0.00  0.00    -0.153 OA
ENDROOT
BRANCH   1   5
ATOM      4 CL   UNL     1      35.930 -17.993 -22.130  0.00  0.00    -0.082 Cl
ATOM      5  C   UNL     1      34.782 -21.917 -18.936  0.00  0.00    +0.122 C 
ATOM      6  C   UNL     1      34.343 -20.959 -19.855  0.00  0.00    +0.019 C 
ATOM      7  C   UNL     1      35.289 -20.082 -20.435  0.00  0.00    +0.012 C 
ATOM      8  C   UNL     1      36.125 -22.023 -18.585  0.00  0.00    +0.020 C 
ATOM      9  C   UNL     1      32.989 -20.845 -20.214  0.00  0.00    +0.001 C 
ATOM     10  C   UNL     1      36.642 -20.196 -20.075  0.00  0.00    +0.001 C 
ATOM     11  C   UNL     1      37.055 -21.160 -19.156  0.00  0.00    +0.001 C 
ATOM     12  C   UNL     1      34.855 -19.117 -21.359  0.00  0.00    +0.058 C 
ATOM     13  C   UNL     1      32.577 -19.880 -21.134  0.00  0.00    +0.001 C 
ATOM     14  C   UNL     1      33.508 -19.018 -21.705  0.00  0.00    +0.011 C 
ENDBRANCH   1   5
BRANCH   1  15
ATOM     15  N   UNL     1      34.520 -23.425 -16.721  0.00  0.00    -0.179 NA
ATOM     16  H   UNL     1      35.438 -22.985 -16.795  0.00  0.00    +0.149 HD
BRANCH  15  17
ATOM     17  C   UNL     1      33.957 -23.023 -15.414  0.00  0.00    +0.091 C 
BRANCH  17  18
ATOM     18  C   UNL     1      33.681 -24.251 -14.552  0.00  0.00    +0.019 C 
BRANCH  18  19
ATOM     19  C   UNL     1      32.319 -24.183 -13.854  0.00  0.00    +0.001 C 
BRANCH  19  20
ATOM     20  C   UNL     1      31.302 -23.303 -14.588  0.00  0.00    -0.002 C 
BRANCH  20  21
ATOM     21  C   UNL     1      30.408 -24.079 -15.557  0.00  0.00    -0.024 C 
BRANCH  21  22
ATOM     22  C   UNL     1      30.105 -25.479 -15.024  0.00  0.00    -0.086 C 
BRANCH  22  23
ATOM     23  N   UNL     1      28.846 -25.479 -14.286  0.00  0.00    +0.380 N 
ATOM     24  H   UNL     1      28.109 -25.089 -14.872  0.00  0.00    -0.089 HD
ATOM     25  H   UNL     1      28.947 -24.914 -13.443  0.00  0.00    -0.089 HD
ATOM     26  H   UNL     1      28.605 -26.436 -14.027  0.00  0.00    -0.089 HD
ENDBRANCH  22  23
ENDBRANCH  21  22
ENDBRANCH  20  21
ENDBRANCH  19  20
ENDBRANCH  18  19
ENDBRANCH  17  18
ENDBRANCH  15  17
ENDBRANCH   1  15
TORSDOF 9
ENDMDL
