MODEL 1
REMARK VINA RESULT:      -7.3      0.000      0.000
REMARK  Name = 2783
REMARK  6 active torsions:
REMARK  status: ('A' for Active; 'I' for Inactive)
REMARK    1  A    between atoms: C_1  and  C_4
REMARK    2  A    between atoms: C_1  and  O_13
REMARK    3  A    between atoms: C_1  and  C_15
REMARK    4  A    between atoms: C_9  and  N_10
REMARK    5  A    between atoms: C_15  and  N_16
REMARK    6  A    between atoms: N_16  and  C_19
REMARK                            x       y       z     vdW  Elec       q    Type
REMARK                         _______ _______ _______ _____ _____    ______ ____
ROOT
ATOM      1  C   UNL     1      34.444 -16.100 -22.920  0.00  0.00    +0.112 C 
ENDROOT
BRANCH   1   4
ATOM      2 CL   UNL     1      33.786 -11.558 -25.323  0.00  0.00    -0.081 Cl
ATOM      3 CL   UNL     1      31.737 -12.505 -20.353  0.00  0.00    -0.081 Cl
ATOM      4  C   UNL     1      33.866 -14.703 -22.892  0.00  0.00    +0.004 C 
ATOM      5  C   UNL     1      33.154 -14.287 -21.780  0.00  0.00    +0.011 C 
ATOM      6  C   UNL     1      34.062 -13.868 -23.979  0.00  0.00    +0.011 C 
ATOM      7  C   UNL     1      33.529 -12.580 -23.954  0.00  0.00    +0.071 C 
ATOM      8  C   UNL     1      32.621 -12.998 -21.753  0.00  0.00    +0.071 C 
ATOM      9  C   UNL     1      32.808 -12.145 -22.841  0.00  0.00    +0.063 C 
BRANCH   9  10
ATOM     10  N   UNL     1      32.268 -10.836 -22.814  0.00  0.00    -0.356 N 
ATOM     11  H   UNL     1      32.868 -10.055 -22.808  0.00  0.00    +0.142 HD
ATOM     12  H   UNL     1      31.292 -10.706 -22.804  0.00  0.00    +0.142 HD
ENDBRANCH   9  10
ENDBRANCH   1   4
BRANCH   1  13
ATOM     13  O   UNL     1      35.651 -16.068 -23.681  0.00  0.00    -0.382 OA
ATOM     14  H   UNL     1      36.411 -16.158 -23.085  0.00  0.00    +0.211 HD
ENDBRANCH   1  13
BRANCH   1  15
ATOM     15  C   UNL     1      34.721 -16.622 -21.505  0.00  0.00    -0.047 C 
BRANCH  15  16
ATOM     16  N   UNL     1      33.952 -17.826 -21.238  0.00  0.00    +0.388 N 
ATOM     17  H   UNL     1      33.626 -17.808 -20.272  0.00  0.00    -0.084 HD
ATOM     18  H   UNL     1      33.158 -17.857 -21.878  0.00  0.00    -0.084 HD
BRANCH  16  19
ATOM     19  C   UNL     1      34.776 -19.021 -21.447  0.00  0.00    -0.046 C 
ATOM     20  C   UNL     1      34.230 -20.150 -20.567  0.00  0.00    -0.022 C 
ATOM     21  C   UNL     1      34.691 -19.420 -22.925  0.00  0.00    -0.022 C 
ATOM     22  C   UNL     1      36.228 -18.711 -21.067  0.00  0.00    -0.022 C 
ENDBRANCH  16  19
ENDBRANCH  15  16
ENDBRANCH   1  15
TORSDOF 6
ENDMDL
MODEL 2
REMARK VINA RESULT:      -7.3      0.007      2.209
REMARK  Name = 2783
REMARK  6 active torsions:
REMARK  status: ('A' for Active; 'I' for Inactive)
REMARK    1  A    between atoms: C_1  and  C_4
REMARK    2  A    between atoms: C_1  and  O_13
REMARK    3  A    between atoms: C_1  and  C_15
REMARK    4  A    between atoms: C_9  and  N_10
REMARK    5  A    between atoms: C_15  and  N_16
REMARK    6  A    between atoms: N_16  and  C_19
REMARK                            x       y       z     vdW  Elec       q    Type
REMARK                         _______ _______ _______ _____ _____    ______ ____
ROOT
ATOM      1  C   UNL     1      34.450 -16.097 -22.919  0.00  0.00    +0.112 C 
ENDROOT
BRANCH   1   4
ATOM      2 CL   UNL     1      31.734 -12.511 -20.349  0.00  0.00    -0.081 Cl
ATOM      3 CL   UNL     1      33.787 -11.552 -25.316  0.00  0.00    -0.081 Cl
ATOM      4  C   UNL     1      33.870 -14.700 -22.889  0.00  0.00    +0.004 C 
ATOM      5  C   UNL     1      34.065 -13.864 -23.975  0.00  0.00    +0.011 C 
ATOM      6  C   UNL     1      33.156 -14.288 -21.778  0.00  0.00    +0.011 C 
ATOM      7  C   UNL     1      32.621 -13.001 -21.749  0.00  0.00    +0.071 C 
ATOM      8  C   UNL     1      33.530 -12.575 -23.948  0.00  0.00    +0.071 C 
ATOM      9  C   UNL     1      32.808 -12.144 -22.835  0.00  0.00    +0.063 C 
BRANCH   9  10
ATOM     10  N   UNL     1      32.264 -10.837 -22.807  0.00  0.00    -0.356 N 
ATOM     11  H   UNL     1      32.581 -10.158 -23.447  0.00  0.00    +0.142 HD
ATOM     12  H   UNL     1      31.569 -10.606 -22.149  0.00  0.00    +0.142 HD
ENDBRANCH   9  10
ENDBRANCH   1   4
BRANCH   1  13
ATOM     13  O   UNL     1      35.660 -16.060 -23.676  0.00  0.00    -0.382 OA
ATOM     14  H   UNL     1      36.413 -16.236 -23.090  0.00  0.00    +0.211 HD
ENDBRANCH   1  13
BRANCH   1  15
ATOM     15  C   UNL     1      34.724 -16.622 -21.505  0.00  0.00    -0.047 C 
BRANCH  15  16
ATOM     16  N   UNL     1      33.951 -17.825 -21.242  0.00  0.00    +0.388 N 
ATOM     17  H   UNL     1      33.619 -17.806 -20.278  0.00  0.00    -0.084 HD
ATOM     18  H   UNL     1      33.162 -17.856 -21.886  0.00  0.00    -0.084 HD
BRANCH  16  19
ATOM     19  C   UNL     1      34.776 -19.021 -21.446  0.00  0.00    -0.046 C 
ATOM     20  C   UNL     1      34.227 -20.148 -20.565  0.00  0.00    -0.022 C 
ATOM     21  C   UNL     1      34.696 -19.422 -22.922  0.00  0.00    -0.022 C 
ATOM     22  C   UNL     1      36.227 -18.711 -21.061  0.00  0.00    -0.022 C 
ENDBRANCH  16  19
ENDBRANCH  15  16
ENDBRANCH   1  15
TORSDOF 6
ENDMDL
MODEL 3
REMARK VINA RESULT:      -7.3      6.232      9.590
REMARK  Name = 2783
REMARK  6 active torsions:
REMARK  status: ('A' for Active; 'I' for Inactive)
REMARK    1  A    between atoms: C_1  and  C_4
REMARK    2  A    between atoms: C_1  and  O_13
REMARK    3  A    between atoms: C_1  and  C_15
REMARK    4  A    between atoms: C_9  and  N_10
REMARK    5  A    between atoms: C_15  and  N_16
REMARK    6  A    between atoms: N_16  and  C_19
REMARK                            x       y       z     vdW  Elec       q    Type
REMARK                         _______ _______ _______ _____ _____    ______ ____
ROOT
ATOM      1  C   UNL     1      34.209 -22.054 -19.704  0.00  0.00    +0.112 C 
ENDROOT
BRANCH   1   4
ATOM      2 CL   UNL     1      32.165 -23.857 -15.298  0.00  0.00    -0.081 Cl
ATOM      3 CL   UNL     1      37.401 -22.348 -15.634  0.00  0.00    -0.081 Cl
ATOM      4  C   UNL     1      34.406 -22.414 -18.248  0.00  0.00    +0.004 C 
ATOM      5  C   UNL     1      35.653 -22.241 -17.672  0.00  0.00    +0.011 C 
ATOM      6  C   UNL     1      33.336 -22.909 -17.523  0.00  0.00    +0.011 C 
ATOM      7  C   UNL     1      33.517 -23.242 -16.181  0.00  0.00    +0.071 C 
ATOM      8  C   UNL     1      35.835 -22.574 -16.329  0.00  0.00    +0.071 C 
ATOM      9  C   UNL     1      34.767 -23.073 -15.584  0.00  0.00    +0.063 C 
BRANCH   9  10
ATOM     10  N   UNL     1      34.952 -23.410 -14.221  0.00  0.00    -0.356 N 
ATOM     11  H   UNL     1      34.213 -23.814 -13.709  0.00  0.00    +0.142 HD
ATOM     12  H   UNL     1      35.818 -23.243 -13.785  0.00  0.00    +0.142 HD
ENDBRANCH   9  10
ENDBRANCH   1   4
BRANCH   1  13
ATOM     13  O   UNL     1      32.816 -21.831 -19.923  0.00  0.00    -0.382 OA
ATOM     14  H   UNL     1      32.413 -21.488 -19.110  0.00  0.00    +0.211 HD
ENDBRANCH   1  13
BRANCH   1  15
ATOM     15  C   UNL     1      35.014 -20.807 -20.088  0.00  0.00    -0.047 C 
BRANCH  15  16
ATOM     16  N   UNL     1      34.152 -19.798 -20.680  0.00  0.00    +0.388 N 
ATOM     17  H   UNL     1      33.450 -20.255 -21.262  0.00  0.00    -0.084 HD
ATOM     18  H   UNL     1      33.701 -19.272 -19.932  0.00  0.00    -0.084 HD
BRANCH  16  19
ATOM     19  C   UNL     1      34.934 -18.872 -21.506  0.00  0.00    -0.046 C 
ATOM     20  C   UNL     1      34.415 -17.449 -21.270  0.00  0.00    -0.022 C 
ATOM     21  C   UNL     1      36.405 -18.970 -21.087  0.00  0.00    -0.022 C 
ATOM     22  C   UNL     1      34.779 -19.251 -22.983  0.00  0.00    -0.022 C 
ENDBRANCH  16  19
ENDBRANCH  15  16
ENDBRANCH   1  15
TORSDOF 6
ENDMDL
MODEL 4
REMARK VINA RESULT:      -7.3      6.234      9.447
REMARK  Name = 2783
REMARK  6 active torsions:
REMARK  status: ('A' for Active; 'I' for Inactive)
REMARK    1  A    between atoms: C_1  and  C_4
REMARK    2  A    between atoms: C_1  and  O_13
REMARK    3  A    between atoms: C_1  and  C_15
REMARK    4  A    between atoms: C_9  and  N_10
REMARK    5  A    between atoms: C_15  and  N_16
REMARK    6  A    between atoms: N_16  and  C_19
REMARK                            x       y       z     vdW  Elec       q    Type
REMARK                         _______ _______ _______ _____ _____    ______ ____
ROOT
ATOM      1  C   UNL     1      34.185 -22.047 -19.711  0.00  0.00    +0.112 C 
ENDROOT
BRANCH   1   4
ATOM      2 CL   UNL     1      37.361 -22.401 -15.632  0.00  0.00    -0.081 Cl
ATOM      3 CL   UNL     1      32.110 -23.862 -15.325  0.00  0.00    -0.081 Cl
ATOM      4  C   UNL     1      34.374 -22.419 -18.257  0.00  0.00    +0.004 C 
ATOM      5  C   UNL     1      33.297 -22.909 -17.539  0.00  0.00    +0.011 C 
ATOM      6  C   UNL     1      35.620 -22.263 -17.675  0.00  0.00    +0.011 C 
ATOM      7  C   UNL     1      35.795 -22.606 -16.335  0.00  0.00    +0.071 C 
ATOM      8  C   UNL     1      33.471 -23.253 -16.198  0.00  0.00    +0.071 C 
ATOM      9  C   UNL     1      34.720 -23.101 -15.596  0.00  0.00    +0.063 C 
BRANCH   9  10
ATOM     10  N   UNL     1      34.897 -23.450 -14.235  0.00  0.00    -0.356 N 
ATOM     11  H   UNL     1      35.594 -24.097 -13.979  0.00  0.00    +0.142 HD
ATOM     12  H   UNL     1      34.324 -23.045 -13.544  0.00  0.00    +0.142 HD
ENDBRANCH   9  10
ENDBRANCH   1   4
BRANCH   1  13
ATOM     13  O   UNL     1      32.794 -21.819 -19.935  0.00  0.00    -0.382 OA
ATOM     14  H   UNL     1      32.343 -22.670 -20.054  0.00  0.00    +0.211 HD
ENDBRANCH   1  13
BRANCH   1  15
ATOM     15  C   UNL     1      34.994 -20.797 -20.080  0.00  0.00    -0.047 C 
BRANCH  15  16
ATOM     16  N   UNL     1      34.142 -19.793 -20.695  0.00  0.00    +0.388 N 
ATOM     17  H   UNL     1      33.453 -20.256 -21.288  0.00  0.00    -0.084 HD
ATOM     18  H   UNL     1      33.675 -19.264 -19.959  0.00  0.00    -0.084 HD
BRANCH  16  19
ATOM     19  C   UNL     1      34.939 -18.871 -21.511  0.00  0.00    -0.046 C 
ATOM     20  C   UNL     1      36.408 -18.992 -21.089  0.00  0.00    -0.022 C 
ATOM     21  C   UNL     1      34.782 -19.262 -22.984  0.00  0.00    -0.022 C 
ATOM     22  C   UNL     1      34.444 -17.437 -21.290  0.00  0.00    -0.022 C 
ENDBRANCH  16  19
ENDBRANCH  15  16
ENDBRANCH   1  15
TORSDOF 6
ENDMDL
MODEL 5
REMARK VINA RESULT:      -7.3      1.527      2.919
REMARK  Name = 2783
REMARK  6 active torsions:
REMARK  status: ('A' for Active; 'I' for Inactive)
REMARK    1  A    between atoms: C_1  and  C_4
REMARK    2  A    between atoms: C_1  and  O_13
REMARK    3  A    between atoms: C_1  and  C_15
REMARK    4  A    between atoms: C_9  and  N_10
REMARK    5  A    between atoms: C_15  and  N_16
REMARK    6  A    between atoms: N_16  and  C_19
REMARK                            x       y       z     vdW  Elec       q    Type
REMARK                         _______ _______ _______ _____ _____    ______ ____
ROOT
ATOM      1  C   UNL     1      33.156 -15.579 -20.838  0.00  0.00    +0.112 C 
ENDROOT
BRANCH   1   4
ATOM      2 CL   UNL     1      30.863 -10.966 -20.287  0.00  0.00    -0.081 Cl
ATOM      3 CL   UNL     1      33.775 -12.218 -24.731  0.00  0.00    -0.081 Cl
ATOM      4  C   UNL     1      32.868 -14.210 -21.412  0.00  0.00    +0.004 C 
ATOM      5  C   UNL     1      33.384 -13.875 -22.652  0.00  0.00    +0.011 C 
ATOM      6  C   UNL     1      32.095 -13.321 -20.685  0.00  0.00    +0.011 C 
ATOM      7  C   UNL     1      31.831 -12.058 -21.214  0.00  0.00    +0.071 C 
ATOM      8  C   UNL     1      33.120 -12.611 -23.182  0.00  0.00    +0.071 C 
ATOM      9  C   UNL     1      32.343 -11.703 -22.463  0.00  0.00    +0.063 C 
BRANCH   9  10
ATOM     10  N   UNL     1      32.073 -10.421 -23.000  0.00  0.00    -0.356 N 
ATOM     11  H   UNL     1      32.471  -9.620 -22.587  0.00  0.00    +0.142 HD
ATOM     12  H   UNL     1      31.490 -10.330 -23.789  0.00  0.00    +0.142 HD
ENDBRANCH   9  10
ENDBRANCH   1   4
BRANCH   1  13
ATOM     13  O   UNL     1      31.929 -16.306 -20.785  0.00  0.00    -0.382 OA
ATOM     14  H   UNL     1      31.269 -15.792 -20.294  0.00  0.00    +0.211 HD
ENDBRANCH   1  13
BRANCH   1  15
ATOM     15  C   UNL     1      34.187 -16.337 -21.682  0.00  0.00    -0.047 C 
BRANCH  15  16
ATOM     16  N   UNL     1      35.022 -17.180 -20.843  0.00  0.00    +0.388 N 
ATOM     17  H   UNL     1      35.947 -16.759 -20.759  0.00  0.00    -0.084 HD
ATOM     18  H   UNL     1      34.588 -17.263 -19.924  0.00  0.00    -0.084 HD
BRANCH  16  19
ATOM     19  C   UNL     1      35.154 -18.520 -21.427  0.00  0.00    -0.046 C 
ATOM     20  C   UNL     1      35.245 -18.380 -22.951  0.00  0.00    -0.022 C 
ATOM     21  C   UNL     1      36.431 -19.167 -20.882  0.00  0.00    -0.022 C 
ATOM     22  C   UNL     1      33.932 -19.363 -21.048  0.00  0.00    -0.022 C 
ENDBRANCH  16  19
ENDBRANCH  15  16
ENDBRANCH   1  15
TORSDOF 6
ENDMDL
MODEL 6
REMARK VINA RESULT:      -7.3      2.040      2.721
REMARK  Name = 2783
REMARK  6 active torsions:
REMARK  status: ('A' for Active; 'I' for Inactive)
REMARK    1  A    between atoms: C_1  and  C_4
REMARK    2  A    between atoms: C_1  and  O_13
REMARK    3  A    between atoms: C_1  and  C_15
REMARK    4  A    between atoms: C_9  and  N_10
REMARK    5  A    between atoms: C_15  and  N_16
REMARK    6  A    between atoms: N_16  and  C_19
REMARK                            x       y       z     vdW  Elec       q    Type
REMARK                         _______ _______ _______ _____ _____    ______ ____
ROOT
ATOM      1  C   UNL     1      34.552 -15.715 -21.634  0.00  0.00    +0.112 C 
ENDROOT
BRANCH   1   4
ATOM      2 CL   UNL     1      33.835 -11.163 -24.003  0.00  0.00    -0.081 Cl
ATOM      3 CL   UNL     1      32.947 -15.906 -26.556  0.00  0.00    -0.081 Cl
ATOM      4  C   UNL     1      34.153 -14.966 -22.886  0.00  0.00    +0.004 C 
ATOM      5  C   UNL     1      33.778 -15.681 -24.011  0.00  0.00    +0.011 C 
ATOM      6  C   UNL     1      34.171 -13.582 -22.881  0.00  0.00    +0.011 C 
ATOM      7  C   UNL     1      33.804 -12.891 -24.035  0.00  0.00    +0.071 C 
ATOM      8  C   UNL     1      33.410 -14.990 -25.166  0.00  0.00    +0.071 C 
ATOM      9  C   UNL     1      33.423 -13.595 -25.178  0.00  0.00    +0.063 C 
BRANCH   9  10
ATOM     10  N   UNL     1      33.049 -12.894 -26.350  0.00  0.00    -0.356 N 
ATOM     11  H   UNL     1      32.116 -12.605 -26.475  0.00  0.00    +0.142 HD
ATOM     12  H   UNL     1      33.723 -12.693 -27.040  0.00  0.00    +0.142 HD
ENDBRANCH   9  10
ENDBRANCH   1   4
BRANCH   1  13
ATOM     13  O   UNL     1      33.385 -15.895 -20.832  0.00  0.00    -0.382 OA
ATOM     14  H   UNL     1      32.705 -16.355 -21.349  0.00  0.00    +0.211 HD
ENDBRANCH   1  13
BRANCH   1  15
ATOM     15  C   UNL     1      35.181 -17.073 -21.968  0.00  0.00    -0.047 C 
BRANCH  15  16
ATOM     16  N   UNL     1      35.111 -17.970 -20.826  0.00  0.00    +0.388 N 
ATOM     17  H   UNL     1      36.026 -18.011 -20.376  0.00  0.00    -0.084 HD
ATOM     18  H   UNL     1      34.413 -17.616 -20.174  0.00  0.00    -0.084 HD
BRANCH  16  19
ATOM     19  C   UNL     1      34.722 -19.318 -21.254  0.00  0.00    -0.046 C 
ATOM     20  C   UNL     1      33.276 -19.570 -20.814  0.00  0.00    -0.022 C 
ATOM     21  C   UNL     1      34.828 -19.395 -22.780  0.00  0.00    -0.022 C 
ATOM     22  C   UNL     1      35.656 -20.347 -20.607  0.00  0.00    -0.022 C 
ENDBRANCH  16  19
ENDBRANCH  15  16
ENDBRANCH   1  15
TORSDOF 6
ENDMDL
MODEL 7
REMARK VINA RESULT:      -7.2      1.534      2.048
REMARK  Name = 2783
REMARK  6 active torsions:
REMARK  status: ('A' for Active; 'I' for Inactive)
REMARK    1  A    between atoms: C_1  and  C_4
REMARK    2  A    between atoms: C_1  and  O_13
REMARK    3  A    between atoms: C_1  and  C_15
REMARK    4  A    between atoms: C_9  and  N_10
REMARK    5  A    between atoms: C_15  and  N_16
REMARK    6  A    between atoms: N_16  and  C_19
REMARK                            x       y       z     vdW  Elec       q    Type
REMARK                         _______ _______ _______ _____ _____    ______ ____
ROOT
ATOM      1  C   UNL     1      33.182 -15.473 -20.802  0.00  0.00    +0.112 C 
ENDROOT
BRANCH   1   4
ATOM      2 CL   UNL     1      33.695 -12.126 -24.722  0.00  0.00    -0.081 Cl
ATOM      3 CL   UNL     1      30.834 -10.889 -20.241  0.00  0.00    -0.081 Cl
ATOM      4  C   UNL     1      32.867 -14.111 -21.379  0.00  0.00    +0.004 C 
ATOM      5  C   UNL     1      32.093 -13.229 -20.645  0.00  0.00    +0.011 C 
ATOM      6  C   UNL     1      33.359 -13.776 -22.628  0.00  0.00    +0.011 C 
ATOM      7  C   UNL     1      33.069 -12.520 -23.161  0.00  0.00    +0.071 C 
ATOM      8  C   UNL     1      31.802 -11.972 -21.177  0.00  0.00    +0.071 C 
ATOM      9  C   UNL     1      32.290 -11.618 -22.435  0.00  0.00    +0.063 C 
BRANCH   9  10
ATOM     10  N   UNL     1      31.995 -10.343 -22.975  0.00  0.00    -0.356 N 
ATOM     11  H   UNL     1      31.080 -10.134 -23.275  0.00  0.00    +0.142 HD
ATOM     12  H   UNL     1      32.704  -9.663 -23.050  0.00  0.00    +0.142 HD
ENDBRANCH   9  10
ENDBRANCH   1   4
BRANCH   1  13
ATOM     13  O   UNL     1      31.986 -16.253 -20.822  0.00  0.00    -0.382 OA
ATOM     14  H   UNL     1      32.179 -17.129 -21.190  0.00  0.00    +0.211 HD
ENDBRANCH   1  13
BRANCH   1  15
ATOM     15  C   UNL     1      34.288 -16.178 -21.595  0.00  0.00    -0.047 C 
BRANCH  15  16
ATOM     16  N   UNL     1      35.013 -17.114 -20.753  0.00  0.00    +0.388 N 
ATOM     17  H   UNL     1      35.951 -16.753 -20.579  0.00  0.00    -0.084 HD
ATOM     18  H   UNL     1      34.509 -17.222 -19.873  0.00  0.00    -0.084 HD
BRANCH  16  19
ATOM     19  C   UNL     1      35.113 -18.424 -21.406  0.00  0.00    -0.046 C 
ATOM     20  C   UNL     1      35.140 -18.212 -22.923  0.00  0.00    -0.022 C 
ATOM     21  C   UNL     1      36.409 -19.100 -20.947  0.00  0.00    -0.022 C 
ATOM     22  C   UNL     1      33.904 -19.281 -21.015  0.00  0.00    -0.022 C 
ENDBRANCH  16  19
ENDBRANCH  15  16
ENDBRANCH   1  15
TORSDOF 6
ENDMDL
MODEL 8
REMARK VINA RESULT:      -7.2     10.164     11.884
REMARK  Name = 2783
REMARK  6 active torsions:
REMARK  status: ('A' for Active; 'I' for Inactive)
REMARK    1  A    between atoms: C_1  and  C_4
REMARK    2  A    between atoms: C_1  and  O_13
REMARK    3  A    between atoms: C_1  and  C_15
REMARK    4  A    between atoms: C_9  and  N_10
REMARK    5  A    between atoms: C_15  and  N_16
REMARK    6  A    between atoms: N_16  and  C_19
REMARK                            x       y       z     vdW  Elec       q    Type
REMARK                         _______ _______ _______ _____ _____    ______ ____
ROOT
ATOM      1  C   UNL     1      35.343 -24.203 -14.226  0.00  0.00    +0.112 C 
ENDROOT
BRANCH   1   4
ATOM      2 CL   UNL     1      33.258 -22.440 -18.629  0.00  0.00    -0.081 Cl
ATOM      3 CL   UNL     1      30.197 -23.609 -14.263  0.00  0.00    -0.081 Cl
ATOM      4  C   UNL     1      34.101 -23.798 -14.989  0.00  0.00    +0.004 C 
ATOM      5  C   UNL     1      32.868 -23.876 -14.363  0.00  0.00    +0.011 C 
ATOM      6  C   UNL     1      34.223 -23.358 -16.295  0.00  0.00    +0.011 C 
ATOM      7  C   UNL     1      33.079 -22.986 -16.999  0.00  0.00    +0.071 C 
ATOM      8  C   UNL     1      31.722 -23.503 -15.067  0.00  0.00    +0.071 C 
ATOM      9  C   UNL     1      31.828 -23.058 -16.384  0.00  0.00    +0.063 C 
BRANCH   9  10
ATOM     10  N   UNL     1      30.665 -22.679 -17.099  0.00  0.00    -0.356 N 
ATOM     11  H   UNL     1      30.189 -21.850 -16.860  0.00  0.00    +0.142 HD
ATOM     12  H   UNL     1      30.334 -23.242 -17.835  0.00  0.00    +0.142 HD
ENDBRANCH   9  10
ENDBRANCH   1   4
BRANCH   1  13
ATOM     13  O   UNL     1      34.937 -24.934 -13.069  0.00  0.00    -0.382 OA
ATOM     14  H   UNL     1      35.624 -25.577 -12.836  0.00  0.00    +0.211 HD
ENDBRANCH   1  13
BRANCH   1  15
ATOM     15  C   UNL     1      36.281 -25.054 -15.090  0.00  0.00    -0.047 C 
BRANCH  15  16
ATOM     16  N   UNL     1      37.628 -24.508 -15.083  0.00  0.00    +0.388 N 
ATOM     17  H   UNL     1      37.951 -24.401 -16.045  0.00  0.00    -0.084 HD
ATOM     18  H   UNL     1      37.613 -23.603 -14.614  0.00  0.00    -0.084 HD
BRANCH  16  19
ATOM     19  C   UNL     1      38.542 -25.401 -14.363  0.00  0.00    -0.046 C 
ATOM     20  C   UNL     1      38.672 -24.905 -12.919  0.00  0.00    -0.022 C 
ATOM     21  C   UNL     1      37.955 -26.817 -14.381  0.00  0.00    -0.022 C 
ATOM     22  C   UNL     1      39.912 -25.389 -15.050  0.00  0.00    -0.022 C 
ENDBRANCH  16  19
ENDBRANCH  15  16
ENDBRANCH   1  15
TORSDOF 6
ENDMDL
MODEL 9
REMARK VINA RESULT:      -7.2      3.329      6.798
REMARK  Name = 2783
REMARK  6 active torsions:
REMARK  status: ('A' for Active; 'I' for Inactive)
REMARK    1  A    between atoms: C_1  and  C_4
REMARK    2  A    between atoms: C_1  and  O_13
REMARK    3  A    between atoms: C_1  and  C_15
REMARK    4  A    between atoms: C_9  and  N_10
REMARK    5  A    between atoms: C_15  and  N_16
REMARK    6  A    between atoms: N_16  and  C_19
REMARK                            x       y       z     vdW  Elec       q    Type
REMARK                         _______ _______ _______ _____ _____    ______ ____
ROOT
ATOM      1  C   UNL     1      31.305 -12.062 -21.116  0.00  0.00    +0.112 C 
ENDROOT
BRANCH   1   4
ATOM      2 CL   UNL     1      33.202 -14.183 -25.445  0.00  0.00    -0.081 Cl
ATOM      3 CL   UNL     1      34.712 -15.914 -20.493  0.00  0.00    -0.081 Cl
ATOM      4  C   UNL     1      32.216 -13.088 -21.753  0.00  0.00    +0.004 C 
ATOM      5  C   UNL     1      32.957 -13.929 -20.942  0.00  0.00    +0.011 C 
ATOM      6  C   UNL     1      32.289 -13.164 -23.133  0.00  0.00    +0.011 C 
ATOM      7  C   UNL     1      33.129 -14.109 -23.720  0.00  0.00    +0.071 C 
ATOM      8  C   UNL     1      33.798 -14.876 -21.528  0.00  0.00    +0.071 C 
ATOM      9  C   UNL     1      33.883 -14.965 -22.918  0.00  0.00    +0.063 C 
BRANCH   9  10
ATOM     10  N   UNL     1      34.736 -15.926 -23.514  0.00  0.00    -0.356 N 
ATOM     11  H   UNL     1      35.259 -16.539 -22.947  0.00  0.00    +0.142 HD
ATOM     12  H   UNL     1      34.806 -15.983 -24.494  0.00  0.00    +0.142 HD
ENDBRANCH   9  10
ENDBRANCH   1   4
BRANCH   1  13
ATOM     13  O   UNL     1      31.856 -11.702 -19.850  0.00  0.00    -0.382 OA
ATOM     14  H   UNL     1      32.053 -10.752 -19.841  0.00  0.00    +0.211 HD
ENDBRANCH   1  13
BRANCH   1  15
ATOM     15  C   UNL     1      31.153 -10.819 -22.002  0.00  0.00    -0.047 C 
BRANCH  15  16
ATOM     16  N   UNL     1      31.920  -9.707 -21.467  0.00  0.00    +0.388 N 
ATOM     17  H   UNL     1      31.322  -9.148 -20.858  0.00  0.00    -0.084 HD
ATOM     18  H   UNL     1      32.712 -10.076 -20.942  0.00  0.00    -0.084 HD
BRANCH  16  19
ATOM     19  C   UNL     1      32.426  -8.861 -22.554  0.00  0.00    -0.046 C 
ATOM     20  C   UNL     1      31.232  -8.331 -23.356  0.00  0.00    -0.022 C 
ATOM     21  C   UNL     1      33.206  -7.693 -21.940  0.00  0.00    -0.022 C 
ATOM     22  C   UNL     1      33.343  -9.690 -23.460  0.00  0.00    -0.022 C 
ENDBRANCH  16  19
ENDBRANCH  15  16
ENDBRANCH   1  15
TORSDOF 6
ENDMDL
