MODEL 1
REMARK VINA RESULT:      -8.1      0.000      0.000
REMARK  Name = 2738139
REMARK  3 active torsions:
REMARK  status: ('A' for Active; 'I' for Inactive)
REMARK    1  A    between atoms: C_3  and  C_8
REMARK    2  A    between atoms: CA_4  and  C_15
REMARK    3  A    between atoms: C_15  and  O_16
REMARK                            x       y       z     vdW  Elec       q    Type
REMARK                         _______ _______ _______ _____ _____    ______ ____
ROOT
ATOM      1  N   UNL     1      34.490 -18.243 -23.001  0.00  0.00    -0.309 N 
ATOM      2  N   UNL     1      35.018 -17.068 -21.192  0.00  0.00    -0.313 N 
ATOM      3  C   UNL     1      34.738 -18.265 -21.656  0.00  0.00    +0.168 C 
ATOM      4  CA  UNL     1      34.620 -16.949 -23.420  0.00  0.00    +0.137 C 
ATOM      5  C   UNL     1      34.945 -16.243 -22.286  0.00  0.00    +0.080 C 
ATOM      6  H   UNL     1      34.260 -19.017 -23.564  0.00  0.00    +0.149 HD
ATOM      7  H   UNL     1      35.232 -16.818 -20.264  0.00  0.00    +0.149 HD
ENDROOT
BRANCH   3   8
ATOM      8  C   UNL     1      34.686 -19.485 -20.888  0.00  0.00    +0.014 C 
ATOM      9  C   UNL     1      33.453 -20.023 -20.518  0.00  0.00    -0.001 C 
ATOM     10  C   UNL     1      35.867 -20.126 -20.514  0.00  0.00    -0.001 C 
ATOM     11  C   UNL     1      33.401 -21.202 -19.774  0.00  0.00    -0.000 C 
ATOM     12  C   UNL     1      35.816 -21.305 -19.771  0.00  0.00    -0.000 C 
ATOM     13  C   UNL     1      34.583 -21.844 -19.401  0.00  0.00    -0.000 C 
ENDBRANCH   3   8
BRANCH   4  15
ATOM     14  OXT UNL     1      34.934 -17.010 -25.792  0.00  0.00    -0.244 OA
ATOM     15  C   UNL     1      34.442 -16.497 -24.759  0.00  0.00    +0.353 C 
BRANCH  15  16
ATOM     16  O   UNL     1      33.640 -15.388 -24.863  0.00  0.00    -0.476 OA
ATOM     17  H   UNL     1      33.417 -15.048 -25.707  0.00  0.00    +0.295 HD
ENDBRANCH  15  16
ENDBRANCH   4  15
TORSDOF 3
ENDMDL
MODEL 2
REMARK VINA RESULT:      -7.8      3.885      5.890
REMARK  Name = 2738139
REMARK  3 active torsions:
REMARK  status: ('A' for Active; 'I' for Inactive)
REMARK    1  A    between atoms: C_3  and  C_8
REMARK    2  A    between atoms: CA_4  and  C_15
REMARK    3  A    between atoms: C_15  and  O_16
REMARK                            x       y       z     vdW  Elec       q    Type
REMARK                         _______ _______ _______ _____ _____    ______ ____
ROOT
ATOM      1  N   UNL     1      34.000 -20.503 -20.458  0.00  0.00    -0.309 N 
ATOM      2  N   UNL     1      36.173 -20.185 -20.136  0.00  0.00    -0.313 N 
ATOM      3  C   UNL     1      35.102 -19.754 -20.763  0.00  0.00    +0.168 C 
ATOM      4  CA  UNL     1      34.394 -21.473 -19.581  0.00  0.00    +0.137 C 
ATOM      5  C   UNL     1      35.740 -21.257 -19.398  0.00  0.00    +0.080 C 
ATOM      6  H   UNL     1      33.089 -20.368 -20.807  0.00  0.00    +0.149 HD
ATOM      7  H   UNL     1      37.087 -19.819 -20.185  0.00  0.00    +0.149 HD
ENDROOT
BRANCH   3   8
ATOM      8  C   UNL     1      35.040 -18.634 -21.671  0.00  0.00    +0.014 C 
ATOM      9  C   UNL     1      35.075 -18.852 -23.048  0.00  0.00    -0.001 C 
ATOM     10  C   UNL     1      34.945 -17.335 -21.172  0.00  0.00    -0.001 C 
ATOM     11  C   UNL     1      35.016 -17.770 -23.927  0.00  0.00    -0.000 C 
ATOM     12  C   UNL     1      34.887 -16.253 -22.050  0.00  0.00    -0.000 C 
ATOM     13  C   UNL     1      34.921 -16.470 -23.428  0.00  0.00    -0.000 C 
ENDBRANCH   3   8
BRANCH   4  15
ATOM     14  OXT UNL     1      32.485 -22.265 -18.374  0.00  0.00    -0.244 OA
ATOM     15  C   UNL     1      33.542 -22.466 -19.016  0.00  0.00    +0.353 C 
BRANCH  15  16
ATOM     16  O   UNL     1      33.976 -23.750 -19.232  0.00  0.00    -0.476 OA
ATOM     17  H   UNL     1      33.985 -24.102 -20.101  0.00  0.00    +0.295 HD
ENDBRANCH  15  16
ENDBRANCH   4  15
TORSDOF 3
ENDMDL
MODEL 3
REMARK VINA RESULT:      -7.7      1.334      2.327
REMARK  Name = 2738139
REMARK  3 active torsions:
REMARK  status: ('A' for Active; 'I' for Inactive)
REMARK    1  A    between atoms: C_3  and  C_8
REMARK    2  A    between atoms: CA_4  and  C_15
REMARK    3  A    between atoms: C_15  and  O_16
REMARK                            x       y       z     vdW  Elec       q    Type
REMARK                         _______ _______ _______ _____ _____    ______ ____
ROOT
ATOM      1  N   UNL     1      34.590 -17.592 -21.204  0.00  0.00    -0.309 N 
ATOM      2  N   UNL     1      34.786 -18.960 -22.943  0.00  0.00    -0.313 N 
ATOM      3  C   UNL     1      34.667 -18.888 -21.636  0.00  0.00    +0.168 C 
ATOM      4  CA  UNL     1      34.663 -16.788 -22.306  0.00  0.00    +0.137 C 
ATOM      5  C   UNL     1      34.785 -17.656 -23.367  0.00  0.00    +0.080 C 
ATOM      6  H   UNL     1      34.497 -17.294 -20.271  0.00  0.00    +0.149 HD
ATOM      7  H   UNL     1      34.860 -19.772 -23.495  0.00  0.00    +0.149 HD
ENDROOT
BRANCH   3   8
ATOM      8  C   UNL     1      34.620 -20.003 -20.722  0.00  0.00    +0.014 C 
ATOM      9  C   UNL     1      35.803 -20.608 -20.300  0.00  0.00    -0.001 C 
ATOM     10  C   UNL     1      33.391 -20.477 -20.262  0.00  0.00    -0.001 C 
ATOM     11  C   UNL     1      35.759 -21.688 -19.417  0.00  0.00    -0.000 C 
ATOM     12  C   UNL     1      33.346 -21.557 -19.380  0.00  0.00    -0.000 C 
ATOM     13  C   UNL     1      34.530 -22.162 -18.957  0.00  0.00    -0.000 C 
ENDBRANCH   3   8
BRANCH   4  15
ATOM     14  OXT UNL     1      34.590 -14.607 -23.288  0.00  0.00    -0.244 OA
ATOM     15  C   UNL     1      34.618 -15.365 -22.290  0.00  0.00    +0.353 C 
BRANCH  15  16
ATOM     16  O   UNL     1      34.607 -14.830 -21.025  0.00  0.00    -0.476 OA
ATOM     17  H   UNL     1      35.027 -14.009 -20.860  0.00  0.00    +0.295 HD
ENDBRANCH  15  16
ENDBRANCH   4  15
TORSDOF 3
ENDMDL
MODEL 4
REMARK VINA RESULT:      -7.7      1.520      1.948
REMARK  Name = 2738139
REMARK  3 active torsions:
REMARK  status: ('A' for Active; 'I' for Inactive)
REMARK    1  A    between atoms: C_3  and  C_8
REMARK    2  A    between atoms: CA_4  and  C_15
REMARK    3  A    between atoms: C_15  and  O_16
REMARK                            x       y       z     vdW  Elec       q    Type
REMARK                         _______ _______ _______ _____ _____    ______ ____
ROOT
ATOM      1  N   UNL     1      33.929 -17.069 -21.451  0.00  0.00    -0.309 N 
ATOM      2  N   UNL     1      35.452 -17.961 -22.798  0.00  0.00    -0.313 N 
ATOM      3  C   UNL     1      34.689 -18.166 -21.749  0.00  0.00    +0.168 C 
ATOM      4  CA  UNL     1      34.226 -16.104 -22.370  0.00  0.00    +0.137 C 
ATOM      5  C   UNL     1      35.170 -16.677 -23.191  0.00  0.00    +0.080 C 
ATOM      6  H   UNL     1      33.285 -16.991 -20.711  0.00  0.00    +0.149 HD
ATOM      7  H   UNL     1      36.088 -18.590 -23.212  0.00  0.00    +0.149 HD
ENDROOT
BRANCH   3   8
ATOM      8  C   UNL     1      34.622 -19.379 -20.969  0.00  0.00    +0.014 C 
ATOM      9  C   UNL     1      33.382 -19.900 -20.599  0.00  0.00    -0.001 C 
ATOM     10  C   UNL     1      35.795 -20.029 -20.586  0.00  0.00    -0.001 C 
ATOM     11  C   UNL     1      33.316 -21.072 -19.844  0.00  0.00    -0.000 C 
ATOM     12  C   UNL     1      35.729 -21.200 -19.832  0.00  0.00    -0.000 C 
ATOM     13  C   UNL     1      34.489 -21.722 -19.461  0.00  0.00    -0.000 C 
ENDBRANCH   3   8
BRANCH   4  15
ATOM     14  OXT UNL     1      32.480 -14.494 -22.074  0.00  0.00    -0.244 OA
ATOM     15  C   UNL     1      33.647 -14.802 -22.412  0.00  0.00    +0.353 C 
BRANCH  15  16
ATOM     16  O   UNL     1      34.503 -13.835 -22.875  0.00  0.00    -0.476 OA
ATOM     17  H   UNL     1      34.396 -12.944 -22.603  0.00  0.00    +0.295 HD
ENDBRANCH  15  16
ENDBRANCH   4  15
TORSDOF 3
ENDMDL
MODEL 5
REMARK VINA RESULT:      -7.6      9.334     11.078
REMARK  Name = 2738139
REMARK  3 active torsions:
REMARK  status: ('A' for Active; 'I' for Inactive)
REMARK    1  A    between atoms: C_3  and  C_8
REMARK    2  A    between atoms: CA_4  and  C_15
REMARK    3  A    between atoms: C_15  and  O_16
REMARK                            x       y       z     vdW  Elec       q    Type
REMARK                         _______ _______ _______ _____ _____    ______ ____
ROOT
ATOM      1  N   UNL     1      34.657 -23.476 -12.722  0.00  0.00    -0.309 N 
ATOM      2  N   UNL     1      35.290 -24.997 -14.211  0.00  0.00    -0.313 N 
ATOM      3  C   UNL     1      34.408 -24.064 -13.931  0.00  0.00    +0.168 C 
ATOM      4  CA  UNL     1      35.769 -24.071 -12.198  0.00  0.00    +0.137 C 
ATOM      5  C   UNL     1      36.141 -25.007 -13.135  0.00  0.00    +0.080 C 
ATOM      6  H   UNL     1      34.132 -22.755 -12.306  0.00  0.00    +0.149 HD
ATOM      7  H   UNL     1      35.331 -25.564 -15.015  0.00  0.00    +0.149 HD
ENDROOT
BRANCH   3   8
ATOM      8  C   UNL     1      33.295 -23.668 -14.760  0.00  0.00    +0.014 C 
ATOM      9  C   UNL     1      32.040 -23.460 -14.188  0.00  0.00    -0.001 C 
ATOM     10  C   UNL     1      33.474 -23.496 -16.133  0.00  0.00    -0.001 C 
ATOM     11  C   UNL     1      30.963 -23.079 -14.989  0.00  0.00    -0.000 C 
ATOM     12  C   UNL     1      32.397 -23.116 -16.934  0.00  0.00    -0.000 C 
ATOM     13  C   UNL     1      31.142 -22.906 -16.362  0.00  0.00    -0.000 C 
ENDBRANCH   3   8
BRANCH   4  15
ATOM     14  OXT UNL     1      36.067 -24.236  -9.830  0.00  0.00    -0.244 OA
ATOM     15  C   UNL     1      36.362 -23.746 -10.944  0.00  0.00    +0.353 C 
BRANCH  15  16
ATOM     16  O   UNL     1      37.349 -22.795 -11.033  0.00  0.00    -0.476 OA
ATOM     17  H   UNL     1      37.146 -21.939 -11.358  0.00  0.00    +0.295 HD
ENDBRANCH  15  16
ENDBRANCH   4  15
TORSDOF 3
ENDMDL
MODEL 6
REMARK VINA RESULT:      -7.6      9.362     11.147
REMARK  Name = 2738139
REMARK  3 active torsions:
REMARK  status: ('A' for Active; 'I' for Inactive)
REMARK    1  A    between atoms: C_3  and  C_8
REMARK    2  A    between atoms: CA_4  and  C_15
REMARK    3  A    between atoms: C_15  and  O_16
REMARK                            x       y       z     vdW  Elec       q    Type
REMARK                         _______ _______ _______ _____ _____    ______ ____
ROOT
ATOM      1  N   UNL     1      34.636 -23.488 -12.696  0.00  0.00    -0.309 N 
ATOM      2  N   UNL     1      35.262 -25.004 -14.192  0.00  0.00    -0.313 N 
ATOM      3  C   UNL     1      34.381 -24.073 -13.905  0.00  0.00    +0.168 C 
ATOM      4  CA  UNL     1      35.751 -24.084 -12.180  0.00  0.00    +0.137 C 
ATOM      5  C   UNL     1      36.119 -25.017 -13.121  0.00  0.00    +0.080 C 
ATOM      6  H   UNL     1      34.112 -22.769 -12.275  0.00  0.00    +0.149 HD
ATOM      7  H   UNL     1      35.299 -25.569 -14.999  0.00  0.00    +0.149 HD
ENDROOT
BRANCH   3   8
ATOM      8  C   UNL     1      33.263 -23.676 -14.727  0.00  0.00    +0.014 C 
ATOM      9  C   UNL     1      33.436 -23.499 -16.100  0.00  0.00    -0.001 C 
ATOM     10  C   UNL     1      32.010 -23.468 -14.149  0.00  0.00    -0.001 C 
ATOM     11  C   UNL     1      32.356 -23.114 -16.895  0.00  0.00    -0.000 C 
ATOM     12  C   UNL     1      30.931 -23.083 -14.944  0.00  0.00    -0.000 C 
ATOM     13  C   UNL     1      31.103 -22.907 -16.318  0.00  0.00    -0.000 C 
ENDBRANCH   3   8
BRANCH   4  15
ATOM     14  OXT UNL     1      36.046 -24.237  -9.810  0.00  0.00    -0.244 OA
ATOM     15  C   UNL     1      36.352 -23.761 -10.929  0.00  0.00    +0.353 C 
BRANCH  15  16
ATOM     16  O   UNL     1      37.358 -22.832 -11.025  0.00  0.00    -0.476 OA
ATOM     17  H   UNL     1      38.046 -22.950 -11.650  0.00  0.00    +0.295 HD
ENDBRANCH  15  16
ENDBRANCH   4  15
TORSDOF 3
ENDMDL
MODEL 7
REMARK VINA RESULT:      -7.6      9.940     11.350
REMARK  Name = 2738139
REMARK  3 active torsions:
REMARK  status: ('A' for Active; 'I' for Inactive)
REMARK    1  A    between atoms: C_3  and  C_8
REMARK    2  A    between atoms: CA_4  and  C_15
REMARK    3  A    between atoms: C_15  and  O_16
REMARK                            x       y       z     vdW  Elec       q    Type
REMARK                         _______ _______ _______ _____ _____    ______ ____
ROOT
ATOM      1  N   UNL     1      34.538 -23.680 -12.522  0.00  0.00    -0.309 N 
ATOM      2  N   UNL     1      35.143 -25.034 -14.175  0.00  0.00    -0.313 N 
ATOM      3  C   UNL     1      34.161 -24.322 -13.669  0.00  0.00    +0.168 C 
ATOM      4  CA  UNL     1      35.843 -24.002 -12.283  0.00  0.00    +0.137 C 
ATOM      5  C   UNL     1      36.194 -24.841 -13.315  0.00  0.00    +0.080 C 
ATOM      6  H   UNL     1      33.973 -23.092 -11.972  0.00  0.00    +0.149 HD
ATOM      7  H   UNL     1      35.126 -25.586 -14.991  0.00  0.00    +0.149 HD
ENDROOT
BRANCH   3   8
ATOM      8  C   UNL     1      32.830 -24.198 -14.214  0.00  0.00    +0.014 C 
ATOM      9  C   UNL     1      31.808 -25.027 -13.752  0.00  0.00    -0.001 C 
ATOM     10  C   UNL     1      32.567 -23.251 -15.204  0.00  0.00    -0.001 C 
ATOM     11  C   UNL     1      30.522 -24.908 -14.279  0.00  0.00    -0.000 C 
ATOM     12  C   UNL     1      31.282 -23.133 -15.732  0.00  0.00    -0.000 C 
ATOM     13  C   UNL     1      30.258 -23.960 -15.269  0.00  0.00    -0.000 C 
ENDBRANCH   3   8
BRANCH   4  15
ATOM     14  OXT UNL     1      37.567 -22.722 -11.226  0.00  0.00    -0.244 OA
ATOM     15  C   UNL     1      36.616 -23.537 -11.180  0.00  0.00    +0.353 C 
BRANCH  15  16
ATOM     16  O   UNL     1      36.231 -24.071  -9.975  0.00  0.00    -0.476 OA
ATOM     17  H   UNL     1      35.612 -24.774  -9.951  0.00  0.00    +0.295 HD
ENDBRANCH  15  16
ENDBRANCH   4  15
TORSDOF 3
ENDMDL
MODEL 8
REMARK VINA RESULT:      -7.5      8.994     10.688
REMARK  Name = 2738139
REMARK  3 active torsions:
REMARK  status: ('A' for Active; 'I' for Inactive)
REMARK    1  A    between atoms: C_3  and  C_8
REMARK    2  A    between atoms: CA_4  and  C_15
REMARK    3  A    between atoms: C_15  and  O_16
REMARK                            x       y       z     vdW  Elec       q    Type
REMARK                         _______ _______ _______ _____ _____    ______ ____
ROOT
ATOM      1  N   UNL     1      37.586 -24.614 -15.095  0.00  0.00    -0.309 N 
ATOM      2  N   UNL     1      36.646 -25.907 -13.554  0.00  0.00    -0.313 N 
ATOM      3  C   UNL     1      36.431 -24.982 -14.463  0.00  0.00    +0.168 C 
ATOM      4  CA  UNL     1      38.602 -25.351 -14.556  0.00  0.00    +0.137 C 
ATOM      5  C   UNL     1      37.997 -26.141 -13.605  0.00  0.00    +0.080 C 
ATOM      6  H   UNL     1      37.670 -23.942 -15.809  0.00  0.00    +0.149 HD
ATOM      7  H   UNL     1      35.983 -26.336 -12.965  0.00  0.00    +0.149 HD
ENDROOT
BRANCH   3   8
ATOM      8  C   UNL     1      35.156 -24.394 -14.794  0.00  0.00    +0.014 C 
ATOM      9  C   UNL     1      34.130 -24.378 -13.849  0.00  0.00    -0.001 C 
ATOM     10  C   UNL     1      34.948 -23.843 -16.058  0.00  0.00    -0.001 C 
ATOM     11  C   UNL     1      32.896 -23.810 -14.168  0.00  0.00    -0.000 C 
ATOM     12  C   UNL     1      33.715 -23.276 -16.378  0.00  0.00    -0.000 C 
ATOM     13  C   UNL     1      32.689 -23.258 -15.432  0.00  0.00    -0.000 C 
ENDBRANCH   3   8
BRANCH   4  15
ATOM     14  OXT UNL     1      40.895 -24.720 -14.294  0.00  0.00    -0.244 OA
ATOM     15  C   UNL     1      39.971 -25.269 -14.939  0.00  0.00    +0.353 C 
BRANCH  15  16
ATOM     16  O   UNL     1      40.242 -25.870 -16.144  0.00  0.00    -0.476 OA
ATOM     17  H   UNL     1      40.470 -25.347 -16.887  0.00  0.00    +0.295 HD
ENDBRANCH  15  16
ENDBRANCH   4  15
TORSDOF 3
ENDMDL
MODEL 9
REMARK VINA RESULT:      -7.5      3.871      5.907
REMARK  Name = 2738139
REMARK  3 active torsions:
REMARK  status: ('A' for Active; 'I' for Inactive)
REMARK    1  A    between atoms: C_3  and  C_8
REMARK    2  A    between atoms: CA_4  and  C_15
REMARK    3  A    between atoms: C_15  and  O_16
REMARK                            x       y       z     vdW  Elec       q    Type
REMARK                         _______ _______ _______ _____ _____    ______ ____
ROOT
ATOM      1  N   UNL     1      35.247 -20.255 -20.309  0.00  0.00    -0.309 N 
ATOM      2  N   UNL     1      33.070 -20.136 -20.730  0.00  0.00    -0.313 N 
ATOM      3  C   UNL     1      34.252 -19.640 -21.018  0.00  0.00    +0.168 C 
ATOM      4  CA  UNL     1      34.661 -21.203 -19.519  0.00  0.00    +0.137 C 
ATOM      5  C   UNL     1      33.317 -21.110 -19.796  0.00  0.00    +0.080 C 
ATOM      6  H   UNL     1      36.209 -20.052 -20.359  0.00  0.00    +0.149 HD
ATOM      7  H   UNL     1      32.198 -19.867 -21.102  0.00  0.00    +0.149 HD
ENDROOT
BRANCH   3   8
ATOM      8  C   UNL     1      34.525 -18.579 -21.957  0.00  0.00    +0.014 C 
ATOM      9  C   UNL     1      34.587 -17.257 -21.516  0.00  0.00    -0.001 C 
ATOM     10  C   UNL     1      34.726 -18.875 -23.306  0.00  0.00    -0.001 C 
ATOM     11  C   UNL     1      34.849 -16.231 -22.424  0.00  0.00    -0.000 C 
ATOM     12  C   UNL     1      34.988 -17.849 -24.213  0.00  0.00    -0.000 C 
ATOM     13  C   UNL     1      35.051 -16.527 -23.772  0.00  0.00    -0.000 C 
ENDBRANCH   3   8
BRANCH   4  15
ATOM     14  OXT UNL     1      36.572 -22.027 -18.338  0.00  0.00    -0.244 OA
ATOM     15  C   UNL     1      35.352 -22.068 -18.622  0.00  0.00    +0.353 C 
BRANCH  15  16
ATOM     16  O   UNL     1      34.547 -23.018 -18.045  0.00  0.00    -0.476 OA
ATOM     17  H   UNL     1      34.627 -23.207 -17.130  0.00  0.00    +0.295 HD
ENDBRANCH  15  16
ENDBRANCH   4  15
TORSDOF 3
ENDMDL
