MODEL 1
REMARK VINA RESULT:     -10.3      0.000      0.000
REMARK  Name = 656967
REMARK  5 active torsions:
REMARK  status: ('A' for Active; 'I' for Inactive)
REMARK    1  A    between atoms: N_1  and  C_30
REMARK    2  A    between atoms: C_10  and  C_17
REMARK    3  A    between atoms: N_15  and  C_23
REMARK    4  A    between atoms: C_30  and  C_31
REMARK    5  A    between atoms: C_31  and  N_32
REMARK                            x       y       z     vdW  Elec       q    Type
REMARK                         _______ _______ _______ _____ _____    ______ ____
ROOT
ATOM      1  N   UNL     1      32.445  -7.185 -22.707  0.00  0.00    +0.388 N 
ATOM      2  N   UNL     1      32.451 -10.033 -22.498  0.00  0.00    -0.298 N 
ATOM      3  N   UNL     1      32.264 -11.918 -21.027  0.00  0.00    -0.229 NA
ATOM      4  C   UNL     1      33.249  -7.996 -23.629  0.00  0.00    -0.056 C 
ATOM      5  C   UNL     1      31.217  -7.906 -22.348  0.00  0.00    -0.056 C 
ATOM      6  C   UNL     1      33.640  -9.331 -22.990  0.00  0.00    +0.069 C 
ATOM      7  C   UNL     1      31.541  -9.237 -21.666  0.00  0.00    +0.069 C 
ATOM      8  C   UNL     1      32.502 -11.415 -22.279  0.00  0.00    +0.132 C 
ATOM      9  C   UNL     1      32.800 -12.254 -23.361  0.00  0.00    +0.037 C 
ATOM     10  C   UNL     1      32.854 -13.628 -23.158  0.00  0.00    +0.035 C 
ATOM     11  C   UNL     1      32.326 -13.259 -20.869  0.00  0.00    +0.100 C 
ATOM     12  C   UNL     1      32.613 -14.149 -21.892  0.00  0.00    +0.023 C 
ATOM     13  H   UNL     1      32.986  -7.015 -21.859  0.00  0.00    -0.080 HD
ENDROOT
BRANCH  10  17
ATOM     14  N   UNL     1      33.732 -15.682 -23.911  0.00  0.00    -0.337 NA
ATOM     15  N   UNL     1      34.618 -17.739 -24.614  0.00  0.00    -0.247 N 
ATOM     16  N   UNL     1      33.786 -16.273 -26.247  0.00  0.00    -0.170 NA
ATOM     17  C   UNL     1      33.159 -14.514 -24.261  0.00  0.00    +0.146 C 
ATOM     18  C   UNL     1      32.871 -14.155 -25.560  0.00  0.00    +0.055 C 
ATOM     19  C   UNL     1      34.016 -16.504 -24.940  0.00  0.00    +0.149 C 
ATOM     20  C   UNL     1      33.210 -15.084 -26.522  0.00  0.00    +0.114 C 
ATOM     21  H   UNL     1      34.807 -18.306 -25.397  0.00  0.00    +0.165 HD
BRANCH  15  23
ATOM     22 CL   UNL     1      33.282 -20.512 -20.527  0.00  0.00    -0.083 Cl
ATOM     23  C   UNL     1      35.001 -18.318 -23.390  0.00  0.00    +0.058 C 
ATOM     24  C   UNL     1      34.075 -19.045 -22.639  0.00  0.00    +0.026 C 
ATOM     25  C   UNL     1      36.308 -18.167 -22.923  0.00  0.00    +0.015 C 
ATOM     26  C   UNL     1      35.761 -19.468 -20.961  0.00  0.00    -0.011 C 
ATOM     27  C   UNL     1      34.455 -19.619 -21.425  0.00  0.00    +0.055 C 
ATOM     28  C   UNL     1      36.687 -18.741 -21.710  0.00  0.00    -0.002 C 
ATOM     29  C   UNL     1      36.208 -20.067 -19.667  0.00  0.00    +0.032 C 
ENDBRANCH  15  23
ENDBRANCH  10  17
BRANCH   1  30
ATOM     30  C   UNL     1      32.123  -5.891 -23.307  0.00  0.00    -0.102 C 
BRANCH  30  31
ATOM     31  C   UNL     1      30.801  -5.368 -22.754  0.00  0.00    -0.110 C 
BRANCH  31  32
ATOM     32  N   UNL     1      30.869  -3.924 -22.567  0.00  0.00    +0.379 N 
ATOM     33  H   UNL     1      29.954  -3.513 -22.748  0.00  0.00    -0.089 HD
ATOM     34  H   UNL     1      31.553  -3.529 -23.212  0.00  0.00    -0.089 HD
ATOM     35  H   UNL     1      31.150  -3.719 -21.608  0.00  0.00    -0.089 HD
ENDBRANCH  31  32
ENDBRANCH  30  31
ENDBRANCH   1  30
TORSDOF 5
ENDMDL
MODEL 2
REMARK VINA RESULT:     -10.0      3.594     10.346
REMARK  Name = 656967
REMARK  5 active torsions:
REMARK  status: ('A' for Active; 'I' for Inactive)
REMARK    1  A    between atoms: N_1  and  C_30
REMARK    2  A    between atoms: C_10  and  C_17
REMARK    3  A    between atoms: N_15  and  C_23
REMARK    4  A    between atoms: C_30  and  C_31
REMARK    5  A    between atoms: C_31  and  N_32
REMARK                            x       y       z     vdW  Elec       q    Type
REMARK                         _______ _______ _______ _____ _____    ______ ____
ROOT
ATOM      1  N   UNL     1      35.301 -18.681 -21.975  0.00  0.00    +0.388 N 
ATOM      2  N   UNL     1      34.245 -16.158 -22.799  0.00  0.00    -0.298 N 
ATOM      3  N   UNL     1      33.956 -14.625 -24.619  0.00  0.00    -0.229 NA
ATOM      4  C   UNL     1      35.236 -17.559 -21.031  0.00  0.00    -0.056 C 
ATOM      5  C   UNL     1      34.165 -18.619 -22.905  0.00  0.00    -0.056 C 
ATOM      6  C   UNL     1      35.285 -16.218 -21.768  0.00  0.00    +0.069 C 
ATOM      7  C   UNL     1      34.180 -17.313 -23.703  0.00  0.00    +0.069 C 
ATOM      8  C   UNL     1      33.823 -14.917 -23.288  0.00  0.00    +0.132 C 
ATOM      9  C   UNL     1      33.268 -13.996 -22.388  0.00  0.00    +0.037 C 
ATOM     10  C   UNL     1      32.844 -12.759 -22.860  0.00  0.00    +0.035 C 
ATOM     11  C   UNL     1      33.532 -13.411 -25.040  0.00  0.00    +0.100 C 
ATOM     12  C   UNL     1      32.974 -12.453 -24.209  0.00  0.00    +0.023 C 
ATOM     13  H   UNL     1      36.167 -18.613 -22.510  0.00  0.00    -0.080 HD
ENDROOT
BRANCH  10  17
ATOM     14  N   UNL     1      32.441 -10.504 -22.301  0.00  0.00    -0.337 NA
ATOM     15  N   UNL     1      32.065  -8.245 -21.785  0.00  0.00    -0.247 N 
ATOM     16  N   UNL     1      31.230  -9.874 -20.315  0.00  0.00    -0.170 NA
ATOM     17  C   UNL     1      32.268 -11.793 -21.949  0.00  0.00    +0.146 C 
ATOM     18  C   UNL     1      31.598 -12.199 -20.815  0.00  0.00    +0.055 C 
ATOM     19  C   UNL     1      31.904  -9.608 -21.450  0.00  0.00    +0.149 C 
ATOM     20  C   UNL     1      31.095 -11.185 -20.026  0.00  0.00    +0.114 C 
ATOM     21  H   UNL     1      31.658  -7.628 -21.136  0.00  0.00    +0.165 HD
BRANCH  15  23
ATOM     22 CL   UNL     1      31.784  -4.725 -25.487  0.00  0.00    -0.083 Cl
ATOM     23  C   UNL     1      32.695  -7.598 -22.864  0.00  0.00    +0.058 C 
ATOM     24  C   UNL     1      32.023  -6.598 -23.570  0.00  0.00    +0.026 C 
ATOM     25  C   UNL     1      33.994  -7.954 -23.232  0.00  0.00    +0.015 C 
ATOM     26  C   UNL     1      33.944  -6.313 -25.006  0.00  0.00    -0.011 C 
ATOM     27  C   UNL     1      32.647  -5.957 -24.640  0.00  0.00    +0.055 C 
ATOM     28  C   UNL     1      34.618  -7.313 -24.303  0.00  0.00    -0.002 C 
ATOM     29  C   UNL     1      34.649  -5.651 -26.145  0.00  0.00    +0.032 C 
ENDBRANCH  15  23
ENDBRANCH  10  17
BRANCH   1  30
ATOM     30  C   UNL     1      35.307 -19.955 -21.259  0.00  0.00    -0.102 C 
BRANCH  30  31
ATOM     31  C   UNL     1      33.958 -20.187 -20.586  0.00  0.00    -0.110 C 
BRANCH  31  32
ATOM     32  N   UNL     1      34.057 -21.276 -19.620  0.00  0.00    +0.379 N 
ATOM     33  H   UNL     1      34.694 -21.009 -18.871  0.00  0.00    -0.089 HD
ATOM     34  H   UNL     1      34.409 -22.112 -20.085  0.00  0.00    -0.089 HD
ATOM     35  H   UNL     1      33.134 -21.468 -19.229  0.00  0.00    -0.089 HD
ENDBRANCH  31  32
ENDBRANCH  30  31
ENDBRANCH   1  30
TORSDOF 5
ENDMDL
MODEL 3
REMARK VINA RESULT:      -9.6      9.514     13.275
REMARK  Name = 656967
REMARK  5 active torsions:
REMARK  status: ('A' for Active; 'I' for Inactive)
REMARK    1  A    between atoms: N_1  and  C_30
REMARK    2  A    between atoms: C_10  and  C_17
REMARK    3  A    between atoms: N_15  and  C_23
REMARK    4  A    between atoms: C_30  and  C_31
REMARK    5  A    between atoms: C_31  and  N_32
REMARK                            x       y       z     vdW  Elec       q    Type
REMARK                         _______ _______ _______ _____ _____    ______ ____
ROOT
ATOM      1  N   UNL     1      28.866 -23.562 -16.140  0.00  0.00    +0.388 N 
ATOM      2  N   UNL     1      31.458 -23.940 -15.002  0.00  0.00    -0.298 N 
ATOM      3  N   UNL     1      32.697 -24.546 -13.041  0.00  0.00    -0.229 NA
ATOM      4  C   UNL     1      30.003 -22.756 -16.599  0.00  0.00    -0.056 C 
ATOM      5  C   UNL     1      29.324 -24.906 -15.767  0.00  0.00    -0.056 C 
ATOM      6  C   UNL     1      31.060 -22.620 -15.499  0.00  0.00    +0.069 C 
ATOM      7  C   UNL     1      30.357 -24.841 -14.639  0.00  0.00    +0.069 C 
ATOM      8  C   UNL     1      32.678 -24.091 -14.332  0.00  0.00    +0.132 C 
ATOM      9  C   UNL     1      33.859 -23.765 -15.013  0.00  0.00    +0.037 C 
ATOM     10  C   UNL     1      35.079 -23.911 -14.360  0.00  0.00    +0.035 C 
ATOM     11  C   UNL     1      33.902 -24.674 -12.439  0.00  0.00    +0.100 C 
ATOM     12  C   UNL     1      35.109 -24.373 -13.049  0.00  0.00    +0.023 C 
ATOM     13  H   UNL     1      28.454 -23.115 -15.320  0.00  0.00    -0.080 HD
ENDROOT
BRANCH  10  17
ATOM     14  N   UNL     1      36.159 -22.927 -16.211  0.00  0.00    -0.337 NA
ATOM     15  N   UNL     1      37.190 -21.938 -18.073  0.00  0.00    -0.247 N 
ATOM     16  N   UNL     1      38.558 -22.904 -16.429  0.00  0.00    -0.170 NA
ATOM     17  C   UNL     1      36.311 -23.582 -15.043  0.00  0.00    +0.146 C 
ATOM     18  C   UNL     1      37.533 -23.927 -14.507  0.00  0.00    +0.055 C 
ATOM     19  C   UNL     1      37.308 -22.624 -16.844  0.00  0.00    +0.149 C 
ATOM     20  C   UNL     1      38.635 -23.559 -15.252  0.00  0.00    +0.114 C 
ATOM     21  H   UNL     1      38.054 -21.737 -18.499  0.00  0.00    +0.165 HD
BRANCH  15  23
ATOM     22 CL   UNL     1      35.377 -18.862 -21.738  0.00  0.00    -0.083 Cl
ATOM     23  C   UNL     1      36.078 -21.485 -18.807  0.00  0.00    +0.058 C 
ATOM     24  C   UNL     1      36.239 -20.513 -19.796  0.00  0.00    +0.026 C 
ATOM     25  C   UNL     1      34.809 -22.009 -18.549  0.00  0.00    +0.015 C 
ATOM     26  C   UNL     1      33.871 -20.589 -20.265  0.00  0.00    -0.011 C 
ATOM     27  C   UNL     1      35.136 -20.065 -20.524  0.00  0.00    +0.055 C 
ATOM     28  C   UNL     1      33.707 -21.560 -19.277  0.00  0.00    -0.002 C 
ATOM     29  C   UNL     1      32.664 -20.137 -21.022  0.00  0.00    +0.032 C 
ENDBRANCH  15  23
ENDBRANCH  10  17
BRANCH   1  30
ATOM     30  C   UNL     1      27.840 -23.640 -17.179  0.00  0.00    -0.102 C 
BRANCH  30  31
ATOM     31  C   UNL     1      27.080 -22.320 -17.269  0.00  0.00    -0.110 C 
BRANCH  31  32
ATOM     32  N   UNL     1      26.491 -21.989 -15.977  0.00  0.00    +0.379 N 
ATOM     33  H   UNL     1      27.034 -21.248 -15.534  0.00  0.00    -0.089 HD
ATOM     34  H   UNL     1      26.493 -22.815 -15.380  0.00  0.00    -0.089 HD
ATOM     35  H   UNL     1      25.531 -21.671 -16.113  0.00  0.00    -0.089 HD
ENDBRANCH  31  32
ENDBRANCH  30  31
ENDBRANCH   1  30
TORSDOF 5
ENDMDL
MODEL 4
REMARK VINA RESULT:      -9.4      3.193     10.390
REMARK  Name = 656967
REMARK  5 active torsions:
REMARK  status: ('A' for Active; 'I' for Inactive)
REMARK    1  A    between atoms: N_1  and  C_30
REMARK    2  A    between atoms: C_10  and  C_17
REMARK    3  A    between atoms: N_15  and  C_23
REMARK    4  A    between atoms: C_30  and  C_31
REMARK    5  A    between atoms: C_31  and  N_32
REMARK                            x       y       z     vdW  Elec       q    Type
REMARK                         _______ _______ _______ _____ _____    ______ ____
ROOT
ATOM      1  N   UNL     1      35.216 -18.489 -22.723  0.00  0.00    +0.388 N 
ATOM      2  N   UNL     1      34.220 -15.852 -23.181  0.00  0.00    -0.298 N 
ATOM      3  N   UNL     1      33.989 -14.062 -24.760  0.00  0.00    -0.229 NA
ATOM      4  C   UNL     1      35.154 -17.516 -21.625  0.00  0.00    -0.056 C 
ATOM      5  C   UNL     1      34.098 -18.268 -23.649  0.00  0.00    -0.056 C 
ATOM      6  C   UNL     1      35.240 -16.083 -22.155  0.00  0.00    +0.069 C 
ATOM      7  C   UNL     1      34.150 -16.860 -24.246  0.00  0.00    +0.069 C 
ATOM      8  C   UNL     1      33.827 -14.544 -23.488  0.00  0.00    +0.132 C 
ATOM      9  C   UNL     1      33.274 -13.755 -22.471  0.00  0.00    +0.037 C 
ATOM     10  C   UNL     1      32.879 -12.453 -22.761  0.00  0.00    +0.035 C 
ATOM     11  C   UNL     1      33.594 -12.792 -25.004  0.00  0.00    +0.100 C 
ATOM     12  C   UNL     1      33.039 -11.955 -24.049  0.00  0.00    +0.023 C 
ATOM     13  H   UNL     1      36.092 -18.361 -23.228  0.00  0.00    -0.080 HD
ENDROOT
BRANCH  10  17
ATOM     14  N   UNL     1      32.191 -10.316 -22.044  0.00  0.00    -0.337 NA
ATOM     15  N   UNL     1      31.520  -8.169 -21.372  0.00  0.00    -0.247 N 
ATOM     16  N   UNL     1      31.237  -9.943 -19.862  0.00  0.00    -0.170 NA
ATOM     17  C   UNL     1      32.305 -11.620 -21.727  0.00  0.00    +0.146 C 
ATOM     18  C   UNL     1      31.915 -12.157 -20.519  0.00  0.00    +0.055 C 
ATOM     19  C   UNL     1      31.656  -9.544 -21.078  0.00  0.00    +0.149 C 
ATOM     20  C   UNL     1      31.382 -11.261 -19.615  0.00  0.00    +0.114 C 
ATOM     21  H   UNL     1      31.126  -7.645 -20.639  0.00  0.00    +0.165 HD
BRANCH  15  23
ATOM     22 CL   UNL     1      35.057  -6.730 -24.778  0.00  0.00    -0.083 Cl
ATOM     23  C   UNL     1      31.838  -7.403 -22.509  0.00  0.00    +0.058 C 
ATOM     24  C   UNL     1      33.132  -7.429 -23.033  0.00  0.00    +0.026 C 
ATOM     25  C   UNL     1      30.859  -6.614 -23.118  0.00  0.00    +0.015 C 
ATOM     26  C   UNL     1      32.468  -5.884 -24.766  0.00  0.00    -0.011 C 
ATOM     27  C   UNL     1      33.447  -6.669 -24.160  0.00  0.00    +0.055 C 
ATOM     28  C   UNL     1      31.174  -5.855 -24.245  0.00  0.00    -0.002 C 
ATOM     29  C   UNL     1      32.763  -5.056 -25.976  0.00  0.00    +0.032 C 
ENDBRANCH  15  23
ENDBRANCH  10  17
BRANCH   1  30
ATOM     30  C   UNL     1      35.187 -19.855 -22.201  0.00  0.00    -0.102 C 
BRANCH  30  31
ATOM     31  C   UNL     1      34.615 -19.866 -20.786  0.00  0.00    -0.110 C 
BRANCH  31  32
ATOM     32  N   UNL     1      35.496 -20.609 -19.893  0.00  0.00    +0.379 N 
ATOM     33  H   UNL     1      35.000 -21.419 -19.522  0.00  0.00    -0.089 HD
ATOM     34  H   UNL     1      35.788 -20.007 -19.124  0.00  0.00    -0.089 HD
ATOM     35  H   UNL     1      36.319 -20.922 -20.410  0.00  0.00    -0.089 HD
ENDBRANCH  31  32
ENDBRANCH  30  31
ENDBRANCH   1  30
TORSDOF 5
ENDMDL
MODEL 5
REMARK VINA RESULT:      -8.9      5.685     10.230
REMARK  Name = 656967
REMARK  5 active torsions:
REMARK  status: ('A' for Active; 'I' for Inactive)
REMARK    1  A    between atoms: N_1  and  C_30
REMARK    2  A    between atoms: C_10  and  C_17
REMARK    3  A    between atoms: N_15  and  C_23
REMARK    4  A    between atoms: C_30  and  C_31
REMARK    5  A    between atoms: C_31  and  N_32
REMARK                            x       y       z     vdW  Elec       q    Type
REMARK                         _______ _______ _______ _____ _____    ______ ____
ROOT
ATOM      1  N   UNL     1      34.802 -17.581 -24.066  0.00  0.00    +0.388 N 
ATOM      2  N   UNL     1      35.355 -19.210 -21.785  0.00  0.00    -0.298 N 
ATOM      3  N   UNL     1      37.056 -20.248 -20.451  0.00  0.00    -0.229 NA
ATOM      4  C   UNL     1      33.852 -18.617 -23.644  0.00  0.00    -0.056 C 
ATOM      5  C   UNL     1      35.473 -17.010 -22.890  0.00  0.00    -0.056 C 
ATOM      6  C   UNL     1      34.565 -19.746 -22.897  0.00  0.00    +0.069 C 
ATOM      7  C   UNL     1      36.240 -18.086 -22.119  0.00  0.00    +0.069 C 
ATOM      8  C   UNL     1      35.730 -20.049 -20.730  0.00  0.00    +0.132 C 
ATOM      9  C   UNL     1      34.722 -20.671 -19.980  0.00  0.00    +0.037 C 
ATOM     10  C   UNL     1      35.079 -21.508 -18.929  0.00  0.00    +0.035 C 
ATOM     11  C   UNL     1      37.364 -21.069 -19.421  0.00  0.00    +0.100 C 
ATOM     12  C   UNL     1      36.422 -21.715 -18.637  0.00  0.00    +0.023 C 
ATOM     13  H   UNL     1      35.505 -18.004 -24.672  0.00  0.00    -0.080 HD
ENDROOT
BRANCH  10  17
ATOM     14  N   UNL     1      34.514 -22.890 -17.104  0.00  0.00    -0.337 NA
ATOM     15  N   UNL     1      33.999 -24.271 -15.277  0.00  0.00    -0.247 N 
ATOM     16  N   UNL     1      32.229 -23.442 -16.576  0.00  0.00    -0.170 NA
ATOM     17  C   UNL     1      34.056 -22.161 -18.141  0.00  0.00    +0.146 C 
ATOM     18  C   UNL     1      32.721 -22.023 -18.456  0.00  0.00    +0.055 C 
ATOM     19  C   UNL     1      33.559 -23.496 -16.373  0.00  0.00    +0.149 C 
ATOM     20  C   UNL     1      31.843 -22.694 -17.630  0.00  0.00    +0.114 C 
ATOM     21  H   UNL     1      33.268 -24.695 -14.773  0.00  0.00    +0.165 HD
BRANCH  15  23
ATOM     22 CL   UNL     1      37.744 -23.011 -12.027  0.00  0.00    -0.083 Cl
ATOM     23  C   UNL     1      35.279 -24.555 -14.765  0.00  0.00    +0.058 C 
ATOM     24  C   UNL     1      35.829 -23.749 -13.767  0.00  0.00    +0.026 C 
ATOM     25  C   UNL     1      36.002 -25.645 -15.254  0.00  0.00    +0.015 C 
ATOM     26  C   UNL     1      37.818 -25.120 -13.750  0.00  0.00    -0.011 C 
ATOM     27  C   UNL     1      37.099 -24.031 -13.261  0.00  0.00    +0.055 C 
ATOM     28  C   UNL     1      37.270 -25.927 -14.747  0.00  0.00    -0.002 C 
ATOM     29  C   UNL     1      39.179 -25.457 -13.233  0.00  0.00    +0.032 C 
ENDBRANCH  15  23
ENDBRANCH  10  17
BRANCH   1  30
ATOM     30  C   UNL     1      34.119 -16.534 -24.824  0.00  0.00    -0.102 C 
BRANCH  30  31
ATOM     31  C   UNL     1      34.002 -15.266 -23.984  0.00  0.00    -0.110 C 
BRANCH  31  32
ATOM     32  N   UNL     1      33.219 -14.261 -24.694  0.00  0.00    +0.379 N 
ATOM     33  H   UNL     1      32.382 -14.694 -25.083  0.00  0.00    -0.089 HD
ATOM     34  H   UNL     1      33.779 -13.865 -25.448  0.00  0.00    -0.089 HD
ATOM     35  H   UNL     1      32.949 -13.521 -24.046  0.00  0.00    -0.089 HD
ENDBRANCH  31  32
ENDBRANCH  30  31
ENDBRANCH   1  30
TORSDOF 5
ENDMDL
MODEL 6
REMARK VINA RESULT:      -8.4      3.294     10.083
REMARK  Name = 656967
REMARK  5 active torsions:
REMARK  status: ('A' for Active; 'I' for Inactive)
REMARK    1  A    between atoms: N_1  and  C_30
REMARK    2  A    between atoms: C_10  and  C_17
REMARK    3  A    between atoms: N_15  and  C_23
REMARK    4  A    between atoms: C_30  and  C_31
REMARK    5  A    between atoms: C_31  and  N_32
REMARK                            x       y       z     vdW  Elec       q    Type
REMARK                         _______ _______ _______ _____ _____    ______ ____
ROOT
ATOM      1  N   UNL     1      34.611 -18.081 -22.380  0.00  0.00    +0.388 N 
ATOM      2  N   UNL     1      33.804 -15.346 -22.547  0.00  0.00    -0.298 N 
ATOM      3  N   UNL     1      32.156 -13.721 -21.925  0.00  0.00    -0.229 NA
ATOM      4  C   UNL     1      34.942 -17.279 -23.565  0.00  0.00    -0.056 C 
ATOM      5  C   UNL     1      34.618 -17.231 -21.183  0.00  0.00    -0.056 C 
ATOM      6  C   UNL     1      33.928 -16.151 -23.766  0.00  0.00    +0.069 C 
ATOM      7  C   UNL     1      33.592 -16.102 -21.305  0.00  0.00    +0.069 C 
ATOM      8  C   UNL     1      33.289 -14.047 -22.621  0.00  0.00    +0.132 C 
ATOM      9  C   UNL     1      33.956 -13.107 -23.418  0.00  0.00    +0.037 C 
ATOM     10  C   UNL     1      33.455 -11.813 -23.501  0.00  0.00    +0.035 C 
ATOM     11  C   UNL     1      31.698 -12.452 -22.031  0.00  0.00    +0.100 C 
ATOM     12  C   UNL     1      32.306 -11.471 -22.797  0.00  0.00    +0.023 C 
ATOM     13  H   UNL     1      33.678 -18.475 -22.499  0.00  0.00    -0.080 HD
ENDROOT
BRANCH  10  17
ATOM     14  N   UNL     1      33.736  -9.552 -24.109  0.00  0.00    -0.337 NA
ATOM     15  N   UNL     1      33.981  -7.289 -24.682  0.00  0.00    -0.247 N 
ATOM     16  N   UNL     1      35.318  -8.866 -25.792  0.00  0.00    -0.170 NA
ATOM     17  C   UNL     1      34.128 -10.825 -24.317  0.00  0.00    +0.146 C 
ATOM     18  C   UNL     1      35.093 -11.195 -25.228  0.00  0.00    +0.055 C 
ATOM     19  C   UNL     1      34.364  -8.636 -24.871  0.00  0.00    +0.149 C 
ATOM     20  C   UNL     1      35.660 -10.162 -25.946  0.00  0.00    +0.114 C 
ATOM     21  H   UNL     1      34.465  -6.656 -25.259  0.00  0.00    +0.165 HD
BRANCH  15  23
ATOM     22 CL   UNL     1      32.134  -6.752 -19.941  0.00  0.00    -0.083 Cl
ATOM     23  C   UNL     1      33.043  -6.677 -23.831  0.00  0.00    +0.058 C 
ATOM     24  C   UNL     1      33.038  -6.971 -22.466  0.00  0.00    +0.026 C 
ATOM     25  C   UNL     1      32.114  -5.771 -24.349  0.00  0.00    +0.015 C 
ATOM     26  C   UNL     1      31.181  -5.460 -22.142  0.00  0.00    -0.011 C 
ATOM     27  C   UNL     1      32.107  -6.363 -21.623  0.00  0.00    +0.055 C 
ATOM     28  C   UNL     1      31.184  -5.165 -23.505  0.00  0.00    -0.002 C 
ATOM     29  C   UNL     1      30.169  -4.787 -21.272  0.00  0.00    +0.032 C 
ENDBRANCH  15  23
ENDBRANCH  10  17
BRANCH   1  30
ATOM     30  C   UNL     1      35.555 -19.187 -22.229  0.00  0.00    -0.102 C 
BRANCH  30  31
ATOM     31  C   UNL     1      35.441 -19.789 -20.831  0.00  0.00    -0.110 C 
BRANCH  31  32
ATOM     32  N   UNL     1      36.738 -19.765 -20.165  0.00  0.00    +0.379 N 
ATOM     33  H   UNL     1      36.820 -20.574 -19.549  0.00  0.00    -0.089 HD
ATOM     34  H   UNL     1      36.824 -18.910 -19.617  0.00  0.00    -0.089 HD
ATOM     35  H   UNL     1      37.480 -19.796 -20.865  0.00  0.00    -0.089 HD
ENDBRANCH  31  32
ENDBRANCH  30  31
ENDBRANCH   1  30
TORSDOF 5
ENDMDL
MODEL 7
REMARK VINA RESULT:      -7.9      6.814     11.515
REMARK  Name = 656967
REMARK  5 active torsions:
REMARK  status: ('A' for Active; 'I' for Inactive)
REMARK    1  A    between atoms: N_1  and  C_30
REMARK    2  A    between atoms: C_10  and  C_17
REMARK    3  A    between atoms: N_15  and  C_23
REMARK    4  A    between atoms: C_30  and  C_31
REMARK    5  A    between atoms: C_31  and  N_32
REMARK                            x       y       z     vdW  Elec       q    Type
REMARK                         _______ _______ _______ _____ _____    ______ ____
ROOT
ATOM      1  N   UNL     1      34.547 -18.141 -21.792  0.00  0.00    +0.388 N 
ATOM      2  N   UNL     1      34.153 -20.534 -20.283  0.00  0.00    -0.298 N 
ATOM      3  N   UNL     1      34.394 -22.920 -20.243  0.00  0.00    -0.229 NA
ATOM      4  C   UNL     1      33.431 -18.247 -20.843  0.00  0.00    -0.056 C 
ATOM      5  C   UNL     1      35.699 -18.904 -21.295  0.00  0.00    -0.056 C 
ATOM      6  C   UNL     1      33.004 -19.705 -20.656  0.00  0.00    +0.069 C 
ATOM      7  C   UNL     1      35.347 -20.383 -21.125  0.00  0.00    +0.069 C 
ATOM      8  C   UNL     1      33.945 -21.767 -19.655  0.00  0.00    +0.132 C 
ATOM      9  C   UNL     1      33.273 -21.787 -18.425  0.00  0.00    +0.037 C 
ATOM     10  C   UNL     1      33.058 -23.004 -17.789  0.00  0.00    +0.035 C 
ATOM     11  C   UNL     1      34.166 -24.085 -19.595  0.00  0.00    +0.100 C 
ATOM     12  C   UNL     1      33.511 -24.180 -18.378  0.00  0.00    +0.023 C 
ATOM     13  H   UNL     1      34.255 -18.532 -22.688  0.00  0.00    -0.080 HD
ENDROOT
BRANCH  10  17
ATOM     14  N   UNL     1      33.130 -23.410 -15.467  0.00  0.00    -0.337 NA
ATOM     15  N   UNL     1      33.248 -23.826 -13.160  0.00  0.00    -0.247 N 
ATOM     16  N   UNL     1      31.184 -23.171 -14.066  0.00  0.00    -0.170 NA
ATOM     17  C   UNL     1      32.367 -23.049 -16.518  0.00  0.00    +0.146 C 
ATOM     18  C   UNL     1      31.028 -22.737 -16.428  0.00  0.00    +0.055 C 
ATOM     19  C   UNL     1      32.483 -23.451 -14.287  0.00  0.00    +0.149 C 
ATOM     20  C   UNL     1      30.483 -22.817 -15.163  0.00  0.00    +0.114 C 
ATOM     21  H   UNL     1      32.735 -23.842 -12.321  0.00  0.00    +0.165 HD
BRANCH  15  23
ATOM     22 CL   UNL     1      37.360 -26.184 -15.088  0.00  0.00    -0.083 Cl
ATOM     23  C   UNL     1      34.601 -24.181 -13.004  0.00  0.00    +0.058 C 
ATOM     24  C   UNL     1      35.250 -24.920 -13.995  0.00  0.00    +0.026 C 
ATOM     25  C   UNL     1      35.298 -23.795 -11.858  0.00  0.00    +0.015 C 
ATOM     26  C   UNL     1      37.286 -24.884 -12.695  0.00  0.00    -0.011 C 
ATOM     27  C   UNL     1      36.592 -25.271 -13.840  0.00  0.00    +0.055 C 
ATOM     28  C   UNL     1      36.639 -24.146 -11.703  0.00  0.00    -0.002 C 
ATOM     29  C   UNL     1      38.723 -25.239 -12.490  0.00  0.00    +0.032 C 
ENDBRANCH  15  23
ENDBRANCH  10  17
BRANCH   1  30
ATOM     30  C   UNL     1      34.911 -16.741 -22.003  0.00  0.00    -0.102 C 
BRANCH  30  31
ATOM     31  C   UNL     1      34.624 -16.334 -23.445  0.00  0.00    -0.110 C 
BRANCH  31  32
ATOM     32  N   UNL     1      35.225 -17.290 -24.368  0.00  0.00    +0.379 N 
ATOM     33  H   UNL     1      35.475 -18.140 -23.862  0.00  0.00    -0.089 HD
ATOM     34  H   UNL     1      36.062 -16.883 -24.783  0.00  0.00    -0.089 HD
ATOM     35  H   UNL     1      34.556 -17.517 -25.104  0.00  0.00    -0.089 HD
ENDBRANCH  31  32
ENDBRANCH  30  31
ENDBRANCH   1  30
TORSDOF 5
ENDMDL
MODEL 8
REMARK VINA RESULT:      -7.7      3.631     10.862
REMARK  Name = 656967
REMARK  5 active torsions:
REMARK  status: ('A' for Active; 'I' for Inactive)
REMARK    1  A    between atoms: N_1  and  C_30
REMARK    2  A    between atoms: C_10  and  C_17
REMARK    3  A    between atoms: N_15  and  C_23
REMARK    4  A    between atoms: C_30  and  C_31
REMARK    5  A    between atoms: C_31  and  N_32
REMARK                            x       y       z     vdW  Elec       q    Type
REMARK                         _______ _______ _______ _____ _____    ______ ____
ROOT
ATOM      1  N   UNL     1      34.554 -16.719 -22.042  0.00  0.00    +0.388 N 
ATOM      2  N   UNL     1      33.932 -14.069 -22.910  0.00  0.00    -0.298 N 
ATOM      3  N   UNL     1      34.021 -12.499 -24.720  0.00  0.00    -0.229 NA
ATOM      4  C   UNL     1      34.558 -15.604 -21.087  0.00  0.00    -0.056 C 
ATOM      5  C   UNL     1      33.527 -16.495 -23.067  0.00  0.00    -0.056 C 
ATOM      6  C   UNL     1      34.856 -14.277 -21.791  0.00  0.00    +0.069 C 
ATOM      7  C   UNL     1      33.792 -15.199 -23.837  0.00  0.00    +0.069 C 
ATOM      8  C   UNL     1      33.728 -12.779 -23.412  0.00  0.00    +0.132 C 
ATOM      9  C   UNL     1      33.225 -11.796 -22.547  0.00  0.00    +0.037 C 
ATOM     10  C   UNL     1      33.018 -10.510 -23.032  0.00  0.00    +0.035 C 
ATOM     11  C   UNL     1      33.807 -11.237 -25.155  0.00  0.00    +0.100 C 
ATOM     12  C   UNL     1      33.311 -10.216 -24.359  0.00  0.00    +0.023 C 
ATOM     13  H   UNL     1      35.466 -16.767 -22.496  0.00  0.00    -0.080 HD
ENDROOT
BRANCH  10  17
ATOM     14  N   UNL     1      32.362  -8.265 -22.728  0.00  0.00    -0.337 NA
ATOM     15  N   UNL     1      31.722  -6.022 -22.471  0.00  0.00    -0.247 N 
ATOM     16  N   UNL     1      31.531  -7.449 -20.618  0.00  0.00    -0.170 NA
ATOM     17  C   UNL     1      32.499  -9.479 -22.159  0.00  0.00    +0.146 C 
ATOM     18  C   UNL     1      32.179  -9.756 -20.847  0.00  0.00    +0.055 C 
ATOM     19  C   UNL     1      31.880  -7.309 -21.911  0.00  0.00    +0.149 C 
ATOM     20  C   UNL     1      31.694  -8.691 -20.116  0.00  0.00    +0.114 C 
ATOM     21  H   UNL     1      31.367  -5.356 -21.839  0.00  0.00    +0.165 HD
BRANCH  15  23
ATOM     22 CL   UNL     1      34.826  -5.831 -26.535  0.00  0.00    -0.083 Cl
ATOM     23  C   UNL     1      31.973  -5.505 -23.756  0.00  0.00    +0.058 C 
ATOM     24  C   UNL     1      33.133  -5.869 -24.443  0.00  0.00    +0.026 C 
ATOM     25  C   UNL     1      31.062  -4.628 -24.348  0.00  0.00    +0.015 C 
ATOM     26  C   UNL     1      32.470  -4.482 -26.306  0.00  0.00    -0.011 C 
ATOM     27  C   UNL     1      33.381  -5.357 -25.717  0.00  0.00    +0.055 C 
ATOM     28  C   UNL     1      31.311  -4.117 -25.622  0.00  0.00    -0.002 C 
ATOM     29  C   UNL     1      32.698  -3.912 -27.669  0.00  0.00    +0.032 C 
ENDBRANCH  15  23
ENDBRANCH  10  17
BRANCH   1  30
ATOM     30  C   UNL     1      34.321 -17.986 -21.351  0.00  0.00    -0.102 C 
BRANCH  30  31
ATOM     31  C   UNL     1      34.993 -19.128 -22.107  0.00  0.00    -0.110 C 
BRANCH  31  32
ATOM     32  N   UNL     1      35.368 -20.193 -21.183  0.00  0.00    +0.379 N 
ATOM     33  H   UNL     1      35.469 -21.069 -21.695  0.00  0.00    -0.089 HD
ATOM     34  H   UNL     1      34.644 -20.296 -20.472  0.00  0.00    -0.089 HD
ATOM     35  H   UNL     1      36.253 -19.957 -20.734  0.00  0.00    -0.089 HD
ENDBRANCH  31  32
ENDBRANCH  30  31
ENDBRANCH   1  30
TORSDOF 5
ENDMDL
MODEL 9
REMARK VINA RESULT:      -7.6      3.748      9.831
REMARK  Name = 656967
REMARK  5 active torsions:
REMARK  status: ('A' for Active; 'I' for Inactive)
REMARK    1  A    between atoms: N_1  and  C_30
REMARK    2  A    between atoms: C_10  and  C_17
REMARK    3  A    between atoms: N_15  and  C_23
REMARK    4  A    between atoms: C_30  and  C_31
REMARK    5  A    between atoms: C_31  and  N_32
REMARK                            x       y       z     vdW  Elec       q    Type
REMARK                         _______ _______ _______ _____ _____    ______ ____
ROOT
ATOM      1  N   UNL     1      34.396 -21.241 -19.861  0.00  0.00    +0.388 N 
ATOM      2  N   UNL     1      34.549 -18.582 -20.891  0.00  0.00    -0.298 N 
ATOM      3  N   UNL     1      35.023 -16.284 -20.397  0.00  0.00    -0.229 NA
ATOM      4  C   UNL     1      33.511 -20.815 -20.952  0.00  0.00    -0.056 C 
ATOM      5  C   UNL     1      35.694 -20.563 -19.977  0.00  0.00    -0.056 C 
ATOM      6  C   UNL     1      33.274 -19.303 -20.908  0.00  0.00    +0.069 C 
ATOM      7  C   UNL     1      35.528 -19.044 -19.899  0.00  0.00    +0.069 C 
ATOM      8  C   UNL     1      34.592 -17.238 -21.280  0.00  0.00    +0.132 C 
ATOM      9  C   UNL     1      34.187 -16.904 -22.579  0.00  0.00    +0.037 C 
ATOM     10  C   UNL     1      34.224 -15.572 -22.979  0.00  0.00    +0.035 C 
ATOM     11  C   UNL     1      35.045 -15.000 -20.822  0.00  0.00    +0.100 C 
ATOM     12  C   UNL     1      34.661 -14.597 -22.090  0.00  0.00    +0.023 C 
ATOM     13  H   UNL     1      33.970 -20.986 -18.971  0.00  0.00    -0.080 HD
ENDROOT
BRANCH  10  17
ATOM     14  N   UNL     1      33.834 -13.881 -24.575  0.00  0.00    -0.337 NA
ATOM     15  N   UNL     1      33.458 -12.164 -26.131  0.00  0.00    -0.247 N 
ATOM     16  N   UNL     1      33.054 -14.377 -26.800  0.00  0.00    -0.170 NA
ATOM     17  C   UNL     1      33.811 -15.204 -24.316  0.00  0.00    +0.146 C 
ATOM     18  C   UNL     1      33.429 -16.162 -25.230  0.00  0.00    +0.055 C 
ATOM     19  C   UNL     1      33.448 -13.542 -25.820  0.00  0.00    +0.149 C 
ATOM     20  C   UNL     1      33.056 -15.685 -26.470  0.00  0.00    +0.114 C 
ATOM     21  H   UNL     1      33.169 -11.964 -27.050  0.00  0.00    +0.165 HD
BRANCH  15  23
ATOM     22 CL   UNL     1      32.339  -9.036 -22.239  0.00  0.00    -0.083 Cl
ATOM     23  C   UNL     1      33.801 -11.023 -25.383  0.00  0.00    +0.058 C 
ATOM     24  C   UNL     1      33.005 -10.626 -24.306  0.00  0.00    +0.026 C 
ATOM     25  C   UNL     1      34.938 -10.284 -25.715  0.00  0.00    +0.015 C 
ATOM     26  C   UNL     1      34.482  -8.758 -23.898  0.00  0.00    -0.011 C 
ATOM     27  C   UNL     1      33.346  -9.494 -23.564  0.00  0.00    +0.055 C 
ATOM     28  C   UNL     1      35.278  -9.152 -24.974  0.00  0.00    -0.002 C 
ATOM     29  C   UNL     1      34.882  -7.540 -23.129  0.00  0.00    +0.032 C 
ENDBRANCH  15  23
ENDBRANCH  10  17
BRANCH   1  30
ATOM     30  C   UNL     1      34.573 -22.693 -19.881  0.00  0.00    -0.102 C 
BRANCH  30  31
ATOM     31  C   UNL     1      33.848 -23.327 -18.698  0.00  0.00    -0.110 C 
BRANCH  31  32
ATOM     32  N   UNL     1      32.741 -22.479 -18.272  0.00  0.00    +0.379 N 
ATOM     33  H   UNL     1      32.028 -23.051 -17.820  0.00  0.00    -0.089 HD
ATOM     34  H   UNL     1      32.338 -22.013 -19.084  0.00  0.00    -0.089 HD
ATOM     35  H   UNL     1      33.083 -21.779 -17.613  0.00  0.00    -0.089 HD
ENDBRANCH  31  32
ENDBRANCH  30  31
ENDBRANCH   1  30
TORSDOF 5
ENDMDL
