MODEL 1
REMARK VINA RESULT:      -7.8      0.000      0.000
REMARK  Name = 123979
REMARK  8 active torsions:
REMARK  status: ('A' for Active; 'I' for Inactive)
REMARK    1  A    between atoms: C_2  and  C_11
REMARK    2  A    between atoms: C_4  and  C_14
REMARK    3  A    between atoms: C_5  and  C_8
REMARK    4  A    between atoms: C_8  and  O_9
REMARK    5  A    between atoms: C_11  and  C_12
REMARK    6  A    between atoms: C_14  and  C_15
REMARK    7  A    between atoms: C_15  and  C_17
REMARK    8  A    between atoms: C_17  and  O_18
REMARK                            x       y       z     vdW  Elec       q    Type
REMARK                         _______ _______ _______ _____ _____    ______ ____
ROOT
ATOM      1  O   UNL     1      36.107 -19.943 -20.199  0.00  0.00    -0.462 OA
ATOM      2  C   UNL     1      34.989 -19.433 -20.779  0.00  0.00    +0.119 A 
ATOM      3  C   UNL     1      33.894 -20.209 -20.481  0.00  0.00    +0.017 A 
ATOM      4  C   UNL     1      35.696 -21.041 -19.542  0.00  0.00    +0.129 A 
ATOM      5  C   UNL     1      34.369 -21.265 -19.667  0.00  0.00    +0.104 A 
ATOM      6  C   UNL     1      32.505 -19.981 -20.926  0.00  0.00    +0.034 C 
ENDROOT
BRANCH   5   8
ATOM      7  O   UNL     1      32.608 -22.247 -18.379  0.00  0.00    -0.245 OA
ATOM      8  C   UNL     1      33.633 -22.348 -19.084  0.00  0.00    +0.340 C 
BRANCH   8   9
ATOM      9  O   UNL     1      34.161 -23.578 -19.372  0.00  0.00    -0.477 OA
ATOM     10  H   UNL     1      33.715 -24.355 -19.097  0.00  0.00    +0.295 HD
ENDBRANCH   8   9
ENDBRANCH   5   8
BRANCH   2  11
ATOM     11  C   UNL     1      35.175 -18.206 -21.570  0.00  0.00    +0.064 C 
BRANCH  11  12
ATOM     12  C   UNL     1      35.775 -18.480 -22.966  0.00  0.00    +0.008 C 
ATOM     13  C   UNL     1      34.725 -18.890 -23.987  0.00  0.00    +0.000 C 
ENDBRANCH  11  12
ENDBRANCH   2  11
BRANCH   4  14
ATOM     14  C   UNL     1      36.786 -21.779 -18.811  0.00  0.00    +0.076 C 
BRANCH  14  15
ATOM     15  C   UNL     1      36.851 -21.372 -17.341  0.00  0.00    +0.117 C 
BRANCH  15  17
ATOM     16  O   UNL     1      35.715 -23.320 -16.480  0.00  0.00    -0.250 OA
ATOM     17  C   UNL     1      36.682 -22.571 -16.445  0.00  0.00    +0.314 C 
BRANCH  17  18
ATOM     18  O   UNL     1      37.730 -22.742 -15.602  0.00  0.00    -0.480 OA
ATOM     19  H   UNL     1      38.604 -22.772 -15.941  0.00  0.00    +0.295 HD
ENDBRANCH  17  18
ENDBRANCH  15  17
ENDBRANCH  14  15
ENDBRANCH   4  14
TORSDOF 8
ENDMDL
MODEL 2
REMARK VINA RESULT:      -7.7      4.140      6.824
REMARK  Name = 123979
REMARK  8 active torsions:
REMARK  status: ('A' for Active; 'I' for Inactive)
REMARK    1  A    between atoms: C_2  and  C_11
REMARK    2  A    between atoms: C_4  and  C_14
REMARK    3  A    between atoms: C_5  and  C_8
REMARK    4  A    between atoms: C_8  and  O_9
REMARK    5  A    between atoms: C_11  and  C_12
REMARK    6  A    between atoms: C_14  and  C_15
REMARK    7  A    between atoms: C_15  and  C_17
REMARK    8  A    between atoms: C_17  and  O_18
REMARK                            x       y       z     vdW  Elec       q    Type
REMARK                         _______ _______ _______ _____ _____    ______ ____
ROOT
ATOM      1  O   UNL     1      31.759 -22.753 -17.092  0.00  0.00    -0.462 OA
ATOM      2  C   UNL     1      33.072 -23.098 -17.146  0.00  0.00    +0.119 A 
ATOM      3  C   UNL     1      33.497 -23.574 -15.927  0.00  0.00    +0.017 A 
ATOM      4  C   UNL     1      31.375 -23.019 -15.832  0.00  0.00    +0.129 A 
ATOM      5  C   UNL     1      32.373 -23.517 -15.069  0.00  0.00    +0.104 A 
ATOM      6  C   UNL     1      34.854 -24.046 -15.589  0.00  0.00    +0.034 C 
ENDROOT
BRANCH   5   8
ATOM      7  O   UNL     1      32.131 -25.060 -13.256  0.00  0.00    -0.245 OA
ATOM      8  C   UNL     1      32.277 -23.900 -13.691  0.00  0.00    +0.340 C 
BRANCH   8   9
ATOM      9  O   UNL     1      32.365 -22.840 -12.828  0.00  0.00    -0.477 OA
ATOM     10  H   UNL     1      32.372 -21.964 -13.162  0.00  0.00    +0.295 HD
ENDBRANCH   8   9
ENDBRANCH   5   8
BRANCH   2  11
ATOM     11  C   UNL     1      33.739 -22.900 -18.442  0.00  0.00    +0.064 C 
BRANCH  11  12
ATOM     12  C   UNL     1      33.202 -21.672 -19.209  0.00  0.00    +0.008 C 
ATOM     13  C   UNL     1      34.290 -20.938 -19.977  0.00  0.00    +0.000 C 
ENDBRANCH  11  12
ENDBRANCH   2  11
BRANCH   4  14
ATOM     14  C   UNL     1      29.929 -22.710 -15.539  0.00  0.00    +0.076 C 
BRANCH  14  15
ATOM     15  C   UNL     1      28.996 -23.715 -16.209  0.00  0.00    +0.117 C 
BRANCH  15  17
ATOM     16  O   UNL     1      27.354 -23.554 -17.972  0.00  0.00    -0.250 OA
ATOM     17  C   UNL     1      27.983 -23.011 -17.073  0.00  0.00    +0.314 C 
BRANCH  17  18
ATOM     18  O   UNL     1      27.828 -21.706 -16.736  0.00  0.00    -0.480 OA
ATOM     19  H   UNL     1      28.261 -21.039 -17.232  0.00  0.00    +0.295 HD
ENDBRANCH  17  18
ENDBRANCH  15  17
ENDBRANCH  14  15
ENDBRANCH   4  14
TORSDOF 8
ENDMDL
MODEL 3
REMARK VINA RESULT:      -7.6      3.483      5.319
REMARK  Name = 123979
REMARK  8 active torsions:
REMARK  status: ('A' for Active; 'I' for Inactive)
REMARK    1  A    between atoms: C_2  and  C_11
REMARK    2  A    between atoms: C_4  and  C_14
REMARK    3  A    between atoms: C_5  and  C_8
REMARK    4  A    between atoms: C_8  and  O_9
REMARK    5  A    between atoms: C_11  and  C_12
REMARK    6  A    between atoms: C_14  and  C_15
REMARK    7  A    between atoms: C_15  and  C_17
REMARK    8  A    between atoms: C_17  and  O_18
REMARK                            x       y       z     vdW  Elec       q    Type
REMARK                         _______ _______ _______ _____ _____    ______ ____
ROOT
ATOM      1  O   UNL     1      34.825 -23.602 -16.420  0.00  0.00    -0.462 OA
ATOM      2  C   UNL     1      33.665 -23.226 -17.019  0.00  0.00    +0.119 A 
ATOM      3  C   UNL     1      32.616 -23.309 -16.134  0.00  0.00    +0.017 A 
ATOM      4  C   UNL     1      34.485 -23.920 -15.159  0.00  0.00    +0.129 A 
ATOM      5  C   UNL     1      33.165 -23.767 -14.913  0.00  0.00    +0.104 A 
ATOM      6  C   UNL     1      31.202 -22.986 -16.409  0.00  0.00    +0.034 C 
ENDROOT
BRANCH   5   8
ATOM      7  O   UNL     1      31.902 -25.069 -13.353  0.00  0.00    -0.245 OA
ATOM      8  C   UNL     1      32.499 -24.020 -13.669  0.00  0.00    +0.340 C 
BRANCH   8   9
ATOM      9  O   UNL     1      32.567 -22.969 -12.795  0.00  0.00    -0.477 OA
ATOM     10  H   UNL     1      32.959 -22.161 -13.064  0.00  0.00    +0.295 HD
ENDBRANCH   8   9
ENDBRANCH   5   8
BRANCH   2  11
ATOM     11  C   UNL     1      33.769 -22.823 -18.430  0.00  0.00    +0.064 C 
BRANCH  11  12
ATOM     12  C   UNL     1      35.094 -22.098 -18.749  0.00  0.00    +0.008 C 
ATOM     13  C   UNL     1      34.948 -21.069 -19.859  0.00  0.00    +0.000 C 
ENDBRANCH  11  12
ENDBRANCH   2  11
BRANCH   4  14
ATOM     14  C   UNL     1      35.634 -24.371 -14.294  0.00  0.00    +0.076 C 
BRANCH  14  15
ATOM     15  C   UNL     1      36.760 -24.974 -15.130  0.00  0.00    +0.117 C 
BRANCH  15  17
ATOM     16  O   UNL     1      36.642 -27.158 -16.152  0.00  0.00    -0.250 OA
ATOM     17  C   UNL     1      36.677 -26.478 -15.135  0.00  0.00    +0.314 C 
BRANCH  17  18
ATOM     18  O   UNL     1      36.663 -27.002 -13.884  0.00  0.00    -0.480 OA
ATOM     19  H   UNL     1      35.892 -26.930 -13.355  0.00  0.00    +0.295 HD
ENDBRANCH  17  18
ENDBRANCH  15  17
ENDBRANCH  14  15
ENDBRANCH   4  14
TORSDOF 8
ENDMDL
MODEL 4
REMARK VINA RESULT:      -7.4      4.398      7.605
REMARK  Name = 123979
REMARK  8 active torsions:
REMARK  status: ('A' for Active; 'I' for Inactive)
REMARK    1  A    between atoms: C_2  and  C_11
REMARK    2  A    between atoms: C_4  and  C_14
REMARK    3  A    between atoms: C_5  and  C_8
REMARK    4  A    between atoms: C_8  and  O_9
REMARK    5  A    between atoms: C_11  and  C_12
REMARK    6  A    between atoms: C_14  and  C_15
REMARK    7  A    between atoms: C_15  and  C_17
REMARK    8  A    between atoms: C_17  and  O_18
REMARK                            x       y       z     vdW  Elec       q    Type
REMARK                         _______ _______ _______ _____ _____    ______ ____
ROOT
ATOM      1  O   UNL     1      34.995 -16.957 -21.298  0.00  0.00    -0.462 OA
ATOM      2  C   UNL     1      35.127 -18.178 -21.878  0.00  0.00    +0.119 A 
ATOM      3  C   UNL     1      34.857 -18.104 -23.225  0.00  0.00    +0.017 A 
ATOM      4  C   UNL     1      34.640 -16.128 -22.294  0.00  0.00    +0.129 A 
ATOM      5  C   UNL     1      34.538 -16.751 -23.489  0.00  0.00    +0.104 A 
ATOM      6  C   UNL     1      34.895 -19.217 -24.194  0.00  0.00    +0.034 C 
ENDROOT
BRANCH   5   8
ATOM      7  O   UNL     1      33.296 -15.281 -24.910  0.00  0.00    -0.245 OA
ATOM      8  C   UNL     1      34.182 -16.141 -24.737  0.00  0.00    +0.340 C 
BRANCH   8   9
ATOM      9  O   UNL     1      34.928 -16.593 -25.792  0.00  0.00    -0.477 OA
ATOM     10  H   UNL     1      34.747 -16.287 -26.659  0.00  0.00    +0.295 HD
ENDBRANCH   8   9
ENDBRANCH   5   8
BRANCH   2  11
ATOM     11  C   UNL     1      35.517 -19.279 -20.984  0.00  0.00    +0.064 C 
BRANCH  11  12
ATOM     12  C   UNL     1      34.388 -20.314 -20.782  0.00  0.00    +0.008 C 
ATOM     13  C   UNL     1      33.028 -19.666 -20.573  0.00  0.00    +0.000 C 
ENDBRANCH  11  12
ENDBRANCH   2  11
BRANCH   4  14
ATOM     14  C   UNL     1      34.437 -14.695 -21.875  0.00  0.00    +0.076 C 
BRANCH  14  15
ATOM     15  C   UNL     1      33.161 -14.527 -21.055  0.00  0.00    +0.117 C 
BRANCH  15  17
ATOM     16  O   UNL     1      31.914 -12.464 -20.928  0.00  0.00    -0.250 OA
ATOM     17  C   UNL     1      32.318 -13.404 -21.600  0.00  0.00    +0.314 C 
BRANCH  17  18
ATOM     18  O   UNL     1      32.067 -13.536 -22.926  0.00  0.00    -0.480 OA
ATOM     19  H   UNL     1      31.364 -13.059 -23.320  0.00  0.00    +0.295 HD
ENDBRANCH  17  18
ENDBRANCH  15  17
ENDBRANCH  14  15
ENDBRANCH   4  14
TORSDOF 8
ENDMDL
MODEL 5
REMARK VINA RESULT:      -7.3      3.600      5.315
REMARK  Name = 123979
REMARK  8 active torsions:
REMARK  status: ('A' for Active; 'I' for Inactive)
REMARK    1  A    between atoms: C_2  and  C_11
REMARK    2  A    between atoms: C_4  and  C_14
REMARK    3  A    between atoms: C_5  and  C_8
REMARK    4  A    between atoms: C_8  and  O_9
REMARK    5  A    between atoms: C_11  and  C_12
REMARK    6  A    between atoms: C_14  and  C_15
REMARK    7  A    between atoms: C_15  and  C_17
REMARK    8  A    between atoms: C_17  and  O_18
REMARK                            x       y       z     vdW  Elec       q    Type
REMARK                         _______ _______ _______ _____ _____    ______ ____
ROOT
ATOM      1  O   UNL     1      34.809 -23.577 -16.613  0.00  0.00    -0.462 OA
ATOM      2  C   UNL     1      33.664 -23.123 -17.186  0.00  0.00    +0.119 A 
ATOM      3  C   UNL     1      32.605 -23.255 -16.318  0.00  0.00    +0.017 A 
ATOM      4  C   UNL     1      34.451 -23.993 -15.386  0.00  0.00    +0.129 A 
ATOM      5  C   UNL     1      33.133 -23.828 -15.137  0.00  0.00    +0.104 A 
ATOM      6  C   UNL     1      31.202 -22.874 -16.575  0.00  0.00    +0.034 C 
ENDROOT
BRANCH   5   8
ATOM      7  O   UNL     1      31.975 -23.368 -13.094  0.00  0.00    -0.245 OA
ATOM      8  C   UNL     1      32.449 -24.170 -13.924  0.00  0.00    +0.340 C 
BRANCH   8   9
ATOM      9  O   UNL     1      32.344 -25.521 -13.724  0.00  0.00    -0.477 OA
ATOM     10  H   UNL     1      32.951 -26.103 -14.137  0.00  0.00    +0.295 HD
ENDBRANCH   8   9
ENDBRANCH   5   8
BRANCH   2  11
ATOM     11  C   UNL     1      33.790 -22.604 -18.556  0.00  0.00    +0.064 C 
BRANCH  11  12
ATOM     12  C   UNL     1      35.190 -22.023 -18.849  0.00  0.00    +0.008 C 
ATOM     13  C   UNL     1      35.171 -20.968 -19.945  0.00  0.00    +0.000 C 
ENDBRANCH  11  12
ENDBRANCH   2  11
BRANCH   4  14
ATOM     14  C   UNL     1      35.580 -24.544 -14.555  0.00  0.00    +0.076 C 
BRANCH  14  15
ATOM     15  C   UNL     1      35.890 -23.643 -13.363  0.00  0.00    +0.117 C 
BRANCH  15  17
ATOM     16  O   UNL     1      36.923 -24.546 -11.375  0.00  0.00    -0.250 OA
ATOM     17  C   UNL     1      35.931 -24.441 -12.086  0.00  0.00    +0.314 C 
BRANCH  17  18
ATOM     18  O   UNL     1      34.741 -25.022 -11.796  0.00  0.00    -0.480 OA
ATOM     19  H   UNL     1      34.053 -25.025 -12.433  0.00  0.00    +0.295 HD
ENDBRANCH  17  18
ENDBRANCH  15  17
ENDBRANCH  14  15
ENDBRANCH   4  14
TORSDOF 8
ENDMDL
MODEL 6
REMARK VINA RESULT:      -7.2      3.542      5.882
REMARK  Name = 123979
REMARK  8 active torsions:
REMARK  status: ('A' for Active; 'I' for Inactive)
REMARK    1  A    between atoms: C_2  and  C_11
REMARK    2  A    between atoms: C_4  and  C_14
REMARK    3  A    between atoms: C_5  and  C_8
REMARK    4  A    between atoms: C_8  and  O_9
REMARK    5  A    between atoms: C_11  and  C_12
REMARK    6  A    between atoms: C_14  and  C_15
REMARK    7  A    between atoms: C_15  and  C_17
REMARK    8  A    between atoms: C_17  and  O_18
REMARK                            x       y       z     vdW  Elec       q    Type
REMARK                         _______ _______ _______ _____ _____    ______ ____
ROOT
ATOM      1  O   UNL     1      34.764 -17.045 -21.495  0.00  0.00    -0.462 OA
ATOM      2  C   UNL     1      34.420 -15.769 -21.809  0.00  0.00    +0.119 A 
ATOM      3  C   UNL     1      34.253 -15.635 -23.168  0.00  0.00    +0.017 A 
ATOM      4  C   UNL     1      34.809 -17.699 -22.668  0.00  0.00    +0.129 A 
ATOM      5  C   UNL     1      34.511 -16.910 -23.724  0.00  0.00    +0.104 A 
ATOM      6  C   UNL     1      33.879 -14.405 -23.893  0.00  0.00    +0.034 C 
ENDROOT
BRANCH   5   8
ATOM      7  O   UNL     1      33.702 -18.160 -25.597  0.00  0.00    -0.245 OA
ATOM      8  C   UNL     1      34.471 -17.313 -25.099  0.00  0.00    +0.340 C 
BRANCH   8   9
ATOM      9  O   UNL     1      35.391 -16.666 -25.879  0.00  0.00    -0.477 OA
ATOM     10  H   UNL     1      35.717 -15.826 -25.619  0.00  0.00    +0.295 HD
ENDBRANCH   8   9
ENDBRANCH   5   8
BRANCH   2  11
ATOM     11  C   UNL     1      34.302 -14.835 -20.679  0.00  0.00    +0.064 C 
BRANCH  11  12
ATOM     12  C   UNL     1      32.836 -14.575 -20.269  0.00  0.00    +0.008 C 
ATOM     13  C   UNL     1      32.312 -13.240 -20.776  0.00  0.00    +0.000 C 
ENDBRANCH  11  12
ENDBRANCH   2  11
BRANCH   4  14
ATOM     14  C   UNL     1      35.176 -19.156 -22.559  0.00  0.00    +0.076 C 
BRANCH  14  15
ATOM     15  C   UNL     1      34.444 -19.833 -21.403  0.00  0.00    +0.117 C 
BRANCH  15  17
ATOM     16  O   UNL     1      35.306 -21.384 -19.767  0.00  0.00    -0.250 OA
ATOM     17  C   UNL     1      35.420 -20.323 -20.365  0.00  0.00    +0.314 C 
BRANCH  17  18
ATOM     18  O   UNL     1      36.452 -19.464 -20.176  0.00  0.00    -0.480 OA
ATOM     19  H   UNL     1      37.304 -19.795 -19.967  0.00  0.00    +0.295 HD
ENDBRANCH  17  18
ENDBRANCH  15  17
ENDBRANCH  14  15
ENDBRANCH   4  14
TORSDOF 8
ENDMDL
MODEL 7
REMARK VINA RESULT:      -7.1      7.785     10.631
REMARK  Name = 123979
REMARK  8 active torsions:
REMARK  status: ('A' for Active; 'I' for Inactive)
REMARK    1  A    between atoms: C_2  and  C_11
REMARK    2  A    between atoms: C_4  and  C_14
REMARK    3  A    between atoms: C_5  and  C_8
REMARK    4  A    between atoms: C_8  and  O_9
REMARK    5  A    between atoms: C_11  and  C_12
REMARK    6  A    between atoms: C_14  and  C_15
REMARK    7  A    between atoms: C_15  and  C_17
REMARK    8  A    between atoms: C_17  and  O_18
REMARK                            x       y       z     vdW  Elec       q    Type
REMARK                         _______ _______ _______ _____ _____    ______ ____
ROOT
ATOM      1  O   UNL     1      32.389 -12.862 -22.191  0.00  0.00    -0.462 OA
ATOM      2  C   UNL     1      31.860 -11.613 -22.108  0.00  0.00    +0.119 A 
ATOM      3  C   UNL     1      32.461 -10.772 -23.015  0.00  0.00    +0.017 A 
ATOM      4  C   UNL     1      33.323 -12.787 -23.155  0.00  0.00    +0.129 A 
ATOM      5  C   UNL     1      33.422 -11.554 -23.699  0.00  0.00    +0.104 A 
ATOM      6  C   UNL     1      32.160  -9.343 -23.227  0.00  0.00    +0.034 C 
ENDROOT
BRANCH   5   8
ATOM      7  O   UNL     1      34.220 -11.458 -25.953  0.00  0.00    -0.245 OA
ATOM      8  C   UNL     1      34.319 -11.159 -24.745  0.00  0.00    +0.340 C 
BRANCH   8   9
ATOM      9  O   UNL     1      35.355 -10.380 -24.305  0.00  0.00    -0.477 OA
ATOM     10  H   UNL     1      35.369  -9.464 -24.500  0.00  0.00    +0.295 HD
ENDBRANCH   8   9
ENDBRANCH   5   8
BRANCH   2  11
ATOM     11  C   UNL     1      30.797 -11.428 -21.108  0.00  0.00    +0.064 C 
BRANCH  11  12
ATOM     12  C   UNL     1      31.346 -11.259 -19.675  0.00  0.00    +0.008 C 
ATOM     13  C   UNL     1      31.858  -9.852 -19.404  0.00  0.00    +0.000 C 
ENDBRANCH  11  12
ENDBRANCH   2  11
BRANCH   4  14
ATOM     14  C   UNL     1      34.050 -14.078 -23.424  0.00  0.00    +0.076 C 
BRANCH  14  15
ATOM     15  C   UNL     1      33.433 -14.834 -24.598  0.00  0.00    +0.117 C 
BRANCH  15  17
ATOM     16  O   UNL     1      34.121 -16.679 -25.995  0.00  0.00    -0.250 OA
ATOM     17  C   UNL     1      34.282 -16.020 -24.977  0.00  0.00    +0.314 C 
BRANCH  17  18
ATOM     18  O   UNL     1      35.261 -16.270 -24.072  0.00  0.00    -0.480 OA
ATOM     19  H   UNL     1      35.048 -16.359 -23.163  0.00  0.00    +0.295 HD
ENDBRANCH  17  18
ENDBRANCH  15  17
ENDBRANCH  14  15
ENDBRANCH   4  14
TORSDOF 8
ENDMDL
MODEL 8
REMARK VINA RESULT:      -7.1      4.385      7.164
REMARK  Name = 123979
REMARK  8 active torsions:
REMARK  status: ('A' for Active; 'I' for Inactive)
REMARK    1  A    between atoms: C_2  and  C_11
REMARK    2  A    between atoms: C_4  and  C_14
REMARK    3  A    between atoms: C_5  and  C_8
REMARK    4  A    between atoms: C_8  and  O_9
REMARK    5  A    between atoms: C_11  and  C_12
REMARK    6  A    between atoms: C_14  and  C_15
REMARK    7  A    between atoms: C_15  and  C_17
REMARK    8  A    between atoms: C_17  and  O_18
REMARK                            x       y       z     vdW  Elec       q    Type
REMARK                         _______ _______ _______ _____ _____    ______ ____
ROOT
ATOM      1  O   UNL     1      34.085 -15.331 -23.314  0.00  0.00    -0.462 OA
ATOM      2  C   UNL     1      34.206 -16.292 -24.267  0.00  0.00    +0.119 A 
ATOM      3  C   UNL     1      34.536 -17.499 -23.697  0.00  0.00    +0.017 A 
ATOM      4  C   UNL     1      34.343 -15.953 -22.150  0.00  0.00    +0.129 A 
ATOM      5  C   UNL     1      34.624 -17.265 -22.304  0.00  0.00    +0.104 A 
ATOM      6  C   UNL     1      34.753 -18.777 -24.402  0.00  0.00    +0.034 C 
ENDROOT
BRANCH   5   8
ATOM      7  O   UNL     1      36.032 -18.302 -20.671  0.00  0.00    -0.245 OA
ATOM      8  C   UNL     1      34.937 -18.194 -21.257  0.00  0.00    +0.340 C 
BRANCH   8   9
ATOM      9  O   UNL     1      33.885 -19.005 -20.921  0.00  0.00    -0.477 OA
ATOM     10  H   UNL     1      34.044 -19.886 -20.644  0.00  0.00    +0.295 HD
ENDBRANCH   8   9
ENDBRANCH   5   8
BRANCH   2  11
ATOM     11  C   UNL     1      33.968 -15.859 -25.653  0.00  0.00    +0.064 C 
BRANCH  11  12
ATOM     12  C   UNL     1      32.979 -14.677 -25.749  0.00  0.00    +0.008 C 
ATOM     13  C   UNL     1      33.273 -13.760 -26.925  0.00  0.00    +0.000 C 
ENDBRANCH  11  12
ENDBRANCH   2  11
BRANCH   4  14
ATOM     14  C   UNL     1      34.263 -15.066 -20.935  0.00  0.00    +0.076 C 
BRANCH  14  15
ATOM     15  C   UNL     1      32.820 -14.868 -20.480  0.00  0.00    +0.117 C 
BRANCH  15  17
ATOM     16  O   UNL     1      32.141 -12.562 -20.257  0.00  0.00    -0.250 OA
ATOM     17  C   UNL     1      32.282 -13.548 -20.968  0.00  0.00    +0.314 C 
BRANCH  17  18
ATOM     18  O   UNL     1      31.983 -13.564 -22.290  0.00  0.00    -0.480 OA
ATOM     19  H   UNL     1      32.570 -13.970 -22.899  0.00  0.00    +0.295 HD
ENDBRANCH  17  18
ENDBRANCH  15  17
ENDBRANCH  14  15
ENDBRANCH   4  14
TORSDOF 8
ENDMDL
MODEL 9
REMARK VINA RESULT:      -7.1      6.293      9.674
REMARK  Name = 123979
REMARK  8 active torsions:
REMARK  status: ('A' for Active; 'I' for Inactive)
REMARK    1  A    between atoms: C_2  and  C_11
REMARK    2  A    between atoms: C_4  and  C_14
REMARK    3  A    between atoms: C_5  and  C_8
REMARK    4  A    between atoms: C_8  and  O_9
REMARK    5  A    between atoms: C_11  and  C_12
REMARK    6  A    between atoms: C_14  and  C_15
REMARK    7  A    between atoms: C_15  and  C_17
REMARK    8  A    between atoms: C_17  and  O_18
REMARK                            x       y       z     vdW  Elec       q    Type
REMARK                         _______ _______ _______ _____ _____    ______ ____
ROOT
ATOM      1  O   UNL     1      34.121 -14.704 -22.888  0.00  0.00    -0.462 OA
ATOM      2  C   UNL     1      34.538 -15.972 -23.140  0.00  0.00    +0.119 A 
ATOM      3  C   UNL     1      34.291 -16.310 -24.450  0.00  0.00    +0.017 A 
ATOM      4  C   UNL     1      33.613 -14.261 -24.050  0.00  0.00    +0.129 A 
ATOM      5  C   UNL     1      33.682 -15.178 -25.040  0.00  0.00    +0.104 A 
ATOM      6  C   UNL     1      34.601 -17.598 -25.102  0.00  0.00    +0.034 C 
ENDROOT
BRANCH   5   8
ATOM      7  O   UNL     1      33.670 -14.183 -27.216  0.00  0.00    -0.245 OA
ATOM      8  C   UNL     1      33.228 -15.006 -26.389  0.00  0.00    +0.340 C 
BRANCH   8   9
ATOM      9  O   UNL     1      32.214 -15.859 -26.732  0.00  0.00    -0.477 OA
ATOM     10  H   UNL     1      31.334 -15.670 -26.471  0.00  0.00    +0.295 HD
ENDBRANCH   8   9
ENDBRANCH   5   8
BRANCH   2  11
ATOM     11  C   UNL     1      35.144 -16.690 -22.007  0.00  0.00    +0.064 C 
BRANCH  11  12
ATOM     12  C   UNL     1      34.215 -17.776 -21.421  0.00  0.00    +0.008 C 
ATOM     13  C   UNL     1      34.813 -19.171 -21.513  0.00  0.00    +0.000 C 
ENDBRANCH  11  12
ENDBRANCH   2  11
BRANCH   4  14
ATOM     14  C   UNL     1      33.083 -12.851 -24.006  0.00  0.00    +0.076 C 
BRANCH  14  15
ATOM     15  C   UNL     1      34.005 -11.883 -24.742  0.00  0.00    +0.117 C 
BRANCH  15  17
ATOM     16  O   UNL     1      33.086 -10.036 -23.489  0.00  0.00    -0.250 OA
ATOM     17  C   UNL     1      34.049 -10.549 -24.044  0.00  0.00    +0.314 C 
BRANCH  17  18
ATOM     18  O   UNL     1      35.280  -9.982 -24.082  0.00  0.00    -0.480 OA
ATOM     19  H   UNL     1      35.803  -9.944 -23.305  0.00  0.00    +0.295 HD
ENDBRANCH  17  18
ENDBRANCH  15  17
ENDBRANCH  14  15
ENDBRANCH   4  14
TORSDOF 8
ENDMDL
