MODEL 1
REMARK VINA RESULT:      -5.3      0.000      0.000
REMARK  Name = 449588
REMARK  0 active torsions:
REMARK  status: ('A' for Active; 'I' for Inactive)
REMARK                            x       y       z     vdW  Elec       q    Type
REMARK                         _______ _______ _______ _____ _____    ______ ____
ROOT
ATOM      1  O   UNL     1      35.304 -15.886 -23.324  0.00  0.00    -0.296 OA
ATOM      2  C   UNL     1      34.958 -18.495 -20.995  0.00  0.00    +0.008 C 
ATOM      3  C   UNL     1      35.961 -18.206 -22.980  0.00  0.00    +0.058 C 
ATOM      4  C   UNL     1      36.362 -18.670 -21.580  0.00  0.00    +0.008 C 
ATOM      5  C   UNL     1      34.119 -19.363 -21.958  0.00  0.00    +0.001 C 
ATOM      6  C   UNL     1      34.800 -19.145 -23.324  0.00  0.00    +0.007 C 
ATOM      7  C   UNL     1      34.673 -17.001 -21.257  0.00  0.00    +0.064 C 
ATOM      8  C   UNL     1      35.322 -16.881 -22.618  0.00  0.00    +0.150 C 
ENDROOT
TORSDOF 0
ENDMDL
MODEL 2
REMARK VINA RESULT:      -5.2      2.219      3.019
REMARK  Name = 449588
REMARK  0 active torsions:
REMARK  status: ('A' for Active; 'I' for Inactive)
REMARK                            x       y       z     vdW  Elec       q    Type
REMARK                         _______ _______ _______ _____ _____    ______ ____
ROOT
ATOM      1  O   UNL     1      36.830 -19.993 -19.866  0.00  0.00    -0.296 OA
ATOM      2  C   UNL     1      33.840 -19.375 -21.606  0.00  0.00    +0.008 C 
ATOM      3  C   UNL     1      35.966 -18.672 -21.721  0.00  0.00    +0.058 C 
ATOM      4  C   UNL     1      34.940 -19.294 -22.667  0.00  0.00    +0.008 C 
ATOM      5  C   UNL     1      33.764 -17.907 -21.135  0.00  0.00    +0.001 C 
ATOM      6  C   UNL     1      35.232 -17.435 -21.196  0.00  0.00    +0.007 C 
ATOM      7  C   UNL     1      34.499 -20.242 -20.511  0.00  0.00    +0.064 C 
ATOM      8  C   UNL     1      35.904 -19.690 -20.601  0.00  0.00    +0.150 C 
ENDROOT
TORSDOF 0
ENDMDL
MODEL 3
REMARK VINA RESULT:      -5.1      9.349     10.443
REMARK  Name = 449588
REMARK  0 active torsions:
REMARK  status: ('A' for Active; 'I' for Inactive)
REMARK                            x       y       z     vdW  Elec       q    Type
REMARK                         _______ _______ _______ _____ _____    ______ ____
ROOT
ATOM      1  O   UNL     1      27.911 -24.301 -17.388  0.00  0.00    -0.296 OA
ATOM      2  C   UNL     1      30.021 -23.829 -14.618  0.00  0.00    +0.008 C 
ATOM      3  C   UNL     1      29.360 -22.619 -16.386  0.00  0.00    +0.058 C 
ATOM      4  C   UNL     1      29.381 -22.460 -14.866  0.00  0.00    +0.008 C 
ATOM      5  C   UNL     1      31.292 -23.732 -15.489  0.00  0.00    +0.001 C 
ATOM      6  C   UNL     1      30.826 -22.917 -16.713  0.00  0.00    +0.007 C 
ATOM      7  C   UNL     1      29.009 -24.793 -15.274  0.00  0.00    +0.064 C 
ATOM      8  C   UNL     1      28.642 -23.950 -16.476  0.00  0.00    +0.150 C 
ENDROOT
TORSDOF 0
ENDMDL
MODEL 4
REMARK VINA RESULT:      -5.0      1.764      2.915
REMARK  Name = 449588
REMARK  0 active torsions:
REMARK  status: ('A' for Active; 'I' for Inactive)
REMARK                            x       y       z     vdW  Elec       q    Type
REMARK                         _______ _______ _______ _____ _____    ______ ____
ROOT
ATOM      1  O   UNL     1      33.353 -19.877 -21.185  0.00  0.00    -0.296 OA
ATOM      2  C   UNL     1      35.730 -18.200 -23.156  0.00  0.00    +0.008 C 
ATOM      3  C   UNL     1      35.220 -18.326 -20.976  0.00  0.00    +0.058 C 
ATOM      4  C   UNL     1      36.458 -18.525 -21.849  0.00  0.00    +0.008 C 
ATOM      5  C   UNL     1      35.144 -16.808 -22.838  0.00  0.00    +0.001 C 
ATOM      6  C   UNL     1      34.775 -16.907 -21.344  0.00  0.00    +0.007 C 
ATOM      7  C   UNL     1      34.600 -19.251 -23.177  0.00  0.00    +0.064 C 
ATOM      8  C   UNL     1      34.266 -19.254 -21.701  0.00  0.00    +0.150 C 
ENDROOT
TORSDOF 0
ENDMDL
MODEL 5
REMARK VINA RESULT:      -5.0      9.899     10.948
REMARK  Name = 449588
REMARK  0 active torsions:
REMARK  status: ('A' for Active; 'I' for Inactive)
REMARK                            x       y       z     vdW  Elec       q    Type
REMARK                         _______ _______ _______ _____ _____    ______ ____
ROOT
ATOM      1  O   UNL     1      30.830 -23.815 -12.608  0.00  0.00    -0.296 OA
ATOM      2  C   UNL     1      30.076 -24.686 -15.929  0.00  0.00    +0.008 C 
ATOM      3  C   UNL     1      30.669 -22.825 -14.828  0.00  0.00    +0.058 C 
ATOM      4  C   UNL     1      31.166 -23.616 -16.037  0.00  0.00    +0.008 C 
ATOM      5  C   UNL     1      28.798 -23.821 -15.960  0.00  0.00    +0.001 C 
ATOM      6  C   UNL     1      29.205 -22.552 -15.184  0.00  0.00    +0.007 C 
ATOM      7  C   UNL     1      30.297 -25.241 -14.505  0.00  0.00    +0.064 C 
ATOM      8  C   UNL     1      30.640 -23.943 -13.807  0.00  0.00    +0.150 C 
ENDROOT
TORSDOF 0
ENDMDL
MODEL 6
REMARK VINA RESULT:      -5.0      8.795      9.712
REMARK  Name = 449588
REMARK  0 active torsions:
REMARK  status: ('A' for Active; 'I' for Inactive)
REMARK                            x       y       z     vdW  Elec       q    Type
REMARK                         _______ _______ _______ _____ _____    ______ ____
ROOT
ATOM      1  O   UNL     1      40.878 -15.695 -14.934  0.00  0.00    -0.296 OA
ATOM      2  C   UNL     1      42.094 -13.279 -17.179  0.00  0.00    +0.008 C 
ATOM      3  C   UNL     1      41.612 -15.468 -17.246  0.00  0.00    +0.058 C 
ATOM      4  C   UNL     1      41.231 -14.214 -18.031  0.00  0.00    +0.008 C 
ATOM      5  C   UNL     1      43.478 -13.954 -17.295  0.00  0.00    +0.001 C 
ATOM      6  C   UNL     1      43.142 -15.459 -17.320  0.00  0.00    +0.007 C 
ATOM      7  C   UNL     1      41.522 -13.500 -15.762  0.00  0.00    +0.064 C 
ATOM      8  C   UNL     1      41.267 -14.989 -15.850  0.00  0.00    +0.150 C 
ENDROOT
TORSDOF 0
ENDMDL
MODEL 7
REMARK VINA RESULT:      -4.9      1.335      1.771
REMARK  Name = 449588
REMARK  0 active torsions:
REMARK  status: ('A' for Active; 'I' for Inactive)
REMARK                            x       y       z     vdW  Elec       q    Type
REMARK                         _______ _______ _______ _____ _____    ______ ____
ROOT
ATOM      1  O   UNL     1      34.370 -17.958 -25.289  0.00  0.00    -0.296 OA
ATOM      2  C   UNL     1      35.306 -17.242 -21.978  0.00  0.00    +0.008 C 
ATOM      3  C   UNL     1      35.304 -19.041 -23.317  0.00  0.00    +0.058 C 
ATOM      4  C   UNL     1      36.318 -18.285 -22.460  0.00  0.00    +0.008 C 
ATOM      5  C   UNL     1      34.205 -18.143 -21.377  0.00  0.00    +0.001 C 
ATOM      6  C   UNL     1      34.194 -19.368 -22.314  0.00  0.00    +0.007 C 
ATOM      7  C   UNL     1      34.810 -16.625 -23.304  0.00  0.00    +0.064 C 
ATOM      8  C   UNL     1      34.781 -17.883 -24.143  0.00  0.00    +0.150 C 
ENDROOT
TORSDOF 0
ENDMDL
MODEL 8
REMARK VINA RESULT:      -4.9      8.550      9.489
REMARK  Name = 449588
REMARK  0 active torsions:
REMARK  status: ('A' for Active; 'I' for Inactive)
REMARK                            x       y       z     vdW  Elec       q    Type
REMARK                         _______ _______ _______ _____ _____    ______ ____
ROOT
ATOM      1  O   UNL     1      40.669 -14.939 -14.678  0.00  0.00    -0.296 OA
ATOM      2  C   UNL     1      42.636 -15.926 -17.418  0.00  0.00    +0.008 C 
ATOM      3  C   UNL     1      42.061 -13.993 -16.438  0.00  0.00    +0.058 C 
ATOM      4  C   UNL     1      43.354 -14.706 -16.834  0.00  0.00    +0.008 C 
ATOM      5  C   UNL     1      41.696 -15.261 -18.447  0.00  0.00    +0.001 C 
ATOM      6  C   UNL     1      41.288 -13.942 -17.759  0.00  0.00    +0.007 C 
ATOM      7  C   UNL     1      41.816 -16.437 -16.214  0.00  0.00    +0.064 C 
ATOM      8  C   UNL     1      41.417 -15.100 -15.629  0.00  0.00    +0.150 C 
ENDROOT
TORSDOF 0
ENDMDL
MODEL 9
REMARK VINA RESULT:      -4.8     11.204     12.097
REMARK  Name = 449588
REMARK  0 active torsions:
REMARK  status: ('A' for Active; 'I' for Inactive)
REMARK                            x       y       z     vdW  Elec       q    Type
REMARK                         _______ _______ _______ _____ _____    ______ ____
ROOT
ATOM      1  O   UNL     1      36.821 -26.385 -11.630  0.00  0.00    -0.296 OA
ATOM      2  C   UNL     1      38.204 -25.707 -14.789  0.00  0.00    +0.008 C 
ATOM      3  C   UNL     1      38.317 -24.812 -12.736  0.00  0.00    +0.058 C 
ATOM      4  C   UNL     1      39.298 -25.328 -13.788  0.00  0.00    +0.008 C 
ATOM      5  C   UNL     1      37.447 -24.369 -14.933  0.00  0.00    +0.001 C 
ATOM      6  C   UNL     1      37.510 -23.768 -13.513  0.00  0.00    +0.007 C 
ATOM      7  C   UNL     1      37.349 -26.708 -13.983  0.00  0.00    +0.064 C 
ATOM      8  C   UNL     1      37.419 -26.029 -12.633  0.00  0.00    +0.150 C 
ENDROOT
TORSDOF 0
ENDMDL
