MODEL 1
REMARK VINA RESULT:      -9.2      0.000      0.000
REMARK  Name = 449245
REMARK  15 active torsions:
REMARK  status: ('A' for Active; 'I' for Inactive)
REMARK    1  A    between atoms: C_1  and  C_2
REMARK    2  A    between atoms: C_1  and  C_17
REMARK    3  A    between atoms: C_2  and  P_3
REMARK    4  A    between atoms: P_3  and  O_5
REMARK    5  A    between atoms: P_3  and  O_7
REMARK    6  A    between atoms: O_7  and  C_8
REMARK    7  A    between atoms: C_13  and  N_16
REMARK    8  A    between atoms: C_17  and  C_20
REMARK    9  A    between atoms: N_19  and  C_22
REMARK   10  A    between atoms: C_22  and  C_23
REMARK   11  A    between atoms: C_23  and  C_24
REMARK   12  A    between atoms: C_24  and  C_25
REMARK   13  A    between atoms: C_25  and  C_26
REMARK   14  A    between atoms: C_26  and  C_28
REMARK   15  A    between atoms: C_28  and  O_29
REMARK                            x       y       z     vdW  Elec       q    Type
REMARK                         _______ _______ _______ _____ _____    ______ ____
ROOT
ATOM      1  C   UNL     1      34.278 -14.373 -22.913  0.00  0.00    +0.023 C 
ENDROOT
BRANCH   1   2
ATOM      2  C   UNL     1      34.828 -15.791 -22.858  0.00  0.00    +0.129 C 
BRANCH   2   3
ATOM      3  P   UNL     1      34.360 -16.693 -21.363  0.00  0.00    +0.388 P 
ATOM      4  O   UNL     1      35.291 -16.446 -20.225  0.00  0.00    -0.244 OA
BRANCH   3   5
ATOM      5  O   UNL     1      32.834 -16.218 -21.152  0.00  0.00    -0.315 OA
ATOM      6  H   UNL     1      32.294 -16.524 -21.898  0.00  0.00    +0.221 HD
ENDBRANCH   3   5
BRANCH   3   7
ATOM      7  O   UNL     1      34.253 -18.203 -21.906  0.00  0.00    -0.422 OA
BRANCH   7   8
ATOM      8  C   UNL     1      34.290 -19.315 -21.111  0.00  0.00    +0.147 C 
ATOM      9  C   UNL     1      33.107 -19.854 -20.608  0.00  0.00    +0.039 C 
ATOM     10  C   UNL     1      35.514 -19.909 -20.802  0.00  0.00    +0.039 C 
ATOM     11  C   UNL     1      33.145 -20.988 -19.796  0.00  0.00    +0.027 C 
ATOM     12  C   UNL     1      35.554 -21.043 -19.989  0.00  0.00    +0.027 C 
ATOM     13  C   UNL     1      34.369 -21.582 -19.487  0.00  0.00    +0.143 C 
BRANCH  13  16
ATOM     14  O   UNL     1      33.807 -23.772 -19.033  0.00  0.00    -0.126 OA
ATOM     15  O   UNL     1      35.046 -22.689 -17.581  0.00  0.00    -0.126 OA
ATOM     16  N   UNL     1      34.409 -22.737 -18.660  0.00  0.00    +0.058 N 
ENDBRANCH  13  16
ENDBRANCH   7   8
ENDBRANCH   3   7
ENDBRANCH   2   3
ENDBRANCH   1   2
BRANCH   1  17
ATOM     17  C   UNL     1      33.363 -14.155 -24.115  0.00  0.00    +0.086 C 
BRANCH  17  20
ATOM     18  O   UNL     1      33.575 -12.681 -26.024  0.00  0.00    -0.275 OA
ATOM     19  N   UNL     1      33.920 -11.820 -23.893  0.00  0.00    -0.304 N 
ATOM     20  C   UNL     1      33.623 -12.827 -24.806  0.00  0.00    +0.222 C 
ATOM     21  H   UNL     1      33.932 -12.045 -22.935  0.00  0.00    +0.149 HD
BRANCH  19  22
ATOM     22  C   UNL     1      34.212 -10.466 -24.281  0.00  0.00    +0.089 C 
BRANCH  22  23
ATOM     23  C   UNL     1      33.382  -9.466 -23.484  0.00  0.00    +0.021 C 
BRANCH  23  24
ATOM     24  C   UNL     1      34.083  -8.120 -23.281  0.00  0.00    +0.002 C 
BRANCH  24  25
ATOM     25  C   UNL     1      33.369  -7.207 -22.282  0.00  0.00    +0.012 C 
BRANCH  25  26
ATOM     26  C   UNL     1      32.245  -7.950 -21.559  0.00  0.00    +0.109 C 
BRANCH  26  28
ATOM     27  O   UNL     1      32.424  -9.259 -19.514  0.00  0.00    -0.250 OA
ATOM     28  C   UNL     1      32.576  -8.199 -20.106  0.00  0.00    +0.314 C 
BRANCH  28  29
ATOM     29  O   UNL     1      33.072  -7.083 -19.512  0.00  0.00    -0.480 OA
ATOM     30  H   UNL     1      32.515  -6.344 -19.363  0.00  0.00    +0.295 HD
ENDBRANCH  28  29
ENDBRANCH  26  28
ENDBRANCH  25  26
ENDBRANCH  24  25
ENDBRANCH  23  24
ENDBRANCH  22  23
ENDBRANCH  19  22
ENDBRANCH  17  20
ENDBRANCH   1  17
TORSDOF 15
ENDMDL
MODEL 2
REMARK VINA RESULT:      -9.1      1.758      2.573
REMARK  Name = 449245
REMARK  15 active torsions:
REMARK  status: ('A' for Active; 'I' for Inactive)
REMARK    1  A    between atoms: C_1  and  C_2
REMARK    2  A    between atoms: C_1  and  C_17
REMARK    3  A    between atoms: C_2  and  P_3
REMARK    4  A    between atoms: P_3  and  O_5
REMARK    5  A    between atoms: P_3  and  O_7
REMARK    6  A    between atoms: O_7  and  C_8
REMARK    7  A    between atoms: C_13  and  N_16
REMARK    8  A    between atoms: C_17  and  C_20
REMARK    9  A    between atoms: N_19  and  C_22
REMARK   10  A    between atoms: C_22  and  C_23
REMARK   11  A    between atoms: C_23  and  C_24
REMARK   12  A    between atoms: C_24  and  C_25
REMARK   13  A    between atoms: C_25  and  C_26
REMARK   14  A    between atoms: C_26  and  C_28
REMARK   15  A    between atoms: C_28  and  O_29
REMARK                            x       y       z     vdW  Elec       q    Type
REMARK                         _______ _______ _______ _____ _____    ______ ____
ROOT
ATOM      1  C   UNL     1      34.212 -14.227 -22.751  0.00  0.00    +0.023 C 
ENDROOT
BRANCH   1   2
ATOM      2  C   UNL     1      34.380 -15.729 -22.936  0.00  0.00    +0.129 C 
BRANCH   2   3
ATOM      3  P   UNL     1      34.217 -16.670 -21.402  0.00  0.00    +0.388 P 
ATOM      4  O   UNL     1      35.206 -16.259 -20.365  0.00  0.00    -0.244 OA
BRANCH   3   5
ATOM      5  O   UNL     1      32.663 -16.444 -21.036  0.00  0.00    -0.315 OA
ATOM      6  H   UNL     1      32.253 -15.874 -21.705  0.00  0.00    +0.221 HD
ENDBRANCH   3   5
BRANCH   3   7
ATOM      7  O   UNL     1      34.302 -18.186 -21.933  0.00  0.00    -0.422 OA
BRANCH   7   8
ATOM      8  C   UNL     1      34.338 -19.288 -21.123  0.00  0.00    +0.147 C 
ATOM      9  C   UNL     1      33.152 -19.836 -20.635  0.00  0.00    +0.039 C 
ATOM     10  C   UNL     1      35.563 -19.862 -20.783  0.00  0.00    +0.039 C 
ATOM     11  C   UNL     1      33.190 -20.959 -19.809  0.00  0.00    +0.027 C 
ATOM     12  C   UNL     1      35.602 -20.985 -19.956  0.00  0.00    +0.027 C 
ATOM     13  C   UNL     1      34.415 -21.533 -19.469  0.00  0.00    +0.143 C 
BRANCH  13  16
ATOM     14  O   UNL     1      33.743 -23.669 -18.917  0.00  0.00    -0.126 OA
ATOM     15  O   UNL     1      35.197 -22.663 -17.617  0.00  0.00    -0.126 OA
ATOM     16  N   UNL     1      34.453 -22.677 -18.626  0.00  0.00    +0.058 N 
ENDBRANCH  13  16
ENDBRANCH   7   8
ENDBRANCH   3   7
ENDBRANCH   2   3
ENDBRANCH   1   2
BRANCH   1  17
ATOM     17  C   UNL     1      32.767 -13.778 -22.955  0.00  0.00    +0.086 C 
BRANCH  17  20
ATOM     18  O   UNL     1      32.369 -13.447 -20.591  0.00  0.00    -0.275 OA
ATOM     19  N   UNL     1      31.509 -11.906 -22.105  0.00  0.00    -0.304 N 
ATOM     20  C   UNL     1      32.210 -13.052 -21.742  0.00  0.00    +0.222 C 
ATOM     21  H   UNL     1      31.442 -11.680 -23.060  0.00  0.00    +0.149 HD
BRANCH  19  22
ATOM     22  C   UNL     1      30.875 -11.037 -21.150  0.00  0.00    +0.089 C 
BRANCH  22  23
ATOM     23  C   UNL     1      31.766  -9.851 -20.797  0.00  0.00    +0.021 C 
BRANCH  23  24
ATOM     24  C   UNL     1      31.806  -8.775 -21.886  0.00  0.00    +0.002 C 
BRANCH  24  25
ATOM     25  C   UNL     1      33.211  -8.234 -22.153  0.00  0.00    +0.012 C 
BRANCH  25  26
ATOM     26  C   UNL     1      33.572  -8.337 -23.635  0.00  0.00    +0.109 C 
BRANCH  26  28
ATOM     27  O   UNL     1      33.312 -10.676 -24.257  0.00  0.00    -0.250 OA
ATOM     28  C   UNL     1      34.039  -9.724 -24.008  0.00  0.00    +0.314 C 
BRANCH  28  29
ATOM     29  O   UNL     1      35.395  -9.800 -24.035  0.00  0.00    -0.480 OA
ATOM     30  H   UNL     1      35.815 -10.610 -24.248  0.00  0.00    +0.295 HD
ENDBRANCH  28  29
ENDBRANCH  26  28
ENDBRANCH  25  26
ENDBRANCH  24  25
ENDBRANCH  23  24
ENDBRANCH  22  23
ENDBRANCH  19  22
ENDBRANCH  17  20
ENDBRANCH   1  17
TORSDOF 15
ENDMDL
MODEL 3
REMARK VINA RESULT:      -9.1      3.558     11.368
REMARK  Name = 449245
REMARK  15 active torsions:
REMARK  status: ('A' for Active; 'I' for Inactive)
REMARK    1  A    between atoms: C_1  and  C_2
REMARK    2  A    between atoms: C_1  and  C_17
REMARK    3  A    between atoms: C_2  and  P_3
REMARK    4  A    between atoms: P_3  and  O_5
REMARK    5  A    between atoms: P_3  and  O_7
REMARK    6  A    between atoms: O_7  and  C_8
REMARK    7  A    between atoms: C_13  and  N_16
REMARK    8  A    between atoms: C_17  and  C_20
REMARK    9  A    between atoms: N_19  and  C_22
REMARK   10  A    between atoms: C_22  and  C_23
REMARK   11  A    between atoms: C_23  and  C_24
REMARK   12  A    between atoms: C_24  and  C_25
REMARK   13  A    between atoms: C_25  and  C_26
REMARK   14  A    between atoms: C_26  and  C_28
REMARK   15  A    between atoms: C_28  and  O_29
REMARK                            x       y       z     vdW  Elec       q    Type
REMARK                         _______ _______ _______ _____ _____    ______ ____
ROOT
ATOM      1  C   UNL     1      35.669 -21.659 -20.169  0.00  0.00    +0.023 C 
ENDROOT
BRANCH   1   2
ATOM      2  C   UNL     1      36.094 -20.205 -20.315  0.00  0.00    +0.129 C 
BRANCH   2   3
ATOM      3  P   UNL     1      34.942 -19.206 -21.284  0.00  0.00    +0.388 P 
ATOM      4  O   UNL     1      34.994 -19.518 -22.742  0.00  0.00    -0.244 OA
BRANCH   3   5
ATOM      5  O   UNL     1      33.541 -19.497 -20.542  0.00  0.00    -0.315 OA
ATOM      6  H   UNL     1      33.707 -19.715 -19.611  0.00  0.00    +0.221 HD
ENDBRANCH   3   5
BRANCH   3   7
ATOM      7  O   UNL     1      35.343 -17.713 -20.842  0.00  0.00    -0.422 OA
BRANCH   7   8
ATOM      8  C   UNL     1      34.861 -16.576 -21.431  0.00  0.00    +0.147 C 
ATOM      9  C   UNL     1      35.081 -16.346 -22.788  0.00  0.00    +0.039 C 
ATOM     10  C   UNL     1      34.151 -15.646 -20.672  0.00  0.00    +0.039 C 
ATOM     11  C   UNL     1      34.591 -15.186 -23.389  0.00  0.00    +0.027 C 
ATOM     12  C   UNL     1      33.660 -14.485 -21.271  0.00  0.00    +0.027 C 
ATOM     13  C   UNL     1      33.880 -14.256 -22.630  0.00  0.00    +0.143 C 
BRANCH  13  16
ATOM     14  O   UNL     1      32.524 -12.391 -22.631  0.00  0.00    -0.126 OA
ATOM     15  O   UNL     1      33.811 -12.747 -24.372  0.00  0.00    -0.126 OA
ATOM     16  N   UNL     1      33.381 -13.074 -23.241  0.00  0.00    +0.058 N 
ENDBRANCH  13  16
ENDBRANCH   7   8
ENDBRANCH   3   7
ENDBRANCH   2   3
ENDBRANCH   1   2
BRANCH   1  17
ATOM     17  C   UNL     1      35.307 -22.013 -18.729  0.00  0.00    +0.086 C 
BRANCH  17  20
ATOM     18  O   UNL     1      33.002 -22.177 -19.451  0.00  0.00    -0.275 OA
ATOM     19  N   UNL     1      33.573 -22.931 -17.327  0.00  0.00    -0.304 N 
ATOM     20  C   UNL     1      33.838 -22.371 -18.573  0.00  0.00    +0.222 C 
ATOM     21  H   UNL     1      34.319 -23.042 -16.695  0.00  0.00    +0.149 HD
BRANCH  19  22
ATOM     22  C   UNL     1      32.261 -23.354 -16.917  0.00  0.00    +0.089 C 
BRANCH  22  23
ATOM     23  C   UNL     1      32.048 -23.142 -15.422  0.00  0.00    +0.021 C 
BRANCH  23  24
ATOM     24  C   UNL     1      31.110 -24.173 -14.789  0.00  0.00    +0.002 C 
BRANCH  24  25
ATOM     25  C   UNL     1      30.040 -24.692 -15.751  0.00  0.00    +0.012 C 
BRANCH  25  26
ATOM     26  C   UNL     1      28.728 -23.925 -15.585  0.00  0.00    +0.109 C 
BRANCH  26  28
ATOM     27  O   UNL     1      27.608 -23.824 -17.744  0.00  0.00    -0.250 OA
ATOM     28  C   UNL     1      28.282 -23.283 -16.878  0.00  0.00    +0.314 C 
BRANCH  28  29
ATOM     29  O   UNL     1      28.726 -22.003 -16.975  0.00  0.00    -0.480 OA
ATOM     30  H   UNL     1      28.280 -21.393 -17.529  0.00  0.00    +0.295 HD
ENDBRANCH  28  29
ENDBRANCH  26  28
ENDBRANCH  25  26
ENDBRANCH  24  25
ENDBRANCH  23  24
ENDBRANCH  22  23
ENDBRANCH  19  22
ENDBRANCH  17  20
ENDBRANCH   1  17
TORSDOF 15
ENDMDL
MODEL 4
REMARK VINA RESULT:      -9.1      1.159      1.880
REMARK  Name = 449245
REMARK  15 active torsions:
REMARK  status: ('A' for Active; 'I' for Inactive)
REMARK    1  A    between atoms: C_1  and  C_2
REMARK    2  A    between atoms: C_1  and  C_17
REMARK    3  A    between atoms: C_2  and  P_3
REMARK    4  A    between atoms: P_3  and  O_5
REMARK    5  A    between atoms: P_3  and  O_7
REMARK    6  A    between atoms: O_7  and  C_8
REMARK    7  A    between atoms: C_13  and  N_16
REMARK    8  A    between atoms: C_17  and  C_20
REMARK    9  A    between atoms: N_19  and  C_22
REMARK   10  A    between atoms: C_22  and  C_23
REMARK   11  A    between atoms: C_23  and  C_24
REMARK   12  A    between atoms: C_24  and  C_25
REMARK   13  A    between atoms: C_25  and  C_26
REMARK   14  A    between atoms: C_26  and  C_28
REMARK   15  A    between atoms: C_28  and  O_29
REMARK                            x       y       z     vdW  Elec       q    Type
REMARK                         _______ _______ _______ _____ _____    ______ ____
ROOT
ATOM      1  C   UNL     1      33.890 -15.599 -22.765  0.00  0.00    +0.023 C 
ENDROOT
BRANCH   1   2
ATOM      2  C   UNL     1      34.740 -16.347 -23.781  0.00  0.00    +0.129 C 
BRANCH   2   3
ATOM      3  P   UNL     1      35.053 -18.070 -23.336  0.00  0.00    +0.388 P 
ATOM      4  O   UNL     1      34.596 -19.028 -24.384  0.00  0.00    -0.244 OA
BRANCH   3   5
ATOM      5  O   UNL     1      36.635 -18.053 -23.027  0.00  0.00    -0.315 OA
ATOM      6  H   UNL     1      36.866 -18.823 -22.483  0.00  0.00    +0.221 HD
ENDBRANCH   3   5
BRANCH   3   7
ATOM      7  O   UNL     1      34.349 -18.174 -21.894  0.00  0.00    -0.422 OA
BRANCH   7   8
ATOM      8  C   UNL     1      34.372 -19.288 -21.101  0.00  0.00    +0.147 C 
ATOM      9  C   UNL     1      35.589 -19.866 -20.743  0.00  0.00    +0.039 C 
ATOM     10  C   UNL     1      33.175 -19.848 -20.651  0.00  0.00    +0.039 C 
ATOM     11  C   UNL     1      35.612 -21.003 -19.935  0.00  0.00    +0.027 C 
ATOM     12  C   UNL     1      33.198 -20.985 -19.843  0.00  0.00    +0.027 C 
ATOM     13  C   UNL     1      34.416 -21.563 -19.485  0.00  0.00    +0.143 C 
BRANCH  13  16
ATOM     14  O   UNL     1      33.767 -23.723 -19.005  0.00  0.00    -0.126 OA
ATOM     15  O   UNL     1      35.132 -22.709 -17.618  0.00  0.00    -0.126 OA
ATOM     16  N   UNL     1      34.439 -22.721 -18.663  0.00  0.00    +0.058 N 
ENDBRANCH  13  16
ENDBRANCH   7   8
ENDBRANCH   3   7
ENDBRANCH   2   3
ENDBRANCH   1   2
BRANCH   1  17
ATOM     17  C   UNL     1      34.363 -14.161 -22.563  0.00  0.00    +0.086 C 
BRANCH  17  20
ATOM     18  O   UNL     1      32.262 -13.280 -23.380  0.00  0.00    -0.275 OA
ATOM     19  N   UNL     1      34.219 -12.098 -23.801  0.00  0.00    -0.304 N 
ATOM     20  C   UNL     1      33.479 -13.155 -23.280  0.00  0.00    +0.222 C 
ATOM     21  H   UNL     1      35.193 -12.096 -23.664  0.00  0.00    +0.149 HD
BRANCH  19  22
ATOM     22  C   UNL     1      33.629 -11.010 -24.533  0.00  0.00    +0.089 C 
BRANCH  22  23
ATOM     23  C   UNL     1      33.077  -9.941 -23.596  0.00  0.00    +0.021 C 
BRANCH  23  24
ATOM     24  C   UNL     1      33.919  -8.663 -23.568  0.00  0.00    +0.002 C 
BRANCH  24  25
ATOM     25  C   UNL     1      33.588  -7.742 -22.392  0.00  0.00    +0.012 C 
BRANCH  25  26
ATOM     26  C   UNL     1      32.333  -8.213 -21.656  0.00  0.00    +0.109 C 
BRANCH  26  28
ATOM     27  O   UNL     1      32.170  -9.237 -19.453  0.00  0.00    -0.250 OA
ATOM     28  C   UNL     1      32.561  -8.322 -20.166  0.00  0.00    +0.314 C 
BRANCH  28  29
ATOM     29  O   UNL     1      33.264  -7.261 -19.693  0.00  0.00    -0.480 OA
ATOM     30  H   UNL     1      33.040  -6.392 -19.964  0.00  0.00    +0.295 HD
ENDBRANCH  28  29
ENDBRANCH  26  28
ENDBRANCH  25  26
ENDBRANCH  24  25
ENDBRANCH  23  24
ENDBRANCH  22  23
ENDBRANCH  19  22
ENDBRANCH  17  20
ENDBRANCH   1  17
TORSDOF 15
ENDMDL
MODEL 5
REMARK VINA RESULT:      -8.9      6.285      9.901
REMARK  Name = 449245
REMARK  15 active torsions:
REMARK  status: ('A' for Active; 'I' for Inactive)
REMARK    1  A    between atoms: C_1  and  C_2
REMARK    2  A    between atoms: C_1  and  C_17
REMARK    3  A    between atoms: C_2  and  P_3
REMARK    4  A    between atoms: P_3  and  O_5
REMARK    5  A    between atoms: P_3  and  O_7
REMARK    6  A    between atoms: O_7  and  C_8
REMARK    7  A    between atoms: C_13  and  N_16
REMARK    8  A    between atoms: C_17  and  C_20
REMARK    9  A    between atoms: N_19  and  C_22
REMARK   10  A    between atoms: C_22  and  C_23
REMARK   11  A    between atoms: C_23  and  C_24
REMARK   12  A    between atoms: C_24  and  C_25
REMARK   13  A    between atoms: C_25  and  C_26
REMARK   14  A    between atoms: C_26  and  C_28
REMARK   15  A    between atoms: C_28  and  O_29
REMARK                            x       y       z     vdW  Elec       q    Type
REMARK                         _______ _______ _______ _____ _____    ______ ____
ROOT
ATOM      1  C   UNL     1      34.510 -23.173 -16.539  0.00  0.00    +0.023 C 
ENDROOT
BRANCH   1   2
ATOM      2  C   UNL     1      34.233 -22.749 -15.104  0.00  0.00    +0.129 C 
BRANCH   2   3
ATOM      3  P   UNL     1      34.254 -24.119 -13.926  0.00  0.00    +0.388 P 
ATOM      4  O   UNL     1      34.827 -25.369 -14.505  0.00  0.00    -0.244 OA
BRANCH   3   5
ATOM      5  O   UNL     1      35.054 -23.478 -12.683  0.00  0.00    -0.315 OA
ATOM      6  H   UNL     1      35.927 -23.897 -12.609  0.00  0.00    +0.221 HD
ENDBRANCH   3   5
BRANCH   3   7
ATOM      7  O   UNL     1      32.719 -24.171 -13.450  0.00  0.00    -0.422 OA
BRANCH   7   8
ATOM      8  C   UNL     1      31.648 -23.933 -14.266  0.00  0.00    +0.147 C 
ATOM      9  C   UNL     1      31.147 -22.638 -14.402  0.00  0.00    +0.039 C 
ATOM     10  C   UNL     1      31.054 -24.987 -14.961  0.00  0.00    +0.039 C 
ATOM     11  C   UNL     1      30.054 -22.396 -15.233  0.00  0.00    +0.027 C 
ATOM     12  C   UNL     1      29.960 -24.745 -15.793  0.00  0.00    +0.027 C 
ATOM     13  C   UNL     1      29.460 -23.450 -15.929  0.00  0.00    +0.143 C 
BRANCH  13  16
ATOM     14  O   UNL     1      27.946 -22.023 -16.925  0.00  0.00    -0.126 OA
ATOM     15  O   UNL     1      27.794 -24.171 -17.350  0.00  0.00    -0.126 OA
ATOM     16  N   UNL     1      28.346 -23.203 -16.775  0.00  0.00    +0.058 N 
ENDBRANCH  13  16
ENDBRANCH   7   8
ENDBRANCH   3   7
ENDBRANCH   2   3
ENDBRANCH   1   2
BRANCH   1  17
ATOM     17  C   UNL     1      33.254 -23.132 -17.406  0.00  0.00    +0.086 C 
BRANCH  17  20
ATOM     18  O   UNL     1      34.166 -23.401 -19.632  0.00  0.00    -0.275 OA
ATOM     19  N   UNL     1      33.039 -21.437 -19.106  0.00  0.00    -0.304 N 
ATOM     20  C   UNL     1      33.549 -22.702 -18.833  0.00  0.00    +0.222 C 
ATOM     21  H   UNL     1      32.558 -20.961 -18.391  0.00  0.00    +0.149 HD
BRANCH  19  22
ATOM     22  C   UNL     1      33.183 -20.789 -20.382  0.00  0.00    +0.089 C 
BRANCH  22  23
ATOM     23  C   UNL     1      34.562 -20.156 -20.533  0.00  0.00    +0.021 C 
BRANCH  23  24
ATOM     24  C   UNL     1      34.527 -18.769 -21.179  0.00  0.00    +0.002 C 
BRANCH  24  25
ATOM     25  C   UNL     1      35.471 -18.630 -22.375  0.00  0.00    +0.012 C 
BRANCH  25  26
ATOM     26  C   UNL     1      34.694 -18.570 -23.690  0.00  0.00    +0.109 C 
BRANCH  26  28
ATOM     27  O   UNL     1      34.785 -17.161 -25.673  0.00  0.00    -0.250 OA
ATOM     28  C   UNL     1      35.028 -17.330 -24.486  0.00  0.00    +0.314 C 
BRANCH  28  29
ATOM     29  O   UNL     1      35.646 -16.398 -23.716  0.00  0.00    -0.480 OA
ATOM     30  H   UNL     1      36.163 -15.727 -24.117  0.00  0.00    +0.295 HD
ENDBRANCH  28  29
ENDBRANCH  26  28
ENDBRANCH  25  26
ENDBRANCH  24  25
ENDBRANCH  23  24
ENDBRANCH  22  23
ENDBRANCH  19  22
ENDBRANCH  17  20
ENDBRANCH   1  17
TORSDOF 15
ENDMDL
MODEL 6
REMARK VINA RESULT:      -8.8      2.059      2.675
REMARK  Name = 449245
REMARK  15 active torsions:
REMARK  status: ('A' for Active; 'I' for Inactive)
REMARK    1  A    between atoms: C_1  and  C_2
REMARK    2  A    between atoms: C_1  and  C_17
REMARK    3  A    between atoms: C_2  and  P_3
REMARK    4  A    between atoms: P_3  and  O_5
REMARK    5  A    between atoms: P_3  and  O_7
REMARK    6  A    between atoms: O_7  and  C_8
REMARK    7  A    between atoms: C_13  and  N_16
REMARK    8  A    between atoms: C_17  and  C_20
REMARK    9  A    between atoms: N_19  and  C_22
REMARK   10  A    between atoms: C_22  and  C_23
REMARK   11  A    between atoms: C_23  and  C_24
REMARK   12  A    between atoms: C_24  and  C_25
REMARK   13  A    between atoms: C_25  and  C_26
REMARK   14  A    between atoms: C_26  and  C_28
REMARK   15  A    between atoms: C_28  and  O_29
REMARK                            x       y       z     vdW  Elec       q    Type
REMARK                         _______ _______ _______ _____ _____    ______ ____
ROOT
ATOM      1  C   UNL     1      34.585 -15.396 -22.621  0.00  0.00    +0.023 C 
ENDROOT
BRANCH   1   2
ATOM      2  C   UNL     1      34.485 -16.426 -23.737  0.00  0.00    +0.129 C 
BRANCH   2   3
ATOM      3  P   UNL     1      34.972 -18.091 -23.232  0.00  0.00    +0.388 P 
ATOM      4  O   UNL     1      34.611 -19.128 -24.241  0.00  0.00    -0.244 OA
BRANCH   3   5
ATOM      5  O   UNL     1      36.545 -17.903 -22.934  0.00  0.00    -0.315 OA
ATOM      6  H   UNL     1      36.964 -17.450 -23.683  0.00  0.00    +0.221 HD
ENDBRANCH   3   5
BRANCH   3   7
ATOM      7  O   UNL     1      34.287 -18.212 -21.782  0.00  0.00    -0.422 OA
BRANCH   7   8
ATOM      8  C   UNL     1      34.303 -19.342 -21.011  0.00  0.00    +0.147 C 
ATOM      9  C   UNL     1      33.105 -19.899 -20.564  0.00  0.00    +0.039 C 
ATOM     10  C   UNL     1      35.518 -19.937 -20.671  0.00  0.00    +0.039 C 
ATOM     11  C   UNL     1      33.121 -21.051 -19.777  0.00  0.00    +0.027 C 
ATOM     12  C   UNL     1      35.535 -21.089 -19.884  0.00  0.00    +0.027 C 
ATOM     13  C   UNL     1      34.337 -21.646 -19.437  0.00  0.00    +0.143 C 
BRANCH  13  16
ATOM     14  O   UNL     1      34.930 -22.785 -17.522  0.00  0.00    -0.126 OA
ATOM     15  O   UNL     1      33.790 -23.854 -19.063  0.00  0.00    -0.126 OA
ATOM     16  N   UNL     1      34.353 -22.819 -18.636  0.00  0.00    +0.058 N 
ENDBRANCH  13  16
ENDBRANCH   7   8
ENDBRANCH   3   7
ENDBRANCH   2   3
ENDBRANCH   1   2
BRANCH   1  17
ATOM     17  C   UNL     1      33.245 -15.163 -21.927  0.00  0.00    +0.086 C 
BRANCH  17  20
ATOM     18  O   UNL     1      32.602 -13.358 -23.406  0.00  0.00    -0.275 OA
ATOM     19  N   UNL     1      32.171 -13.158 -21.131  0.00  0.00    -0.304 N 
ATOM     20  C   UNL     1      32.647 -13.808 -22.265  0.00  0.00    +0.222 C 
ATOM     21  H   UNL     1      32.257 -13.609 -20.261  0.00  0.00    +0.149 HD
BRANCH  19  22
ATOM     22  C   UNL     1      31.561 -11.856 -21.167  0.00  0.00    +0.089 C 
BRANCH  22  23
ATOM     23  C   UNL     1      31.363 -11.293 -19.764  0.00  0.00    +0.021 C 
BRANCH  23  24
ATOM     24  C   UNL     1      31.737  -9.813 -19.645  0.00  0.00    +0.002 C 
BRANCH  24  25
ATOM     25  C   UNL     1      31.957  -9.131 -20.996  0.00  0.00    +0.012 C 
BRANCH  25  26
ATOM     26  C   UNL     1      32.616  -7.762 -20.825  0.00  0.00    +0.109 C 
BRANCH  26  28
ATOM     27  O   UNL     1      31.052  -6.840 -22.447  0.00  0.00    -0.250 OA
ATOM     28  C   UNL     1      31.843  -6.671 -21.529  0.00  0.00    +0.314 C 
BRANCH  28  29
ATOM     29  O   UNL     1      32.133  -5.448 -21.016  0.00  0.00    -0.480 OA
ATOM     30  H   UNL     1      31.668  -4.691 -21.316  0.00  0.00    +0.295 HD
ENDBRANCH  28  29
ENDBRANCH  26  28
ENDBRANCH  25  26
ENDBRANCH  24  25
ENDBRANCH  23  24
ENDBRANCH  22  23
ENDBRANCH  19  22
ENDBRANCH  17  20
ENDBRANCH   1  17
TORSDOF 15
ENDMDL
MODEL 7
REMARK VINA RESULT:      -8.8      3.515     11.234
REMARK  Name = 449245
REMARK  15 active torsions:
REMARK  status: ('A' for Active; 'I' for Inactive)
REMARK    1  A    between atoms: C_1  and  C_2
REMARK    2  A    between atoms: C_1  and  C_17
REMARK    3  A    between atoms: C_2  and  P_3
REMARK    4  A    between atoms: P_3  and  O_5
REMARK    5  A    between atoms: P_3  and  O_7
REMARK    6  A    between atoms: O_7  and  C_8
REMARK    7  A    between atoms: C_13  and  N_16
REMARK    8  A    between atoms: C_17  and  C_20
REMARK    9  A    between atoms: N_19  and  C_22
REMARK   10  A    between atoms: C_22  and  C_23
REMARK   11  A    between atoms: C_23  and  C_24
REMARK   12  A    between atoms: C_24  and  C_25
REMARK   13  A    between atoms: C_25  and  C_26
REMARK   14  A    between atoms: C_26  and  C_28
REMARK   15  A    between atoms: C_28  and  O_29
REMARK                            x       y       z     vdW  Elec       q    Type
REMARK                         _______ _______ _______ _____ _____    ______ ____
ROOT
ATOM      1  C   UNL     1      34.578 -19.981 -20.525  0.00  0.00    +0.023 C 
ENDROOT
BRANCH   1   2
ATOM      2  C   UNL     1      34.260 -19.154 -21.762  0.00  0.00    +0.129 C 
BRANCH   2   3
ATOM      3  P   UNL     1      35.182 -17.603 -21.854  0.00  0.00    +0.388 P 
ATOM      4  O   UNL     1      35.321 -16.934 -20.528  0.00  0.00    -0.244 OA
BRANCH   3   5
ATOM      5  O   UNL     1      36.551 -18.070 -22.564  0.00  0.00    -0.315 OA
ATOM      6  H   UNL     1      36.486 -19.007 -22.808  0.00  0.00    +0.221 HD
ENDBRANCH   3   5
BRANCH   3   7
ATOM      7  O   UNL     1      34.376 -16.804 -22.994  0.00  0.00    -0.422 OA
BRANCH   7   8
ATOM      8  C   UNL     1      33.825 -15.564 -22.827  0.00  0.00    +0.147 C 
ATOM      9  C   UNL     1      32.880 -15.349 -21.824  0.00  0.00    +0.039 C 
ATOM     10  C   UNL     1      34.207 -14.513 -23.661  0.00  0.00    +0.039 C 
ATOM     11  C   UNL     1      32.317 -14.084 -21.654  0.00  0.00    +0.027 C 
ATOM     12  C   UNL     1      33.644 -13.248 -23.492  0.00  0.00    +0.027 C 
ATOM     13  C   UNL     1      32.699 -13.033 -22.488  0.00  0.00    +0.143 C 
BRANCH  13  16
ATOM     14  O   UNL     1      31.175 -11.607 -21.508  0.00  0.00    -0.126 OA
ATOM     15  O   UNL     1      32.586 -10.782 -22.974  0.00  0.00    -0.126 OA
ATOM     16  N   UNL     1      32.125 -11.745 -22.315  0.00  0.00    +0.058 N 
ENDBRANCH  13  16
ENDBRANCH   7   8
ENDBRANCH   3   7
ENDBRANCH   2   3
ENDBRANCH   1   2
BRANCH   1  17
ATOM     17  C   UNL     1      33.431 -20.913 -20.142  0.00  0.00    +0.086 C 
BRANCH  17  20
ATOM     18  O   UNL     1      34.989 -22.386 -19.017  0.00  0.00    -0.275 OA
ATOM     19  N   UNL     1      32.778 -22.323 -18.299  0.00  0.00    -0.304 N 
ATOM     20  C   UNL     1      33.846 -21.947 -19.108  0.00  0.00    +0.222 C 
ATOM     21  H   UNL     1      31.901 -21.908 -18.458  0.00  0.00    +0.149 HD
BRANCH  19  22
ATOM     22  C   UNL     1      32.895 -23.292 -17.242  0.00  0.00    +0.089 C 
BRANCH  22  23
ATOM     23  C   UNL     1      31.541 -23.594 -16.610  0.00  0.00    +0.021 C 
BRANCH  23  24
ATOM     24  C   UNL     1      31.268 -22.783 -15.341  0.00  0.00    +0.002 C 
BRANCH  24  25
ATOM     25  C   UNL     1      29.800 -22.804 -14.910  0.00  0.00    +0.012 C 
BRANCH  25  26
ATOM     26  C   UNL     1      28.983 -23.766 -15.772  0.00  0.00    +0.109 C 
BRANCH  26  28
ATOM     27  O   UNL     1      27.739 -23.325 -17.817  0.00  0.00    -0.250 OA
ATOM     28  C   UNL     1      28.001 -23.036 -16.658  0.00  0.00    +0.314 C 
BRANCH  28  29
ATOM     29  O   UNL     1      27.426 -21.993 -16.005  0.00  0.00    -0.480 OA
ATOM     30  H   UNL     1      27.948 -21.261 -15.741  0.00  0.00    +0.295 HD
ENDBRANCH  28  29
ENDBRANCH  26  28
ENDBRANCH  25  26
ENDBRANCH  24  25
ENDBRANCH  23  24
ENDBRANCH  22  23
ENDBRANCH  19  22
ENDBRANCH  17  20
ENDBRANCH   1  17
TORSDOF 15
ENDMDL
MODEL 8
REMARK VINA RESULT:      -8.8      6.415      9.993
REMARK  Name = 449245
REMARK  15 active torsions:
REMARK  status: ('A' for Active; 'I' for Inactive)
REMARK    1  A    between atoms: C_1  and  C_2
REMARK    2  A    between atoms: C_1  and  C_17
REMARK    3  A    between atoms: C_2  and  P_3
REMARK    4  A    between atoms: P_3  and  O_5
REMARK    5  A    between atoms: P_3  and  O_7
REMARK    6  A    between atoms: O_7  and  C_8
REMARK    7  A    between atoms: C_13  and  N_16
REMARK    8  A    between atoms: C_17  and  C_20
REMARK    9  A    between atoms: N_19  and  C_22
REMARK   10  A    between atoms: C_22  and  C_23
REMARK   11  A    between atoms: C_23  and  C_24
REMARK   12  A    between atoms: C_24  and  C_25
REMARK   13  A    between atoms: C_25  and  C_26
REMARK   14  A    between atoms: C_26  and  C_28
REMARK   15  A    between atoms: C_28  and  O_29
REMARK                            x       y       z     vdW  Elec       q    Type
REMARK                         _______ _______ _______ _____ _____    ______ ____
ROOT
ATOM      1  C   UNL     1      36.154 -22.511 -15.760  0.00  0.00    +0.023 C 
ENDROOT
BRANCH   1   2
ATOM      2  C   UNL     1      36.764 -23.606 -14.897  0.00  0.00    +0.129 C 
BRANCH   2   3
ATOM      3  P   UNL     1      35.662 -25.012 -14.624  0.00  0.00    +0.388 P 
ATOM      4  O   UNL     1      35.407 -25.796 -15.867  0.00  0.00    -0.244 OA
BRANCH   3   5
ATOM      5  O   UNL     1      36.408 -25.794 -13.428  0.00  0.00    -0.315 OA
ATOM      6  H   UNL     1      37.069 -25.210 -13.022  0.00  0.00    +0.221 HD
ENDBRANCH   3   5
BRANCH   3   7
ATOM      7  O   UNL     1      34.393 -24.309 -13.930  0.00  0.00    -0.422 OA
BRANCH   7   8
ATOM      8  C   UNL     1      33.182 -24.125 -14.539  0.00  0.00    +0.147 C 
ATOM      9  C   UNL     1      32.031 -24.693 -13.992  0.00  0.00    +0.039 C 
ATOM     10  C   UNL     1      33.098 -23.370 -15.709  0.00  0.00    +0.039 C 
ATOM     11  C   UNL     1      30.797 -24.506 -14.614  0.00  0.00    +0.027 C 
ATOM     12  C   UNL     1      31.864 -23.182 -16.332  0.00  0.00    +0.027 C 
ATOM     13  C   UNL     1      30.713 -23.750 -15.784  0.00  0.00    +0.143 C 
BRANCH  13  16
ATOM     14  O   UNL     1      28.587 -24.460 -16.326  0.00  0.00    -0.126 OA
ATOM     15  O   UNL     1      29.250 -22.497 -17.050  0.00  0.00    -0.126 OA
ATOM     16  N   UNL     1      29.456 -23.560 -16.418  0.00  0.00    +0.058 N 
ENDBRANCH  13  16
ENDBRANCH   7   8
ENDBRANCH   3   7
ENDBRANCH   2   3
ENDBRANCH   1   2
BRANCH   1  17
ATOM     17  C   UNL     1      37.148 -21.960 -16.780  0.00  0.00    +0.086 C 
BRANCH  17  20
ATOM     18  O   UNL     1      36.864 -20.656 -18.800  0.00  0.00    -0.275 OA
ATOM     19  N   UNL     1      35.396 -22.407 -18.374  0.00  0.00    -0.304 N 
ATOM     20  C   UNL     1      36.480 -21.582 -18.092  0.00  0.00    +0.222 C 
ATOM     21  H   UNL     1      35.172 -23.123 -17.736  0.00  0.00    +0.149 HD
BRANCH  19  22
ATOM     22  C   UNL     1      34.583 -22.264 -19.552  0.00  0.00    +0.089 C 
BRANCH  22  23
ATOM     23  C   UNL     1      33.386 -21.354 -19.297  0.00  0.00    +0.021 C 
BRANCH  23  24
ATOM     24  C   UNL     1      33.207 -20.272 -20.365  0.00  0.00    +0.002 C 
BRANCH  24  25
ATOM     25  C   UNL     1      34.521 -19.840 -21.019  0.00  0.00    +0.012 C 
BRANCH  25  26
ATOM     26  C   UNL     1      34.302 -18.677 -21.987  0.00  0.00    +0.109 C 
BRANCH  26  28
ATOM     27  O   UNL     1      35.347 -17.005 -20.559  0.00  0.00    -0.250 OA
ATOM     28  C   UNL     1      35.194 -17.500 -21.668  0.00  0.00    +0.314 C 
BRANCH  28  29
ATOM     29  O   UNL     1      35.822 -17.038 -22.779  0.00  0.00    -0.480 OA
ATOM     30  H   UNL     1      35.585 -16.206 -23.141  0.00  0.00    +0.295 HD
ENDBRANCH  28  29
ENDBRANCH  26  28
ENDBRANCH  25  26
ENDBRANCH  24  25
ENDBRANCH  23  24
ENDBRANCH  22  23
ENDBRANCH  19  22
ENDBRANCH  17  20
ENDBRANCH   1  17
TORSDOF 15
ENDMDL
MODEL 9
REMARK VINA RESULT:      -8.8      1.737      2.408
REMARK  Name = 449245
REMARK  15 active torsions:
REMARK  status: ('A' for Active; 'I' for Inactive)
REMARK    1  A    between atoms: C_1  and  C_2
REMARK    2  A    between atoms: C_1  and  C_17
REMARK    3  A    between atoms: C_2  and  P_3
REMARK    4  A    between atoms: P_3  and  O_5
REMARK    5  A    between atoms: P_3  and  O_7
REMARK    6  A    between atoms: O_7  and  C_8
REMARK    7  A    between atoms: C_13  and  N_16
REMARK    8  A    between atoms: C_17  and  C_20
REMARK    9  A    between atoms: N_19  and  C_22
REMARK   10  A    between atoms: C_22  and  C_23
REMARK   11  A    between atoms: C_23  and  C_24
REMARK   12  A    between atoms: C_24  and  C_25
REMARK   13  A    between atoms: C_25  and  C_26
REMARK   14  A    between atoms: C_26  and  C_28
REMARK   15  A    between atoms: C_28  and  O_29
REMARK                            x       y       z     vdW  Elec       q    Type
REMARK                         _______ _______ _______ _____ _____    ______ ____
ROOT
ATOM      1  C   UNL     1      33.171 -14.221 -23.407  0.00  0.00    +0.023 C 
ENDROOT
BRANCH   1   2
ATOM      2  C   UNL     1      34.423 -14.880 -22.846  0.00  0.00    +0.129 C 
BRANCH   2   3
ATOM      3  P   UNL     1      34.105 -15.946 -21.422  0.00  0.00    +0.388 P 
ATOM      4  O   UNL     1      34.985 -15.633 -20.259  0.00  0.00    -0.244 OA
BRANCH   3   5
ATOM      5  O   UNL     1      32.523 -15.738 -21.196  0.00  0.00    -0.315 OA
ATOM      6  H   UNL     1      32.348 -15.589 -20.254  0.00  0.00    +0.221 HD
ENDBRANCH   3   5
BRANCH   3   7
ATOM      7  O   UNL     1      34.243 -17.413 -22.068  0.00  0.00    -0.422 OA
BRANCH   7   8
ATOM      8  C   UNL     1      34.224 -18.578 -21.352  0.00  0.00    +0.147 C 
ATOM      9  C   UNL     1      35.418 -19.233 -21.053  0.00  0.00    +0.039 C 
ATOM     10  C   UNL     1      33.009 -19.113 -20.922  0.00  0.00    +0.039 C 
ATOM     11  C   UNL     1      35.399 -20.421 -20.323  0.00  0.00    +0.027 C 
ATOM     12  C   UNL     1      32.989 -20.302 -20.193  0.00  0.00    +0.027 C 
ATOM     13  C   UNL     1      34.184 -20.956 -19.893  0.00  0.00    +0.143 C 
BRANCH  13  16
ATOM     14  O   UNL     1      33.092 -22.813 -19.070  0.00  0.00    -0.126 OA
ATOM     15  O   UNL     1      35.220 -22.557 -18.597  0.00  0.00    -0.126 OA
ATOM     16  N   UNL     1      34.165 -22.167 -19.151  0.00  0.00    +0.058 N 
ENDBRANCH  13  16
ENDBRANCH   7   8
ENDBRANCH   3   7
ENDBRANCH   2   3
ENDBRANCH   1   2
BRANCH   1  17
ATOM     17  C   UNL     1      33.458 -12.840 -23.991  0.00  0.00    +0.086 C 
BRANCH  17  20
ATOM     18  O   UNL     1      33.019 -10.541 -23.373  0.00  0.00    -0.275 OA
ATOM     19  N   UNL     1      31.790 -12.234 -22.361  0.00  0.00    -0.304 N 
ATOM     20  C   UNL     1      32.753 -11.731 -23.229  0.00  0.00    +0.222 C 
ATOM     21  H   UNL     1      31.656 -13.208 -22.322  0.00  0.00    +0.149 HD
BRANCH  19  22
ATOM     22  C   UNL     1      30.979 -11.399 -21.514  0.00  0.00    +0.089 C 
BRANCH  22  23
ATOM     23  C   UNL     1      31.486 -11.405 -20.076  0.00  0.00    +0.021 C 
BRANCH  23  24
ATOM     24  C   UNL     1      31.640 -10.003 -19.481  0.00  0.00    +0.002 C 
BRANCH  24  25
ATOM     25  C   UNL     1      32.379  -9.029 -20.402  0.00  0.00    +0.012 C 
BRANCH  25  26
ATOM     26  C   UNL     1      32.049  -7.578 -20.053  0.00  0.00    +0.109 C 
BRANCH  26  28
ATOM     27  O   UNL     1      32.777  -6.926 -22.282  0.00  0.00    -0.250 OA
ATOM     28  C   UNL     1      32.169  -6.667 -21.252  0.00  0.00    +0.314 C 
BRANCH  28  29
ATOM     29  O   UNL     1      31.512  -5.496 -21.053  0.00  0.00    -0.480 OA
ATOM     30  H   UNL     1      31.906  -4.687 -21.313  0.00  0.00    +0.295 HD
ENDBRANCH  28  29
ENDBRANCH  26  28
ENDBRANCH  25  26
ENDBRANCH  24  25
ENDBRANCH  23  24
ENDBRANCH  22  23
ENDBRANCH  19  22
ENDBRANCH  17  20
ENDBRANCH   1  17
TORSDOF 15
ENDMDL
