MODEL 1
REMARK VINA RESULT:     -10.6      0.000      0.000
REMARK  Name = 4760
REMARK  1 active torsions:
REMARK  status: ('A' for Active; 'I' for Inactive)
REMARK    1  A    between atoms: C_3  and  C_12
REMARK                            x       y       z     vdW  Elec       q    Type
REMARK                         _______ _______ _______ _____ _____    ______ ____
ROOT
ATOM      1  O   UNL     1      35.565 -19.406 -24.063  0.00  0.00    -0.291 OA
ATOM      2  O   UNL     1      35.233 -16.420 -20.390  0.00  0.00    -0.291 OA
ATOM      3  C   UNL     1      35.597 -18.376 -21.834  0.00  0.00    +0.146 C 
ATOM      4  C   UNL     1      35.318 -18.471 -23.326  0.00  0.00    +0.184 C 
ATOM      5  C   UNL     1      35.151 -16.966 -21.474  0.00  0.00    +0.184 C 
ATOM      6  C   UNL     1      34.686 -17.220 -23.753  0.00  0.00    +0.038 C 
ATOM      7  C   UNL     1      34.588 -16.345 -22.676  0.00  0.00    +0.038 C 
ATOM      8  C   UNL     1      34.236 -16.875 -25.013  0.00  0.00    +0.003 C 
ATOM      9  C   UNL     1      34.037 -15.086 -22.811  0.00  0.00    +0.003 C 
ATOM     10  C   UNL     1      33.673 -15.605 -25.169  0.00  0.00    +0.000 C 
ATOM     11  C   UNL     1      33.575 -14.719 -24.077  0.00  0.00    +0.000 C 
ENDROOT
BRANCH   3  12
ATOM     12  C   UNL     1      34.856 -19.407 -21.061  0.00  0.00    -0.008 C 
ATOM     13  C   UNL     1      33.459 -19.382 -21.016  0.00  0.00    -0.003 C 
ATOM     14  C   UNL     1      35.552 -20.406 -20.375  0.00  0.00    -0.003 C 
ATOM     15  C   UNL     1      32.764 -20.350 -20.291  0.00  0.00    -0.000 C 
ATOM     16  C   UNL     1      34.857 -21.373 -19.650  0.00  0.00    -0.000 C 
ATOM     17  C   UNL     1      33.463 -21.345 -19.608  0.00  0.00    -0.000 C 
ENDBRANCH   3  12
TORSDOF 1
ENDMDL
MODEL 2
REMARK VINA RESULT:     -10.6      0.371      1.229
REMARK  Name = 4760
REMARK  1 active torsions:
REMARK  status: ('A' for Active; 'I' for Inactive)
REMARK    1  A    between atoms: C_3  and  C_12
REMARK                            x       y       z     vdW  Elec       q    Type
REMARK                         _______ _______ _______ _____ _____    ______ ____
ROOT
ATOM      1  O   UNL     1      35.629 -18.939 -24.010  0.00  0.00    -0.291 OA
ATOM      2  O   UNL     1      35.099 -16.233 -20.149  0.00  0.00    -0.291 OA
ATOM      3  C   UNL     1      35.579 -18.064 -21.716  0.00  0.00    +0.146 C 
ATOM      4  C   UNL     1      35.325 -18.070 -23.215  0.00  0.00    +0.184 C 
ATOM      5  C   UNL     1      35.058 -16.706 -21.268  0.00  0.00    +0.184 C 
ATOM      6  C   UNL     1      34.636 -16.826 -23.567  0.00  0.00    +0.038 C 
ATOM      7  C   UNL     1      34.480 -16.032 -22.434  0.00  0.00    +0.038 C 
ATOM      8  C   UNL     1      34.186 -16.417 -24.807  0.00  0.00    +0.003 C 
ATOM      9  C   UNL     1      33.868 -14.796 -22.493  0.00  0.00    +0.003 C 
ATOM     10  C   UNL     1      33.562 -15.169 -24.886  0.00  0.00    +0.000 C 
ATOM     11  C   UNL     1      33.404 -14.366 -23.739  0.00  0.00    +0.000 C 
ENDROOT
BRANCH   3  12
ATOM     12  C   UNL     1      34.882 -19.181 -21.027  0.00  0.00    -0.008 C 
ATOM     13  C   UNL     1      35.619 -20.194 -20.407  0.00  0.00    -0.003 C 
ATOM     14  C   UNL     1      33.485 -19.226 -20.998  0.00  0.00    -0.003 C 
ATOM     15  C   UNL     1      34.964 -21.243 -19.762  0.00  0.00    -0.000 C 
ATOM     16  C   UNL     1      32.831 -20.275 -20.353  0.00  0.00    -0.000 C 
ATOM     17  C   UNL     1      33.570 -21.283 -19.735  0.00  0.00    -0.000 C 
ENDBRANCH   3  12
TORSDOF 1
ENDMDL
MODEL 3
REMARK VINA RESULT:      -9.4      1.542      5.512
REMARK  Name = 4760
REMARK  1 active torsions:
REMARK  status: ('A' for Active; 'I' for Inactive)
REMARK    1  A    between atoms: C_3  and  C_12
REMARK                            x       y       z     vdW  Elec       q    Type
REMARK                         _______ _______ _______ _____ _____    ______ ____
ROOT
ATOM      1  O   UNL     1      32.424 -18.397 -20.804  0.00  0.00    -0.291 OA
ATOM      2  O   UNL     1      37.119 -18.985 -21.156  0.00  0.00    -0.291 OA
ATOM      3  C   UNL     1      34.813 -18.154 -21.322  0.00  0.00    +0.146 C 
ATOM      4  C   UNL     1      33.559 -18.836 -20.796  0.00  0.00    +0.184 C 
ATOM      5  C   UNL     1      35.926 -19.131 -20.974  0.00  0.00    +0.184 C 
ATOM      6  C   UNL     1      33.941 -20.143 -20.257  0.00  0.00    +0.038 C 
ATOM      7  C   UNL     1      35.318 -20.315 -20.361  0.00  0.00    +0.038 C 
ATOM      8  C   UNL     1      33.127 -21.112 -19.704  0.00  0.00    +0.003 C 
ATOM      9  C   UNL     1      35.941 -21.464 -19.915  0.00  0.00    +0.003 C 
ATOM     10  C   UNL     1      33.740 -22.283 -19.248  0.00  0.00    +0.000 C 
ATOM     11  C   UNL     1      35.135 -22.457 -19.353  0.00  0.00    +0.000 C 
ENDROOT
BRANCH   3  12
ATOM     12  C   UNL     1      34.736 -17.897 -22.784  0.00  0.00    -0.008 C 
ATOM     13  C   UNL     1      34.808 -16.590 -23.272  0.00  0.00    -0.003 C 
ATOM     14  C   UNL     1      34.589 -18.962 -23.677  0.00  0.00    -0.003 C 
ATOM     15  C   UNL     1      34.736 -16.349 -24.644  0.00  0.00    -0.000 C 
ATOM     16  C   UNL     1      34.517 -18.721 -25.049  0.00  0.00    -0.000 C 
ATOM     17  C   UNL     1      34.590 -17.415 -25.532  0.00  0.00    -0.000 C 
ENDBRANCH   3  12
TORSDOF 1
ENDMDL
MODEL 4
REMARK VINA RESULT:      -9.1      1.644      5.573
REMARK  Name = 4760
REMARK  1 active torsions:
REMARK  status: ('A' for Active; 'I' for Inactive)
REMARK    1  A    between atoms: C_3  and  C_12
REMARK                            x       y       z     vdW  Elec       q    Type
REMARK                         _______ _______ _______ _____ _____    ______ ____
ROOT
ATOM      1  O   UNL     1      37.530 -18.924 -21.488  0.00  0.00    -0.291 OA
ATOM      2  O   UNL     1      32.861 -19.684 -21.861  0.00  0.00    -0.291 OA
ATOM      3  C   UNL     1      35.153 -18.832 -22.102  0.00  0.00    +0.146 C 
ATOM      4  C   UNL     1      36.380 -19.284 -21.323  0.00  0.00    +0.184 C 
ATOM      5  C   UNL     1      34.026 -19.666 -21.512  0.00  0.00    +0.184 C 
ATOM      6  C   UNL     1      35.948 -20.253 -20.313  0.00  0.00    +0.038 C 
ATOM      7  C   UNL     1      34.579 -20.475 -20.422  0.00  0.00    +0.038 C 
ATOM      8  C   UNL     1      36.716 -20.902 -19.367  0.00  0.00    +0.003 C 
ATOM      9  C   UNL     1      33.918 -21.357 -19.590  0.00  0.00    +0.003 C 
ATOM     10  C   UNL     1      36.065 -21.798 -18.514  0.00  0.00    +0.000 C 
ATOM     11  C   UNL     1      34.678 -22.023 -18.625  0.00  0.00    +0.000 C 
ENDROOT
BRANCH   3  12
ATOM     12  C   UNL     1      34.903 -17.374 -21.951  0.00  0.00    -0.008 C 
ATOM     13  C   UNL     1      34.757 -16.815 -20.678  0.00  0.00    -0.003 C 
ATOM     14  C   UNL     1      34.812 -16.556 -23.080  0.00  0.00    -0.003 C 
ATOM     15  C   UNL     1      34.522 -15.448 -20.537  0.00  0.00    -0.000 C 
ATOM     16  C   UNL     1      34.577 -15.189 -22.938  0.00  0.00    -0.000 C 
ATOM     17  C   UNL     1      34.432 -14.635 -21.667  0.00  0.00    -0.000 C 
ENDBRANCH   3  12
TORSDOF 1
ENDMDL
MODEL 5
REMARK VINA RESULT:      -9.0      8.541     10.862
REMARK  Name = 4760
REMARK  1 active torsions:
REMARK  status: ('A' for Active; 'I' for Inactive)
REMARK    1  A    between atoms: C_3  and  C_12
REMARK                            x       y       z     vdW  Elec       q    Type
REMARK                         _______ _______ _______ _____ _____    ______ ____
ROOT
ATOM      1  O   UNL     1      34.768  -8.169 -23.023  0.00  0.00    -0.291 OA
ATOM      2  O   UNL     1      31.022  -5.884 -21.218  0.00  0.00    -0.291 OA
ATOM      3  C   UNL     1      32.909  -7.408 -21.609  0.00  0.00    +0.146 C 
ATOM      4  C   UNL     1      33.786  -7.473 -22.851  0.00  0.00    +0.184 C 
ATOM      5  C   UNL     1      31.897  -6.322 -21.941  0.00  0.00    +0.184 C 
ATOM      6  C   UNL     1      33.248  -6.535 -23.839  0.00  0.00    +0.038 C 
ATOM      7  C   UNL     1      32.149  -5.865 -23.310  0.00  0.00    +0.038 C 
ATOM      8  C   UNL     1      33.706  -6.283 -25.118  0.00  0.00    +0.003 C 
ATOM      9  C   UNL     1      31.460  -4.914 -24.036  0.00  0.00    +0.003 C 
ATOM     10  C   UNL     1      33.020  -5.324 -25.869  0.00  0.00    +0.000 C 
ATOM     11  C   UNL     1      31.907  -4.646 -25.332  0.00  0.00    +0.000 C 
ENDROOT
BRANCH   3  12
ATOM     12  C   UNL     1      32.252  -8.710 -21.322  0.00  0.00    -0.008 C 
ATOM     13  C   UNL     1      31.748  -9.488 -22.368  0.00  0.00    -0.003 C 
ATOM     14  C   UNL     1      32.134  -9.163 -20.005  0.00  0.00    -0.003 C 
ATOM     15  C   UNL     1      31.132 -10.710 -22.099  0.00  0.00    -0.000 C 
ATOM     16  C   UNL     1      31.517 -10.384 -19.736  0.00  0.00    -0.000 C 
ATOM     17  C   UNL     1      31.016 -11.158 -20.783  0.00  0.00    -0.000 C 
ENDBRANCH   3  12
TORSDOF 1
ENDMDL
MODEL 6
REMARK VINA RESULT:      -8.7      8.106     11.756
REMARK  Name = 4760
REMARK  1 active torsions:
REMARK  status: ('A' for Active; 'I' for Inactive)
REMARK    1  A    between atoms: C_3  and  C_12
REMARK                            x       y       z     vdW  Elec       q    Type
REMARK                         _______ _______ _______ _____ _____    ______ ____
ROOT
ATOM      1  O   UNL     1      33.090  -7.045 -19.809  0.00  0.00    -0.291 OA
ATOM      2  O   UNL     1      32.847  -9.430 -23.904  0.00  0.00    -0.291 OA
ATOM      3  C   UNL     1      33.193  -7.727 -22.167  0.00  0.00    +0.146 C 
ATOM      4  C   UNL     1      32.852  -7.851 -20.689  0.00  0.00    +0.184 C 
ATOM      5  C   UNL     1      32.730  -9.052 -22.754  0.00  0.00    +0.184 C 
ATOM      6  C   UNL     1      32.174  -9.132 -20.483  0.00  0.00    +0.038 C 
ATOM      7  C   UNL     1      32.102  -9.832 -21.684  0.00  0.00    +0.038 C 
ATOM      8  C   UNL     1      31.662  -9.651 -19.309  0.00  0.00    +0.003 C 
ATOM      9  C   UNL     1      31.517 -11.080 -21.763  0.00  0.00    +0.003 C 
ATOM     10  C   UNL     1      31.064 -10.912 -19.370  0.00  0.00    +0.000 C 
ATOM     11  C   UNL     1      30.992 -11.620 -20.587  0.00  0.00    +0.000 C 
ENDROOT
BRANCH   3  12
ATOM     12  C   UNL     1      32.511  -6.570 -22.801  0.00  0.00    -0.008 C 
ATOM     13  C   UNL     1      32.806  -6.218 -24.122  0.00  0.00    -0.003 C 
ATOM     14  C   UNL     1      31.572  -5.826 -22.081  0.00  0.00    -0.003 C 
ATOM     15  C   UNL     1      32.165  -5.131 -24.717  0.00  0.00    -0.000 C 
ATOM     16  C   UNL     1      30.932  -4.739 -22.676  0.00  0.00    -0.000 C 
ATOM     17  C   UNL     1      31.229  -4.392 -23.994  0.00  0.00    -0.000 C 
ENDBRANCH   3  12
TORSDOF 1
ENDMDL
MODEL 7
REMARK VINA RESULT:      -8.6      8.091     11.685
REMARK  Name = 4760
REMARK  1 active torsions:
REMARK  status: ('A' for Active; 'I' for Inactive)
REMARK    1  A    between atoms: C_3  and  C_12
REMARK                            x       y       z     vdW  Elec       q    Type
REMARK                         _______ _______ _______ _____ _____    ______ ____
ROOT
ATOM      1  O   UNL     1      33.091  -7.012 -19.965  0.00  0.00    -0.291 OA
ATOM      2  O   UNL     1      32.903  -9.577 -23.953  0.00  0.00    -0.291 OA
ATOM      3  C   UNL     1      33.232  -7.800 -22.287  0.00  0.00    +0.146 C 
ATOM      4  C   UNL     1      32.862  -7.854 -20.813  0.00  0.00    +0.184 C 
ATOM      5  C   UNL     1      32.769  -9.147 -22.823  0.00  0.00    +0.184 C 
ATOM      6  C   UNL     1      32.169  -9.120 -20.562  0.00  0.00    +0.038 C 
ATOM      7  C   UNL     1      32.114  -9.872 -21.731  0.00  0.00    +0.038 C 
ATOM      8  C   UNL     1      31.631  -9.580 -19.376  0.00  0.00    +0.003 C 
ATOM      9  C   UNL     1      31.519 -11.117 -21.766  0.00  0.00    +0.003 C 
ATOM     10  C   UNL     1      31.022 -10.839 -19.392  0.00  0.00    +0.000 C 
ATOM     11  C   UNL     1      30.967 -11.600 -20.577  0.00  0.00    +0.000 C 
ENDROOT
BRANCH   3  12
ATOM     12  C   UNL     1      32.572  -6.667 -22.986  0.00  0.00    -0.008 C 
ATOM     13  C   UNL     1      31.526  -5.975 -22.370  0.00  0.00    -0.003 C 
ATOM     14  C   UNL     1      32.992  -6.289 -24.264  0.00  0.00    -0.003 C 
ATOM     15  C   UNL     1      30.906  -4.911 -23.025  0.00  0.00    -0.000 C 
ATOM     16  C   UNL     1      32.373  -5.225 -24.920  0.00  0.00    -0.000 C 
ATOM     17  C   UNL     1      31.330  -4.537 -24.301  0.00  0.00    -0.000 C 
ENDBRANCH   3  12
TORSDOF 1
ENDMDL
MODEL 8
REMARK VINA RESULT:      -8.5      2.850      4.784
REMARK  Name = 4760
REMARK  1 active torsions:
REMARK  status: ('A' for Active; 'I' for Inactive)
REMARK    1  A    between atoms: C_3  and  C_12
REMARK                            x       y       z     vdW  Elec       q    Type
REMARK                         _______ _______ _______ _____ _____    ______ ____
ROOT
ATOM      1  O   UNL     1      32.677 -21.650 -19.671  0.00  0.00    -0.291 OA
ATOM      2  O   UNL     1      37.404 -21.497 -20.062  0.00  0.00    -0.291 OA
ATOM      3  C   UNL     1      35.086 -22.114 -19.529  0.00  0.00    +0.146 C 
ATOM      4  C   UNL     1      33.832 -21.318 -19.861  0.00  0.00    +0.184 C 
ATOM      5  C   UNL     1      36.215 -21.241 -20.057  0.00  0.00    +0.184 C 
ATOM      6  C   UNL     1      34.243 -20.049 -20.466  0.00  0.00    +0.038 C 
ATOM      7  C   UNL     1      35.629 -20.004 -20.581  0.00  0.00    +0.038 C 
ATOM      8  C   UNL     1      33.445 -19.008 -20.897  0.00  0.00    +0.003 C 
ATOM      9  C   UNL     1      36.277 -18.916 -21.131  0.00  0.00    +0.003 C 
ATOM     10  C   UNL     1      34.083 -17.897 -21.456  0.00  0.00    +0.000 C 
ATOM     11  C   UNL     1      35.487 -17.852 -21.571  0.00  0.00    +0.000 C 
ENDROOT
BRANCH   3  12
ATOM     12  C   UNL     1      35.215 -22.367 -18.070  0.00  0.00    -0.008 C 
ATOM     13  C   UNL     1      36.376 -21.985 -17.391  0.00  0.00    -0.003 C 
ATOM     14  C   UNL     1      34.178 -22.990 -17.370  0.00  0.00    -0.003 C 
ATOM     15  C   UNL     1      36.498 -22.223 -16.023  0.00  0.00    -0.000 C 
ATOM     16  C   UNL     1      34.300 -23.228 -16.002  0.00  0.00    -0.000 C 
ATOM     17  C   UNL     1      35.460 -22.845 -15.328  0.00  0.00    -0.000 C 
ENDBRANCH   3  12
TORSDOF 1
ENDMDL
MODEL 9
REMARK VINA RESULT:      -8.5      3.353      7.143
REMARK  Name = 4760
REMARK  1 active torsions:
REMARK  status: ('A' for Active; 'I' for Inactive)
REMARK    1  A    between atoms: C_3  and  C_12
REMARK                            x       y       z     vdW  Elec       q    Type
REMARK                         _______ _______ _______ _____ _____    ______ ____
ROOT
ATOM      1  O   UNL     1      32.960 -14.167 -25.231  0.00  0.00    -0.291 OA
ATOM      2  O   UNL     1      32.366 -13.254 -20.613  0.00  0.00    -0.291 OA
ATOM      3  C   UNL     1      32.356 -13.171 -23.069  0.00  0.00    +0.146 C 
ATOM      4  C   UNL     1      33.024 -14.156 -24.017  0.00  0.00    +0.184 C 
ATOM      5  C   UNL     1      32.724 -13.695 -21.689  0.00  0.00    +0.184 C 
ATOM      6  C   UNL     1      33.777 -15.123 -23.214  0.00  0.00    +0.038 C 
ATOM      7  C   UNL     1      33.603 -14.855 -21.860  0.00  0.00    +0.038 C 
ATOM      8  C   UNL     1      34.557 -16.176 -23.652  0.00  0.00    +0.003 C 
ATOM      9  C   UNL     1      34.200 -15.628 -20.884  0.00  0.00    +0.003 C 
ATOM     10  C   UNL     1      35.171 -16.969 -22.679  0.00  0.00    +0.000 C 
ATOM     11  C   UNL     1      34.994 -16.697 -21.307  0.00  0.00    +0.000 C 
ENDROOT
BRANCH   3  12
ATOM     12  C   UNL     1      32.837 -11.781 -23.281  0.00  0.00    -0.008 C 
ATOM     13  C   UNL     1      33.964 -11.540 -24.073  0.00  0.00    -0.003 C 
ATOM     14  C   UNL     1      32.168 -10.707 -22.688  0.00  0.00    -0.003 C 
ATOM     15  C   UNL     1      34.415 -10.236 -24.272  0.00  0.00    -0.000 C 
ATOM     16  C   UNL     1      32.619  -9.403 -22.887  0.00  0.00    -0.000 C 
ATOM     17  C   UNL     1      33.743  -9.167 -23.679  0.00  0.00    -0.000 C 
ENDBRANCH   3  12
TORSDOF 1
ENDMDL
