MODEL 1
REMARK VINA RESULT:      -8.7      0.000      0.000
REMARK  Name = 445008
REMARK  9 active torsions:
REMARK  status: ('A' for Active; 'I' for Inactive)
REMARK    1  A    between atoms: C_2  and  C_10
REMARK    2  A    between atoms: C_3  and  C_20
REMARK    3  A    between atoms: C_4  and  O_8
REMARK    4  A    between atoms: C_10  and  N_11
REMARK    5  A    between atoms: N_11  and  C_16
REMARK    6  A    between atoms: C_20  and  O_21
REMARK    7  A    between atoms: O_21  and  P_22
REMARK    8  A    between atoms: P_22  and  O_24
REMARK    9  A    between atoms: P_22  and  O_26
REMARK                            x       y       z     vdW  Elec       q    Type
REMARK                         _______ _______ _______ _____ _____    ______ ____
ROOT
ATOM      1  N   UNL     1      33.384 -22.729 -18.435  0.00  0.00    -0.245 NA
ATOM      2  C   UNL     1      35.294 -22.798 -16.396  0.00  0.00    +0.032 C 
ATOM      3  C   UNL     1      34.030 -23.337 -16.187  0.00  0.00    +0.028 C 
ATOM      4  C   UNL     1      35.604 -22.224 -17.624  0.00  0.00    +0.144 C 
ATOM      5  C   UNL     1      34.623 -22.215 -18.602  0.00  0.00    +0.093 C 
ATOM      6  C   UNL     1      33.119 -23.279 -17.229  0.00  0.00    +0.097 C 
ATOM      7  C   UNL     1      34.903 -21.609 -19.939  0.00  0.00    +0.055 C 
ENDROOT
BRANCH   4   8
ATOM      8  O   UNL     1      36.831 -21.688 -17.856  0.00  0.00    -0.505 OA
ATOM      9  H   UNL     1      37.554 -22.246 -18.068  0.00  0.00    +0.292 HD
ENDBRANCH   4   8
BRANCH   2  10
ATOM     10  C   UNL     1      36.319 -22.833 -15.308  0.00  0.00    +0.117 C 
BRANCH  10  11
ATOM     11  N   UNL     1      37.345 -23.809 -15.599  0.00  0.00    -0.323 N 
ATOM     12  H   UNL     1      37.873 -23.697 -16.422  0.00  0.00    +0.147 HD
BRANCH  11  16
ATOM     13  O   UNL     1      38.436 -26.310 -13.199  0.00  0.00    -0.379 OA
ATOM     14  O   UNL     1      36.131 -26.447 -15.804  0.00  0.00    -0.266 OA
ATOM     15  N   UNL     1      37.485 -27.000 -13.984  0.00  0.00    -0.143 N 
ATOM     16  C   UNL     1      37.620 -24.869 -14.800  0.00  0.00    +0.142 C 
ATOM     17  C   UNL     1      36.967 -26.177 -14.959  0.00  0.00    +0.293 C 
ATOM     18  C   UNL     1      38.434 -25.060 -13.769  0.00  0.00    +0.226 C 
ATOM     19  H   UNL     1      37.229 -27.941 -13.851  0.00  0.00    +0.196 HD
ENDBRANCH  11  16
ENDBRANCH  10  11
ENDBRANCH   2  10
BRANCH   3  20
ATOM     20  C   UNL     1      33.644 -23.965 -14.892  0.00  0.00    +0.181 C 
BRANCH  20  21
ATOM     21  O   UNL     1      32.268 -24.326 -14.933  0.00  0.00    -0.268 OA
BRANCH  21  22
ATOM     22  P   UNL     1      31.276 -23.688 -13.828  0.00  0.00    +0.473 P 
ATOM     23  O   UNL     1      30.135 -22.887 -14.385  0.00  0.00    -0.227 OA
BRANCH  22  24
ATOM     24  O   UNL     1      32.269 -22.881 -12.839  0.00  0.00    -0.303 OA
ATOM     25  H   UNL     1      32.027 -23.064 -11.918  0.00  0.00    +0.222 HD
ENDBRANCH  22  24
BRANCH  22  26
ATOM     26  O   UNL     1      30.842 -24.975 -12.951  0.00  0.00    -0.303 OA
ATOM     27  H   UNL     1      29.997 -25.319 -13.278  0.00  0.00    +0.222 HD
ENDBRANCH  22  26
ENDBRANCH  21  22
ENDBRANCH  20  21
ENDBRANCH   3  20
TORSDOF 9
ENDMDL
MODEL 2
REMARK VINA RESULT:      -8.6      3.199      5.601
REMARK  Name = 445008
REMARK  9 active torsions:
REMARK  status: ('A' for Active; 'I' for Inactive)
REMARK    1  A    between atoms: C_2  and  C_10
REMARK    2  A    between atoms: C_3  and  C_20
REMARK    3  A    between atoms: C_4  and  O_8
REMARK    4  A    between atoms: C_10  and  N_11
REMARK    5  A    between atoms: N_11  and  C_16
REMARK    6  A    between atoms: C_20  and  O_21
REMARK    7  A    between atoms: O_21  and  P_22
REMARK    8  A    between atoms: P_22  and  O_24
REMARK    9  A    between atoms: P_22  and  O_26
REMARK                            x       y       z     vdW  Elec       q    Type
REMARK                         _______ _______ _______ _____ _____    ______ ____
ROOT
ATOM      1  N   UNL     1      32.330 -25.001 -13.176  0.00  0.00    -0.245 NA
ATOM      2  C   UNL     1      32.196 -23.610 -15.597  0.00  0.00    +0.032 C 
ATOM      3  C   UNL     1      31.138 -24.417 -15.195  0.00  0.00    +0.028 C 
ATOM      4  C   UNL     1      33.322 -23.498 -14.788  0.00  0.00    +0.144 C 
ATOM      5  C   UNL     1      33.340 -24.208 -13.598  0.00  0.00    +0.093 C 
ATOM      6  C   UNL     1      31.252 -25.085 -13.987  0.00  0.00    +0.097 C 
ATOM      7  C   UNL     1      34.526 -24.124 -12.694  0.00  0.00    +0.055 C 
ENDROOT
BRANCH   4   8
ATOM      8  O   UNL     1      34.373 -22.719 -15.156  0.00  0.00    -0.505 OA
ATOM      9  H   UNL     1      34.397 -22.337 -16.012  0.00  0.00    +0.292 HD
ENDBRANCH   4   8
BRANCH   2  10
ATOM     10  C   UNL     1      32.129 -22.865 -16.891  0.00  0.00    +0.117 C 
BRANCH  10  11
ATOM     11  N   UNL     1      33.249 -23.206 -17.740  0.00  0.00    -0.323 N 
ATOM     12  H   UNL     1      33.581 -24.132 -17.722  0.00  0.00    +0.147 HD
BRANCH  11  16
ATOM     13  O   UNL     1      34.407 -20.770 -20.175  0.00  0.00    -0.379 OA
ATOM     14  O   UNL     1      36.061 -22.459 -17.619  0.00  0.00    -0.266 OA
ATOM     15  N   UNL     1      35.568 -21.061 -19.424  0.00  0.00    -0.143 N 
ATOM     16  C   UNL     1      33.867 -22.319 -18.559  0.00  0.00    +0.142 C 
ATOM     17  C   UNL     1      35.294 -21.986 -18.441  0.00  0.00    +0.293 C 
ATOM     18  C   UNL     1      33.463 -21.568 -19.576  0.00  0.00    +0.226 C 
ATOM     19  H   UNL     1      36.451 -20.657 -19.583  0.00  0.00    +0.196 HD
ENDBRANCH  11  16
ENDBRANCH  10  11
ENDBRANCH   2  10
BRANCH   3  20
ATOM     20  C   UNL     1      29.907 -24.573 -16.021  0.00  0.00    +0.181 C 
BRANCH  20  21
ATOM     21  O   UNL     1      28.830 -23.880 -15.400  0.00  0.00    -0.268 OA
BRANCH  21  22
ATOM     22  P   UNL     1      27.859 -22.983 -16.332  0.00  0.00    +0.473 P 
ATOM     23  O   UNL     1      26.654 -22.421 -15.636  0.00  0.00    -0.227 OA
BRANCH  22  24
ATOM     24  O   UNL     1      27.545 -23.941 -17.596  0.00  0.00    -0.303 OA
ATOM     25  H   UNL     1      28.286 -24.551 -17.731  0.00  0.00    +0.222 HD
ENDBRANCH  22  24
BRANCH  22  26
ATOM     26  O   UNL     1      28.871 -21.880 -16.943  0.00  0.00    -0.303 OA
ATOM     27  H   UNL     1      28.370 -21.239 -17.469  0.00  0.00    +0.222 HD
ENDBRANCH  22  26
ENDBRANCH  21  22
ENDBRANCH  20  21
ENDBRANCH   3  20
TORSDOF 9
ENDMDL
MODEL 3
REMARK VINA RESULT:      -8.5      2.503      3.039
REMARK  Name = 445008
REMARK  9 active torsions:
REMARK  status: ('A' for Active; 'I' for Inactive)
REMARK    1  A    between atoms: C_2  and  C_10
REMARK    2  A    between atoms: C_3  and  C_20
REMARK    3  A    between atoms: C_4  and  O_8
REMARK    4  A    between atoms: C_10  and  N_11
REMARK    5  A    between atoms: N_11  and  C_16
REMARK    6  A    between atoms: C_20  and  O_21
REMARK    7  A    between atoms: O_21  and  P_22
REMARK    8  A    between atoms: P_22  and  O_24
REMARK    9  A    between atoms: P_22  and  O_26
REMARK                            x       y       z     vdW  Elec       q    Type
REMARK                         _______ _______ _______ _____ _____    ______ ____
ROOT
ATOM      1  N   UNL     1      33.129 -23.316 -16.170  0.00  0.00    -0.245 NA
ATOM      2  C   UNL     1      35.828 -22.849 -15.613  0.00  0.00    +0.032 C 
ATOM      3  C   UNL     1      34.950 -23.181 -14.587  0.00  0.00    +0.028 C 
ATOM      4  C   UNL     1      35.357 -22.751 -16.918  0.00  0.00    +0.144 C 
ATOM      5  C   UNL     1      34.011 -22.992 -17.142  0.00  0.00    +0.093 C 
ATOM      6  C   UNL     1      33.623 -23.403 -14.915  0.00  0.00    +0.097 C 
ATOM      7  C   UNL     1      33.453 -22.897 -18.525  0.00  0.00    +0.055 C 
ENDROOT
BRANCH   4   8
ATOM      8  O   UNL     1      36.191 -22.427 -17.940  0.00  0.00    -0.505 OA
ATOM      9  H   UNL     1      37.119 -22.413 -17.802  0.00  0.00    +0.292 HD
ENDBRANCH   4   8
BRANCH   2  10
ATOM     10  C   UNL     1      37.272 -22.599 -15.320  0.00  0.00    +0.117 C 
BRANCH  10  11
ATOM     11  N   UNL     1      38.090 -23.695 -15.789  0.00  0.00    -0.323 N 
ATOM     12  H   UNL     1      38.456 -23.645 -16.701  0.00  0.00    +0.147 HD
BRANCH  11  16
ATOM     13  O   UNL     1      39.303 -26.329 -13.600  0.00  0.00    -0.379 OA
ATOM     14  O   UNL     1      36.557 -26.170 -15.735  0.00  0.00    -0.266 OA
ATOM     15  N   UNL     1      38.150 -26.896 -14.188  0.00  0.00    -0.143 N 
ATOM     16  C   UNL     1      38.381 -24.788 -15.041  0.00  0.00    +0.142 C 
ATOM     17  C   UNL     1      37.561 -26.008 -15.061  0.00  0.00    +0.293 C 
ATOM     18  C   UNL     1      39.343 -25.083 -14.175  0.00  0.00    +0.226 C 
ATOM     19  H   UNL     1      37.813 -27.801 -13.999  0.00  0.00    +0.196 HD
ENDBRANCH  11  16
ENDBRANCH  10  11
ENDBRANCH   2  10
BRANCH   3  20
ATOM     20  C   UNL     1      35.399 -23.302 -13.172  0.00  0.00    +0.181 C 
BRANCH  20  21
ATOM     21  O   UNL     1      35.470 -24.677 -12.813  0.00  0.00    -0.268 OA
BRANCH  21  22
ATOM     22  P   UNL     1      36.173 -25.067 -11.410  0.00  0.00    +0.473 P 
ATOM     23  O   UNL     1      35.260 -25.060 -10.219  0.00  0.00    -0.227 OA
BRANCH  22  24
ATOM     24  O   UNL     1      37.436 -24.062 -11.319  0.00  0.00    -0.303 OA
ATOM     25  H   UNL     1      37.700 -23.957 -10.393  0.00  0.00    +0.222 HD
ENDBRANCH  22  24
BRANCH  22  26
ATOM     26  O   UNL     1      36.857 -26.495 -11.738  0.00  0.00    -0.303 OA
ATOM     27  H   UNL     1      37.105 -26.932 -10.910  0.00  0.00    +0.222 HD
ENDBRANCH  22  26
ENDBRANCH  21  22
ENDBRANCH  20  21
ENDBRANCH   3  20
TORSDOF 9
ENDMDL
MODEL 4
REMARK VINA RESULT:      -8.4      2.765      5.542
REMARK  Name = 445008
REMARK  9 active torsions:
REMARK  status: ('A' for Active; 'I' for Inactive)
REMARK    1  A    between atoms: C_2  and  C_10
REMARK    2  A    between atoms: C_3  and  C_20
REMARK    3  A    between atoms: C_4  and  O_8
REMARK    4  A    between atoms: C_10  and  N_11
REMARK    5  A    between atoms: N_11  and  C_16
REMARK    6  A    between atoms: C_20  and  O_21
REMARK    7  A    between atoms: O_21  and  P_22
REMARK    8  A    between atoms: P_22  and  O_24
REMARK    9  A    between atoms: P_22  and  O_26
REMARK                            x       y       z     vdW  Elec       q    Type
REMARK                         _______ _______ _______ _____ _____    ______ ____
ROOT
ATOM      1  N   UNL     1      36.799 -21.854 -17.684  0.00  0.00    -0.245 NA
ATOM      2  C   UNL     1      34.889 -23.278 -16.221  0.00  0.00    +0.032 C 
ATOM      3  C   UNL     1      36.178 -23.124 -15.724  0.00  0.00    +0.028 C 
ATOM      4  C   UNL     1      34.554 -22.719 -17.450  0.00  0.00    +0.144 C 
ATOM      5  C   UNL     1      35.536 -22.023 -18.136  0.00  0.00    +0.093 C 
ATOM      6  C   UNL     1      37.088 -22.410 -16.486  0.00  0.00    +0.097 C 
ATOM      7  C   UNL     1      35.229 -21.404 -19.461  0.00  0.00    +0.055 C 
ENDROOT
BRANCH   4   8
ATOM      8  O   UNL     1      33.303 -22.854 -17.962  0.00  0.00    -0.505 OA
ATOM      9  H   UNL     1      33.094 -23.593 -18.500  0.00  0.00    +0.292 HD
ENDBRANCH   4   8
BRANCH   2  10
ATOM     10  C   UNL     1      33.865 -24.038 -15.443  0.00  0.00    +0.117 C 
BRANCH  10  11
ATOM     11  N   UNL     1      32.706 -23.215 -15.176  0.00  0.00    -0.323 N 
ATOM     12  H   UNL     1      32.842 -22.250 -15.046  0.00  0.00    +0.147 HD
BRANCH  11  16
ATOM     13  O   UNL     1      29.501 -24.796 -14.516  0.00  0.00    -0.379 OA
ATOM     14  O   UNL     1      30.525 -22.576 -16.995  0.00  0.00    -0.266 OA
ATOM     15  N   UNL     1      29.251 -24.012 -15.664  0.00  0.00    -0.143 N 
ATOM     16  C   UNL     1      31.443 -23.702 -15.096  0.00  0.00    +0.142 C 
ATOM     17  C   UNL     1      30.386 -23.336 -16.052  0.00  0.00    +0.293 C 
ATOM     18  C   UNL     1      30.827 -24.536 -14.267  0.00  0.00    +0.226 C 
ATOM     19  H   UNL     1      28.382 -23.956 -16.125  0.00  0.00    +0.196 HD
ENDBRANCH  11  16
ENDBRANCH  10  11
ENDBRANCH   2  10
BRANCH   3  20
ATOM     20  C   UNL     1      36.592 -23.700 -14.413  0.00  0.00    +0.181 C 
BRANCH  20  21
ATOM     21  O   UNL     1      37.606 -24.677 -14.625  0.00  0.00    -0.268 OA
BRANCH  21  22
ATOM     22  P   UNL     1      37.179 -26.236 -14.627  0.00  0.00    +0.473 P 
ATOM     23  O   UNL     1      36.217 -26.629 -15.709  0.00  0.00    -0.227 OA
BRANCH  22  24
ATOM     24  O   UNL     1      36.664 -26.497 -13.116  0.00  0.00    -0.303 OA
ATOM     25  H   UNL     1      37.420 -26.475 -12.510  0.00  0.00    +0.222 HD
ENDBRANCH  22  24
BRANCH  22  26
ATOM     26  O   UNL     1      38.605 -26.997 -14.671  0.00  0.00    -0.303 OA
ATOM     27  H   UNL     1      39.006 -26.981 -13.789  0.00  0.00    +0.222 HD
ENDBRANCH  22  26
ENDBRANCH  21  22
ENDBRANCH  20  21
ENDBRANCH   3  20
TORSDOF 9
ENDMDL
MODEL 5
REMARK VINA RESULT:      -8.4      2.684      5.403
REMARK  Name = 445008
REMARK  9 active torsions:
REMARK  status: ('A' for Active; 'I' for Inactive)
REMARK    1  A    between atoms: C_2  and  C_10
REMARK    2  A    between atoms: C_3  and  C_20
REMARK    3  A    between atoms: C_4  and  O_8
REMARK    4  A    between atoms: C_10  and  N_11
REMARK    5  A    between atoms: N_11  and  C_16
REMARK    6  A    between atoms: C_20  and  O_21
REMARK    7  A    between atoms: O_21  and  P_22
REMARK    8  A    between atoms: P_22  and  O_24
REMARK    9  A    between atoms: P_22  and  O_26
REMARK                            x       y       z     vdW  Elec       q    Type
REMARK                         _______ _______ _______ _____ _____    ______ ____
ROOT
ATOM      1  N   UNL     1      36.682 -21.816 -17.738  0.00  0.00    -0.245 NA
ATOM      2  C   UNL     1      34.862 -23.325 -16.245  0.00  0.00    +0.032 C 
ATOM      3  C   UNL     1      36.152 -23.117 -15.770  0.00  0.00    +0.028 C 
ATOM      4  C   UNL     1      34.481 -22.778 -17.466  0.00  0.00    +0.144 C 
ATOM      5  C   UNL     1      35.420 -22.039 -18.167  0.00  0.00    +0.093 C 
ATOM      6  C   UNL     1      37.016 -22.362 -16.547  0.00  0.00    +0.097 C 
ATOM      7  C   UNL     1      35.063 -21.432 -19.485  0.00  0.00    +0.055 C 
ENDROOT
BRANCH   4   8
ATOM      8  O   UNL     1      33.228 -22.966 -17.956  0.00  0.00    -0.505 OA
ATOM      9  H   UNL     1      32.567 -23.355 -17.417  0.00  0.00    +0.292 HD
ENDBRANCH   4   8
BRANCH   2  10
ATOM     10  C   UNL     1      33.886 -24.131 -15.451  0.00  0.00    +0.117 C 
BRANCH  10  11
ATOM     11  N   UNL     1      32.680 -23.373 -15.196  0.00  0.00    -0.323 N 
ATOM     12  H   UNL     1      32.757 -22.398 -15.092  0.00  0.00    +0.147 HD
BRANCH  11  16
ATOM     13  O   UNL     1      29.268 -24.606 -15.397  0.00  0.00    -0.379 OA
ATOM     14  O   UNL     1      31.800 -25.159 -13.072  0.00  0.00    -0.266 OA
ATOM     15  N   UNL     1      29.764 -25.204 -14.217  0.00  0.00    -0.143 N 
ATOM     16  C   UNL     1      31.450 -23.934 -15.095  0.00  0.00    +0.142 C 
ATOM     17  C   UNL     1      31.071 -24.831 -13.993  0.00  0.00    +0.293 C 
ATOM     18  C   UNL     1      30.348 -23.879 -15.834  0.00  0.00    +0.226 C 
ATOM     19  H   UNL     1      29.246 -25.805 -13.635  0.00  0.00    +0.196 HD
ENDBRANCH  11  16
ENDBRANCH  10  11
ENDBRANCH   2  10
BRANCH   3  20
ATOM     20  C   UNL     1      36.614 -23.677 -14.469  0.00  0.00    +0.181 C 
BRANCH  20  21
ATOM     21  O   UNL     1      37.608 -24.668 -14.707  0.00  0.00    -0.268 OA
BRANCH  21  22
ATOM     22  P   UNL     1      37.168 -26.222 -14.645  0.00  0.00    +0.473 P 
ATOM     23  O   UNL     1      36.229 -26.660 -15.730  0.00  0.00    -0.227 OA
BRANCH  22  24
ATOM     24  O   UNL     1      36.616 -26.407 -13.136  0.00  0.00    -0.303 OA
ATOM     25  H   UNL     1      35.815 -26.951 -13.149  0.00  0.00    +0.222 HD
ENDBRANCH  22  24
BRANCH  22  26
ATOM     26  O   UNL     1      38.589 -26.994 -14.618  0.00  0.00    -0.303 OA
ATOM     27  H   UNL     1      38.521 -27.812 -15.134  0.00  0.00    +0.222 HD
ENDBRANCH  22  26
ENDBRANCH  21  22
ENDBRANCH  20  21
ENDBRANCH   3  20
TORSDOF 9
ENDMDL
MODEL 6
REMARK VINA RESULT:      -8.4      2.962      5.556
REMARK  Name = 445008
REMARK  9 active torsions:
REMARK  status: ('A' for Active; 'I' for Inactive)
REMARK    1  A    between atoms: C_2  and  C_10
REMARK    2  A    between atoms: C_3  and  C_20
REMARK    3  A    between atoms: C_4  and  O_8
REMARK    4  A    between atoms: C_10  and  N_11
REMARK    5  A    between atoms: N_11  and  C_16
REMARK    6  A    between atoms: C_20  and  O_21
REMARK    7  A    between atoms: O_21  and  P_22
REMARK    8  A    between atoms: P_22  and  O_24
REMARK    9  A    between atoms: P_22  and  O_26
REMARK                            x       y       z     vdW  Elec       q    Type
REMARK                         _______ _______ _______ _____ _____    ______ ____
ROOT
ATOM      1  N   UNL     1      30.897 -24.976 -14.178  0.00  0.00    -0.245 NA
ATOM      2  C   UNL     1      33.003 -23.564 -15.354  0.00  0.00    +0.032 C 
ATOM      3  C   UNL     1      33.229 -24.342 -14.225  0.00  0.00    +0.028 C 
ATOM      4  C   UNL     1      31.724 -23.492 -15.897  0.00  0.00    +0.144 C 
ATOM      5  C   UNL     1      30.715 -24.210 -15.277  0.00  0.00    +0.093 C 
ATOM      6  C   UNL     1      32.152 -25.023 -13.679  0.00  0.00    +0.097 C 
ATOM      7  C   UNL     1      29.323 -24.166 -15.818  0.00  0.00    +0.055 C 
ENDROOT
BRANCH   4   8
ATOM      8  O   UNL     1      31.473 -22.739 -16.999  0.00  0.00    -0.505 OA
ATOM      9  H   UNL     1      30.773 -22.972 -17.577  0.00  0.00    +0.292 HD
ENDBRANCH   4   8
BRANCH   2  10
ATOM     10  C   UNL     1      34.126 -22.807 -15.987  0.00  0.00    +0.117 C 
BRANCH  10  11
ATOM     11  N   UNL     1      34.246 -23.142 -17.389  0.00  0.00    -0.323 N 
ATOM     12  H   UNL     1      33.945 -24.031 -17.682  0.00  0.00    +0.147 HD
BRANCH  11  16
ATOM     13  O   UNL     1      36.085 -20.947 -19.626  0.00  0.00    -0.379 OA
ATOM     14  O   UNL     1      32.735 -21.891 -19.540  0.00  0.00    -0.266 OA
ATOM     15  N   UNL     1      34.767 -20.905 -20.134  0.00  0.00    -0.143 N 
ATOM     16  C   UNL     1      34.751 -22.296 -18.320  0.00  0.00    +0.142 C 
ATOM     17  C   UNL     1      33.929 -21.698 -19.383  0.00  0.00    +0.293 C 
ATOM     18  C   UNL     1      35.960 -21.799 -18.556  0.00  0.00    +0.226 C 
ATOM     19  H   UNL     1      34.487 -20.379 -20.918  0.00  0.00    +0.196 HD
ENDBRANCH  11  16
ENDBRANCH  10  11
ENDBRANCH   2  10
BRANCH   3  20
ATOM     20  C   UNL     1      34.577 -24.457 -13.602  0.00  0.00    +0.181 C 
BRANCH  20  21
ATOM     21  O   UNL     1      34.519 -23.993 -12.258  0.00  0.00    -0.268 OA
BRANCH  21  22
ATOM     22  P   UNL     1      35.725 -24.392 -11.257  0.00  0.00    +0.473 P 
ATOM     23  O   UNL     1      35.340 -24.503  -9.811  0.00  0.00    -0.227 OA
BRANCH  22  24
ATOM     24  O   UNL     1      36.874 -23.303 -11.585  0.00  0.00    -0.303 OA
ATOM     25  H   UNL     1      37.553 -23.709 -12.146  0.00  0.00    +0.222 HD
ENDBRANCH  22  24
BRANCH  22  26
ATOM     26  O   UNL     1      36.301 -25.751 -11.917  0.00  0.00    -0.303 OA
ATOM     27  H   UNL     1      36.502 -26.390 -11.216  0.00  0.00    +0.222 HD
ENDBRANCH  22  26
ENDBRANCH  21  22
ENDBRANCH  20  21
ENDBRANCH   3  20
TORSDOF 9
ENDMDL
MODEL 7
REMARK VINA RESULT:      -8.2      3.112      5.894
REMARK  Name = 445008
REMARK  9 active torsions:
REMARK  status: ('A' for Active; 'I' for Inactive)
REMARK    1  A    between atoms: C_2  and  C_10
REMARK    2  A    between atoms: C_3  and  C_20
REMARK    3  A    between atoms: C_4  and  O_8
REMARK    4  A    between atoms: C_10  and  N_11
REMARK    5  A    between atoms: N_11  and  C_16
REMARK    6  A    between atoms: C_20  and  O_21
REMARK    7  A    between atoms: O_21  and  P_22
REMARK    8  A    between atoms: P_22  and  O_24
REMARK    9  A    between atoms: P_22  and  O_26
REMARK                            x       y       z     vdW  Elec       q    Type
REMARK                         _______ _______ _______ _____ _____    ______ ____
ROOT
ATOM      1  N   UNL     1      36.312 -22.381 -17.204  0.00  0.00    -0.245 NA
ATOM      2  C   UNL     1      34.135 -23.561 -15.906  0.00  0.00    +0.032 C 
ATOM      3  C   UNL     1      35.378 -23.512 -15.283  0.00  0.00    +0.028 C 
ATOM      4  C   UNL     1      33.980 -23.019 -17.177  0.00  0.00    +0.144 C 
ATOM      5  C   UNL     1      35.089 -22.445 -17.778  0.00  0.00    +0.093 C 
ATOM      6  C   UNL     1      36.424 -22.916 -15.968  0.00  0.00    +0.097 C 
ATOM      7  C   UNL     1      34.978 -21.850 -19.144  0.00  0.00    +0.055 C 
ENDROOT
BRANCH   4   8
ATOM      8  O   UNL     1      32.779 -23.053 -17.810  0.00  0.00    -0.505 OA
ATOM      9  H   UNL     1      32.334 -23.870 -17.928  0.00  0.00    +0.292 HD
ENDBRANCH   4   8
BRANCH   2  10
ATOM     10  C   UNL     1      32.969 -24.190 -15.215  0.00  0.00    +0.117 C 
BRANCH  10  11
ATOM     11  N   UNL     1      31.843 -23.283 -15.176  0.00  0.00    -0.323 N 
ATOM     12  H   UNL     1      32.025 -22.321 -15.084  0.00  0.00    +0.147 HD
BRANCH  11  16
ATOM     13  O   UNL     1      28.498 -24.686 -14.962  0.00  0.00    -0.379 OA
ATOM     14  O   UNL     1      29.903 -22.363 -17.142  0.00  0.00    -0.266 OA
ATOM     15  N   UNL     1      28.415 -23.804 -16.062  0.00  0.00    -0.143 N 
ATOM     16  C   UNL     1      30.552 -23.687 -15.260  0.00  0.00    +0.142 C 
ATOM     17  C   UNL     1      29.623 -23.180 -16.281  0.00  0.00    +0.293 C 
ATOM     18  C   UNL     1      29.805 -24.537 -14.565  0.00  0.00    +0.226 C 
ATOM     19  H   UNL     1      27.603 -23.655 -16.599  0.00  0.00    +0.196 HD
ENDBRANCH  11  16
ENDBRANCH  10  11
ENDBRANCH   2  10
BRANCH   3  20
ATOM     20  C   UNL     1      35.601 -24.076 -13.922  0.00  0.00    +0.181 C 
BRANCH  20  21
ATOM     21  O   UNL     1      36.120 -23.061 -13.069  0.00  0.00    -0.268 OA
BRANCH  21  22
ATOM     22  P   UNL     1      37.364 -23.434 -12.106  0.00  0.00    +0.473 P 
ATOM     23  O   UNL     1      37.007 -24.237 -10.890  0.00  0.00    -0.227 OA
BRANCH  22  24
ATOM     24  O   UNL     1      38.064 -22.006 -11.811  0.00  0.00    -0.303 OA
ATOM     25  H   UNL     1      37.790 -21.686 -10.938  0.00  0.00    +0.222 HD
ENDBRANCH  22  24
BRANCH  22  26
ATOM     26  O   UNL     1      38.398 -24.153 -13.120  0.00  0.00    -0.303 OA
ATOM     27  H   UNL     1      38.636 -25.026 -12.773  0.00  0.00    +0.222 HD
ENDBRANCH  22  26
ENDBRANCH  21  22
ENDBRANCH  20  21
ENDBRANCH   3  20
TORSDOF 9
ENDMDL
MODEL 8
REMARK VINA RESULT:      -8.0      1.827      4.990
REMARK  Name = 445008
REMARK  9 active torsions:
REMARK  status: ('A' for Active; 'I' for Inactive)
REMARK    1  A    between atoms: C_2  and  C_10
REMARK    2  A    between atoms: C_3  and  C_20
REMARK    3  A    between atoms: C_4  and  O_8
REMARK    4  A    between atoms: C_10  and  N_11
REMARK    5  A    between atoms: N_11  and  C_16
REMARK    6  A    between atoms: C_20  and  O_21
REMARK    7  A    between atoms: O_21  and  P_22
REMARK    8  A    between atoms: P_22  and  O_24
REMARK    9  A    between atoms: P_22  and  O_26
REMARK                            x       y       z     vdW  Elec       q    Type
REMARK                         _______ _______ _______ _____ _____    ______ ____
ROOT
ATOM      1  N   UNL     1      38.141 -26.109 -13.346  0.00  0.00    -0.245 NA
ATOM      2  C   UNL     1      36.832 -23.926 -14.502  0.00  0.00    +0.032 C 
ATOM      3  C   UNL     1      36.198 -24.682 -13.522  0.00  0.00    +0.028 C 
ATOM      4  C   UNL     1      38.120 -24.261 -14.904  0.00  0.00    +0.144 C 
ATOM      5  C   UNL     1      38.726 -25.352 -14.301  0.00  0.00    +0.093 C 
ATOM      6  C   UNL     1      36.889 -25.753 -12.980  0.00  0.00    +0.097 C 
ATOM      7  C   UNL     1      40.108 -25.755 -14.698  0.00  0.00    +0.055 C 
ENDROOT
BRANCH   4   8
ATOM      8  O   UNL     1      38.764 -23.542 -15.861  0.00  0.00    -0.505 OA
ATOM      9  H   UNL     1      38.300 -23.255 -16.623  0.00  0.00    +0.292 HD
ENDBRANCH   4   8
BRANCH   2  10
ATOM     10  C   UNL     1      36.136 -22.758 -15.123  0.00  0.00    +0.117 C 
BRANCH  10  11
ATOM     11  N   UNL     1      35.481 -23.144 -16.354  0.00  0.00    -0.323 N 
ATOM     12  H   UNL     1      34.976 -23.989 -16.367  0.00  0.00    +0.147 HD
BRANCH  11  16
ATOM     13  O   UNL     1      36.107 -21.014 -19.230  0.00  0.00    -0.379 OA
ATOM     14  O   UNL     1      33.361 -22.960 -18.340  0.00  0.00    -0.266 OA
ATOM     15  N   UNL     1      34.809 -21.518 -19.471  0.00  0.00    -0.143 N 
ATOM     16  C   UNL     1      35.525 -22.405 -17.490  0.00  0.00    +0.142 C 
ATOM     17  C   UNL     1      34.415 -22.358 -18.453  0.00  0.00    +0.293 C 
ATOM     18  C   UNL     1      36.434 -21.605 -18.034  0.00  0.00    +0.226 C 
ATOM     19  H   UNL     1      34.261 -21.298 -20.258  0.00  0.00    +0.196 HD
ENDBRANCH  11  16
ENDBRANCH  10  11
ENDBRANCH   2  10
BRANCH   3  20
ATOM     20  C   UNL     1      34.819 -24.369 -13.052  0.00  0.00    +0.181 C 
BRANCH  20  21
ATOM     21  O   UNL     1      33.875 -24.836 -14.009  0.00  0.00    -0.268 OA
BRANCH  21  22
ATOM     22  P   UNL     1      32.439 -24.097 -14.092  0.00  0.00    +0.473 P 
ATOM     23  O   UNL     1      31.251 -25.013 -14.054  0.00  0.00    -0.227 OA
BRANCH  22  24
ATOM     24  O   UNL     1      32.558 -23.171 -15.412  0.00  0.00    -0.303 OA
ATOM     25  H   UNL     1      31.681 -23.061 -15.809  0.00  0.00    +0.222 HD
ENDBRANCH  22  24
BRANCH  22  26
ATOM     26  O   UNL     1      32.517 -23.029 -12.880  0.00  0.00    -0.303 OA
ATOM     27  H   UNL     1      33.244 -23.269 -12.285  0.00  0.00    +0.222 HD
ENDBRANCH  22  26
ENDBRANCH  21  22
ENDBRANCH  20  21
ENDBRANCH   3  20
TORSDOF 9
ENDMDL
MODEL 9
REMARK VINA RESULT:      -7.8      3.114      6.240
REMARK  Name = 445008
REMARK  9 active torsions:
REMARK  status: ('A' for Active; 'I' for Inactive)
REMARK    1  A    between atoms: C_2  and  C_10
REMARK    2  A    between atoms: C_3  and  C_20
REMARK    3  A    between atoms: C_4  and  O_8
REMARK    4  A    between atoms: C_10  and  N_11
REMARK    5  A    between atoms: N_11  and  C_16
REMARK    6  A    between atoms: C_20  and  O_21
REMARK    7  A    between atoms: O_21  and  P_22
REMARK    8  A    between atoms: P_22  and  O_24
REMARK    9  A    between atoms: P_22  and  O_26
REMARK                            x       y       z     vdW  Elec       q    Type
REMARK                         _______ _______ _______ _____ _____    ______ ____
ROOT
ATOM      1  N   UNL     1      32.184 -23.490 -13.835  0.00  0.00    -0.245 NA
ATOM      2  C   UNL     1      32.962 -23.379 -16.517  0.00  0.00    +0.032 C 
ATOM      3  C   UNL     1      33.903 -23.636 -15.527  0.00  0.00    +0.028 C 
ATOM      4  C   UNL     1      31.631 -23.177 -16.167  0.00  0.00    +0.144 C 
ATOM      5  C   UNL     1      31.297 -23.242 -14.824  0.00  0.00    +0.093 C 
ATOM      6  C   UNL     1      33.467 -23.681 -14.213  0.00  0.00    +0.097 C 
ATOM      7  C   UNL     1      29.881 -23.032 -14.394  0.00  0.00    +0.055 C 
ENDROOT
BRANCH   4   8
ATOM      8  O   UNL     1      30.690 -22.923 -17.113  0.00  0.00    -0.505 OA
ATOM      9  H   UNL     1      29.795 -23.157 -16.959  0.00  0.00    +0.292 HD
ENDBRANCH   4   8
BRANCH   2  10
ATOM     10  C   UNL     1      33.374 -23.318 -17.953  0.00  0.00    +0.117 C 
BRANCH  10  11
ATOM     11  N   UNL     1      32.862 -22.123 -18.585  0.00  0.00    -0.323 N 
ATOM     12  H   UNL     1      31.947 -21.836 -18.365  0.00  0.00    +0.147 HD
BRANCH  11  16
ATOM     13  O   UNL     1      34.281 -19.927 -21.109  0.00  0.00    -0.379 OA
ATOM     14  O   UNL     1      35.762 -22.110 -18.837  0.00  0.00    -0.266 OA
ATOM     15  N   UNL     1      35.415 -20.538 -20.530  0.00  0.00    -0.143 N 
ATOM     16  C   UNL     1      33.575 -21.375 -19.464  0.00  0.00    +0.142 C 
ATOM     17  C   UNL     1      35.043 -21.417 -19.537  0.00  0.00    +0.293 C 
ATOM     18  C   UNL     1      33.249 -20.494 -20.401  0.00  0.00    +0.226 C 
ATOM     19  H   UNL     1      36.345 -20.361 -20.800  0.00  0.00    +0.196 HD
ENDBRANCH  11  16
ENDBRANCH  10  11
ENDBRANCH   2  10
BRANCH   3  20
ATOM     20  C   UNL     1      35.342 -23.861 -15.844  0.00  0.00    +0.181 C 
BRANCH  20  21
ATOM     21  O   UNL     1      35.996 -24.413 -14.708  0.00  0.00    -0.268 OA
BRANCH  21  22
ATOM     22  P   UNL     1      36.736 -25.841 -14.870  0.00  0.00    +0.473 P 
ATOM     23  O   UNL     1      36.158 -26.740 -15.923  0.00  0.00    -0.227 OA
BRANCH  22  24
ATOM     24  O   UNL     1      36.740 -26.446 -13.370  0.00  0.00    -0.303 OA
ATOM     25  H   UNL     1      36.017 -26.050 -12.861  0.00  0.00    +0.222 HD
ENDBRANCH  22  24
BRANCH  22  26
ATOM     26  O   UNL     1      38.280 -25.419 -15.105  0.00  0.00    -0.303 OA
ATOM     27  H   UNL     1      38.814 -25.716 -14.352  0.00  0.00    +0.222 HD
ENDBRANCH  22  26
ENDBRANCH  21  22
ENDBRANCH  20  21
ENDBRANCH   3  20
TORSDOF 9
ENDMDL
