MODEL 1
REMARK VINA RESULT:      -6.6      0.000      0.000
REMARK  Name = 5289509
REMARK  4 active torsions:
REMARK  status: ('A' for Active; 'I' for Inactive)
REMARK    1  A    between atoms: C_3  and  C_13
REMARK    2  A    between atoms: C_5  and  C_6
REMARK    3  A    between atoms: C_6  and  N_9
REMARK    4  A    between atoms: C_13  and  O_14
REMARK                            x       y       z     vdW  Elec       q    Type
REMARK                         _______ _______ _______ _____ _____    ______ ____
ROOT
ATOM      1  S   UNK     1      30.626 -24.241 -15.169  0.00  0.00    -0.092 S 
ATOM      2  N   UNK     1      30.052 -22.362 -16.889  0.00  0.00    -0.253 NA
ATOM      3  C   UNK     1      28.810 -22.659 -16.147  0.00  0.00    +0.213 C 
ATOM      4  C   UNK     1      28.874 -24.060 -15.556  0.00  0.00    +0.099 C 
ATOM      5  C   UNK     1      31.012 -23.079 -16.411  0.00  0.00    +0.115 C 
ENDROOT
BRANCH   5   6
ATOM      6  C   UNK     1      32.410 -23.027 -16.842  0.00  0.00    +0.061 C 
ATOM      7  C   UNK     1      33.317 -23.361 -15.904  0.00  0.00    -0.010 C 
ATOM      8  C   UNK     1      34.801 -23.392 -16.083  0.00  0.00    +0.032 C 
BRANCH   6   9
ATOM      9  N   UNK     1      32.636 -22.651 -18.132  0.00  0.00    -0.356 N 
ATOM     10  H   UNK     1      33.478 -22.901 -18.577  0.00  0.00    +0.142 HD
ATOM     11  H   UNK     1      31.959 -22.130 -18.619  0.00  0.00    +0.142 HD
ENDBRANCH   6   9
ENDBRANCH   5   6
BRANCH   3  13
ATOM     12  O   UNK     1      27.054 -21.512 -17.341  0.00  0.00    -0.248 OA
ATOM     13  C   UNK     1      27.689 -22.535 -17.127  0.00  0.00    +0.337 C 
BRANCH  13  14
ATOM     14  O   UNK     1      27.464 -23.717 -17.749  0.00  0.00    -0.479 OA
ATOM     15  H   UNK     1      26.714 -23.821 -18.301  0.00  0.00    +0.295 HD
ENDBRANCH  13  14
ENDBRANCH   3  13
TORSDOF 4
ENDMDL
MODEL 2
REMARK VINA RESULT:      -6.5      8.829      9.711
REMARK  Name = 5289509
REMARK  4 active torsions:
REMARK  status: ('A' for Active; 'I' for Inactive)
REMARK    1  A    between atoms: C_3  and  C_13
REMARK    2  A    between atoms: C_5  and  C_6
REMARK    3  A    between atoms: C_6  and  N_9
REMARK    4  A    between atoms: C_13  and  O_14
REMARK                            x       y       z     vdW  Elec       q    Type
REMARK                         _______ _______ _______ _____ _____    ______ ____
ROOT
ATOM      1  S   UNK     1      34.587 -16.300 -21.415  0.00  0.00    -0.092 S 
ATOM      2  N   UNK     1      34.934 -18.024 -23.344  0.00  0.00    -0.253 NA
ATOM      3  C   UNK     1      34.960 -16.682 -23.960  0.00  0.00    +0.213 C 
ATOM      4  C   UNK     1      34.229 -15.685 -23.072  0.00  0.00    +0.099 C 
ATOM      5  C   UNK     1      34.807 -17.903 -22.067  0.00  0.00    +0.115 C 
ENDROOT
BRANCH   5   6
ATOM      6  C   UNK     1      34.801 -19.004 -21.103  0.00  0.00    +0.061 C 
ATOM      7  C   UNK     1      33.613 -19.614 -20.930  0.00  0.00    -0.010 C 
ATOM      8  C   UNK     1      33.336 -20.762 -20.011  0.00  0.00    +0.032 C 
BRANCH   6   9
ATOM      9  N   UNK     1      35.987 -19.287 -20.494  0.00  0.00    -0.356 N 
ATOM     10  H   UNK     1      36.621 -18.562 -20.291  0.00  0.00    +0.142 HD
ATOM     11  H   UNK     1      36.210 -20.215 -20.257  0.00  0.00    +0.142 HD
ENDBRANCH   6   9
ENDBRANCH   5   6
BRANCH   3  13
ATOM     12  O   UNK     1      34.102 -15.890 -26.071  0.00  0.00    -0.248 OA
ATOM     13  C   UNK     1      34.296 -16.811 -25.292  0.00  0.00    +0.337 C 
BRANCH  13  14
ATOM     14  O   UNK     1      33.930 -18.095 -25.522  0.00  0.00    -0.479 OA
ATOM     15  H   UNK     1      33.540 -18.601 -24.836  0.00  0.00    +0.295 HD
ENDBRANCH  13  14
ENDBRANCH   3  13
TORSDOF 4
ENDMDL
MODEL 3
REMARK VINA RESULT:      -6.3      7.055      9.024
REMARK  Name = 5289509
REMARK  4 active torsions:
REMARK  status: ('A' for Active; 'I' for Inactive)
REMARK    1  A    between atoms: C_3  and  C_13
REMARK    2  A    between atoms: C_5  and  C_6
REMARK    3  A    between atoms: C_6  and  N_9
REMARK    4  A    between atoms: C_13  and  O_14
REMARK                            x       y       z     vdW  Elec       q    Type
REMARK                         _______ _______ _______ _____ _____    ______ ____
ROOT
ATOM      1  S   UNK     1      36.916 -25.346 -12.587  0.00  0.00    -0.092 S 
ATOM      2  N   UNK     1      37.746 -25.325 -15.062  0.00  0.00    -0.253 NA
ATOM      3  C   UNK     1      38.848 -25.874 -14.245  0.00  0.00    +0.213 C 
ATOM      4  C   UNK     1      38.705 -25.417 -12.800  0.00  0.00    +0.099 C 
ATOM      5  C   UNK     1      36.730 -25.093 -14.302  0.00  0.00    +0.115 C 
ENDROOT
BRANCH   5   6
ATOM      6  C   UNK     1      35.426 -24.603 -14.750  0.00  0.00    +0.061 C 
ATOM      7  C   UNK     1      35.455 -23.752 -15.793  0.00  0.00    -0.010 C 
ATOM      8  C   UNK     1      34.271 -23.111 -16.443  0.00  0.00    +0.032 C 
BRANCH   6   9
ATOM      9  N   UNK     1      34.337 -25.059 -14.069  0.00  0.00    -0.356 N 
ATOM     10  H   UNK     1      34.271 -24.918 -13.096  0.00  0.00    +0.142 HD
ATOM     11  H   UNK     1      33.617 -25.528 -14.548  0.00  0.00    +0.142 HD
ENDBRANCH   6   9
ENDBRANCH   5   6
BRANCH   3  13
ATOM     12  O   UNK     1      40.875 -24.568 -14.324  0.00  0.00    -0.248 OA
ATOM     13  C   UNK     1      40.118 -25.370 -14.849  0.00  0.00    +0.337 C 
BRANCH  13  14
ATOM     14  O   UNK     1      40.319 -25.923 -16.070  0.00  0.00    -0.479 OA
ATOM     15  H   UNK     1      39.780 -25.670 -16.794  0.00  0.00    +0.295 HD
ENDBRANCH  13  14
ENDBRANCH   3  13
TORSDOF 4
ENDMDL
MODEL 4
REMARK VINA RESULT:      -6.2      7.256      7.780
REMARK  Name = 5289509
REMARK  4 active torsions:
REMARK  status: ('A' for Active; 'I' for Inactive)
REMARK    1  A    between atoms: C_3  and  C_13
REMARK    2  A    between atoms: C_5  and  C_6
REMARK    3  A    between atoms: C_6  and  N_9
REMARK    4  A    between atoms: C_13  and  O_14
REMARK                            x       y       z     vdW  Elec       q    Type
REMARK                         _______ _______ _______ _____ _____    ______ ____
ROOT
ATOM      1  S   UNK     1      34.936 -24.198 -14.537  0.00  0.00    -0.092 S 
ATOM      2  N   UNK     1      37.185 -23.776 -13.281  0.00  0.00    -0.253 NA
ATOM      3  C   UNK     1      36.266 -24.410 -12.314  0.00  0.00    +0.213 C 
ATOM      4  C   UNK     1      34.822 -24.183 -12.737  0.00  0.00    +0.099 C 
ATOM      5  C   UNK     1      36.601 -23.692 -14.428  0.00  0.00    +0.115 C 
ENDROOT
BRANCH   5   6
ATOM      6  C   UNK     1      37.207 -23.178 -15.657  0.00  0.00    +0.061 C 
ATOM      7  C   UNK     1      36.415 -22.382 -16.402  0.00  0.00    -0.010 C 
ATOM      8  C   UNK     1      36.788 -21.728 -17.694  0.00  0.00    +0.032 C 
BRANCH   6   9
ATOM      9  N   UNK     1      38.491 -23.556 -15.908  0.00  0.00    -0.356 N 
ATOM     10  H   UNK     1      38.869 -24.345 -15.456  0.00  0.00    +0.142 HD
ATOM     11  H   UNK     1      39.042 -23.042 -16.541  0.00  0.00    +0.142 HD
ENDBRANCH   6   9
ENDBRANCH   5   6
BRANCH   3  13
ATOM     12  O   UNK     1      36.100 -24.172  -9.918  0.00  0.00    -0.248 OA
ATOM     13  C   UNK     1      36.547 -23.783 -10.987  0.00  0.00    +0.337 C 
BRANCH  13  14
ATOM     14  O   UNK     1      37.367 -22.713 -11.126  0.00  0.00    -0.479 OA
ATOM     15  H   UNK     1      38.148 -22.785 -11.641  0.00  0.00    +0.295 HD
ENDBRANCH  13  14
ENDBRANCH   3  13
TORSDOF 4
ENDMDL
MODEL 5
REMARK VINA RESULT:      -6.2      5.799      7.269
REMARK  Name = 5289509
REMARK  4 active torsions:
REMARK  status: ('A' for Active; 'I' for Inactive)
REMARK    1  A    between atoms: C_3  and  C_13
REMARK    2  A    between atoms: C_5  and  C_6
REMARK    3  A    between atoms: C_6  and  N_9
REMARK    4  A    between atoms: C_13  and  O_14
REMARK                            x       y       z     vdW  Elec       q    Type
REMARK                         _______ _______ _______ _____ _____    ______ ____
ROOT
ATOM      1  S   UNK     1      35.045 -24.481 -14.935  0.00  0.00    -0.092 S 
ATOM      2  N   UNK     1      34.187 -23.960 -12.525  0.00  0.00    -0.253 NA
ATOM      3  C   UNK     1      35.662 -23.915 -12.473  0.00  0.00    +0.213 C 
ATOM      4  C   UNK     1      36.250 -24.729 -13.617  0.00  0.00    +0.099 C 
ATOM      5  C   UNK     1      33.811 -24.182 -13.739  0.00  0.00    +0.115 C 
ENDROOT
BRANCH   5   6
ATOM      6  C   UNK     1      32.425 -24.236 -14.206  0.00  0.00    +0.061 C 
ATOM      7  C   UNK     1      32.039 -23.212 -14.990  0.00  0.00    -0.010 C 
ATOM      8  C   UNK     1      30.686 -23.029 -15.599  0.00  0.00    +0.032 C 
BRANCH   6   9
ATOM      9  N   UNK     1      31.687 -25.308 -13.800  0.00  0.00    -0.356 N 
ATOM     10  H   UNK     1      31.955 -26.218 -14.063  0.00  0.00    +0.142 HD
ATOM     11  H   UNK     1      30.888 -25.172 -13.243  0.00  0.00    +0.142 HD
ENDBRANCH   6   9
ENDBRANCH   5   6
BRANCH   3  13
ATOM     12  O   UNK     1      35.301 -25.033 -10.366  0.00  0.00    -0.248 OA
ATOM     13  C   UNK     1      36.059 -24.478 -11.147  0.00  0.00    +0.337 C 
BRANCH  13  14
ATOM     14  O   UNK     1      37.382 -24.288 -10.923  0.00  0.00    -0.479 OA
ATOM     15  H   UNK     1      37.679 -24.013 -10.078  0.00  0.00    +0.295 HD
ENDBRANCH  13  14
ENDBRANCH   3  13
TORSDOF 4
ENDMDL
MODEL 6
REMARK VINA RESULT:      -6.1      5.276      7.263
REMARK  Name = 5289509
REMARK  4 active torsions:
REMARK  status: ('A' for Active; 'I' for Inactive)
REMARK    1  A    between atoms: C_3  and  C_13
REMARK    2  A    between atoms: C_5  and  C_6
REMARK    3  A    between atoms: C_6  and  N_9
REMARK    4  A    between atoms: C_13  and  O_14
REMARK                            x       y       z     vdW  Elec       q    Type
REMARK                         _______ _______ _______ _____ _____    ______ ____
ROOT
ATOM      1  S   UNK     1      36.346 -22.781 -15.230  0.00  0.00    -0.092 S 
ATOM      2  N   UNK     1      35.381 -25.205 -15.322  0.00  0.00    -0.253 NA
ATOM      3  C   UNK     1      36.701 -25.293 -14.664  0.00  0.00    +0.213 C 
ATOM      4  C   UNK     1      37.562 -24.101 -15.056  0.00  0.00    +0.099 C 
ATOM      5  C   UNK     1      35.118 -23.970 -15.580  0.00  0.00    +0.115 C 
ENDROOT
BRANCH   5   6
ATOM      6  C   UNK     1      33.878 -23.469 -16.175  0.00  0.00    +0.061 C 
ATOM      7  C   UNK     1      32.790 -23.533 -15.384  0.00  0.00    -0.010 C 
ATOM      8  C   UNK     1      31.410 -23.087 -15.745  0.00  0.00    +0.032 C 
BRANCH   6   9
ATOM      9  N   UNK     1      33.962 -22.997 -17.451  0.00  0.00    -0.356 N 
ATOM     10  H   UNK     1      34.068 -22.032 -17.613  0.00  0.00    +0.142 HD
ATOM     11  H   UNK     1      33.917 -23.621 -18.211  0.00  0.00    +0.142 HD
ENDBRANCH   6   9
ENDBRANCH   5   6
BRANCH   3  13
ATOM     12  O   UNK     1      38.272 -27.123 -14.582  0.00  0.00    -0.248 OA
ATOM     13  C   UNK     1      37.317 -26.578 -15.115  0.00  0.00    +0.337 C 
BRANCH  13  14
ATOM     14  O   UNK     1      36.672 -27.062 -16.204  0.00  0.00    -0.479 OA
ATOM     15  H   UNK     1      36.851 -26.704 -17.052  0.00  0.00    +0.295 HD
ENDBRANCH  13  14
ENDBRANCH   3  13
TORSDOF 4
ENDMDL
MODEL 7
REMARK VINA RESULT:      -6.1      8.238      9.205
REMARK  Name = 5289509
REMARK  4 active torsions:
REMARK  status: ('A' for Active; 'I' for Inactive)
REMARK    1  A    between atoms: C_3  and  C_13
REMARK    2  A    between atoms: C_5  and  C_6
REMARK    3  A    between atoms: C_6  and  N_9
REMARK    4  A    between atoms: C_13  and  O_14
REMARK                            x       y       z     vdW  Elec       q    Type
REMARK                         _______ _______ _______ _____ _____    ______ ____
ROOT
ATOM      1  S   UNK     1      35.019 -18.557 -23.221  0.00  0.00    -0.092 S 
ATOM      2  N   UNK     1      34.261 -17.238 -21.100  0.00  0.00    -0.253 NA
ATOM      3  C   UNK     1      34.199 -16.295 -22.236  0.00  0.00    +0.213 C 
ATOM      4  C   UNK     1      35.122 -16.762 -23.353  0.00  0.00    +0.099 C 
ATOM      5  C   UNK     1      34.609 -18.402 -21.533  0.00  0.00    +0.115 C 
ENDROOT
BRANCH   5   6
ATOM      6  C   UNK     1      34.723 -19.614 -20.721  0.00  0.00    +0.061 C 
ATOM      7  C   UNK     1      33.560 -20.236 -20.447  0.00  0.00    -0.010 C 
ATOM      8  C   UNK     1      33.398 -21.488 -19.645  0.00  0.00    +0.032 C 
BRANCH   6   9
ATOM      9  N   UNK     1      35.979 -19.975 -20.338  0.00  0.00    -0.356 N 
ATOM     10  H   UNK     1      36.248 -20.922 -20.360  0.00  0.00    +0.142 HD
ATOM     11  H   UNK     1      36.619 -19.290 -20.039  0.00  0.00    +0.142 HD
ENDBRANCH   6   9
ENDBRANCH   5   6
BRANCH   3  13
ATOM     12  O   UNK     1      34.845 -14.714 -20.532  0.00  0.00    -0.248 OA
ATOM     13  C   UNK     1      34.620 -14.963 -21.707  0.00  0.00    +0.337 C 
BRANCH  13  14
ATOM     14  O   UNK     1      34.716 -14.058 -22.711  0.00  0.00    -0.479 OA
ATOM     15  H   UNK     1      35.189 -14.272 -23.492  0.00  0.00    +0.295 HD
ENDBRANCH  13  14
ENDBRANCH   3  13
TORSDOF 4
ENDMDL
MODEL 8
REMARK VINA RESULT:      -6.0      7.040      8.077
REMARK  Name = 5289509
REMARK  4 active torsions:
REMARK  status: ('A' for Active; 'I' for Inactive)
REMARK    1  A    between atoms: C_3  and  C_13
REMARK    2  A    between atoms: C_5  and  C_6
REMARK    3  A    between atoms: C_6  and  N_9
REMARK    4  A    between atoms: C_13  and  O_14
REMARK                            x       y       z     vdW  Elec       q    Type
REMARK                         _______ _______ _______ _____ _____    ______ ____
ROOT
ATOM      1  S   UNK     1      36.183 -25.361 -14.934  0.00  0.00    -0.092 S 
ATOM      2  N   UNK     1      37.412 -23.201 -14.136  0.00  0.00    -0.253 NA
ATOM      3  C   UNK     1      37.811 -24.286 -13.216  0.00  0.00    +0.213 C 
ATOM      4  C   UNK     1      36.767 -25.393 -13.229  0.00  0.00    +0.099 C 
ATOM      5  C   UNK     1      36.643 -23.683 -15.052  0.00  0.00    +0.115 C 
ENDROOT
BRANCH   5   6
ATOM      6  C   UNK     1      36.089 -22.934 -16.181  0.00  0.00    +0.061 C 
ATOM      7  C   UNK     1      36.988 -22.263 -16.926  0.00  0.00    -0.010 C 
ATOM      8  C   UNK     1      36.688 -21.428 -18.130  0.00  0.00    +0.032 C 
BRANCH   6   9
ATOM      9  N   UNK     1      34.738 -22.999 -16.351  0.00  0.00    -0.356 N 
ATOM     10  H   UNK     1      34.328 -22.639 -17.170  0.00  0.00    +0.142 HD
ATOM     11  H   UNK     1      34.173 -23.405 -15.656  0.00  0.00    +0.142 HD
ENDBRANCH   6   9
ENDBRANCH   5   6
BRANCH   3  13
ATOM     12  O   UNK     1      38.429 -22.579 -11.627  0.00  0.00    -0.248 OA
ATOM     13  C   UNK     1      37.933 -23.671 -11.860  0.00  0.00    +0.337 C 
BRANCH  13  14
ATOM     14  O   UNK     1      37.420 -24.494 -10.914  0.00  0.00    -0.479 OA
ATOM     15  H   UNK     1      37.985 -25.067 -10.434  0.00  0.00    +0.295 HD
ENDBRANCH  13  14
ENDBRANCH   3  13
TORSDOF 4
ENDMDL
MODEL 9
REMARK VINA RESULT:      -6.0     10.259     11.240
REMARK  Name = 5289509
REMARK  4 active torsions:
REMARK  status: ('A' for Active; 'I' for Inactive)
REMARK    1  A    between atoms: C_3  and  C_13
REMARK    2  A    between atoms: C_5  and  C_6
REMARK    3  A    between atoms: C_6  and  N_9
REMARK    4  A    between atoms: C_13  and  O_14
REMARK                            x       y       z     vdW  Elec       q    Type
REMARK                         _______ _______ _______ _____ _____    ______ ____
ROOT
ATOM      1  S   UNK     1      34.537 -17.618 -24.929  0.00  0.00    -0.092 S 
ATOM      2  N   UNK     1      35.010 -16.225 -22.773  0.00  0.00    -0.253 NA
ATOM      3  C   UNK     1      35.638 -17.547 -22.575  0.00  0.00    +0.213 C 
ATOM      4  C   UNK     1      34.970 -18.583 -23.469  0.00  0.00    +0.099 C 
ATOM      5  C   UNK     1      34.491 -16.174 -23.952  0.00  0.00    +0.115 C 
ENDROOT
BRANCH   5   6
ATOM      6  C   UNK     1      33.830 -15.010 -24.544  0.00  0.00    +0.061 C 
ATOM      7  C   UNK     1      33.391 -15.174 -25.806  0.00  0.00    -0.010 C 
ATOM      8  C   UNK     1      32.684 -14.148 -26.634  0.00  0.00    +0.032 C 
BRANCH   6   9
ATOM      9  N   UNK     1      33.735 -13.900 -23.758  0.00  0.00    -0.356 N 
ATOM     10  H   UNK     1      32.852 -13.583 -23.461  0.00  0.00    +0.142 HD
ATOM     11  H   UNK     1      34.548 -13.416 -23.489  0.00  0.00    +0.142 HD
ENDBRANCH   6   9
ENDBRANCH   5   6
BRANCH   3  13
ATOM     12  O   UNK     1      35.537 -19.014 -20.662  0.00  0.00    -0.248 OA
ATOM     13  C   UNK     1      35.469 -17.888 -21.130  0.00  0.00    +0.337 C 
BRANCH  13  14
ATOM     14  O   UNK     1      35.223 -16.772 -20.402  0.00  0.00    -0.479 OA
ATOM     15  H   UNK     1      35.547 -15.942 -20.692  0.00  0.00    +0.295 HD
ENDBRANCH  13  14
ENDBRANCH   3  13
TORSDOF 4
ENDMDL
