MODEL 1
REMARK VINA RESULT:      -8.5      0.000      0.000
REMARK  Name = 72443
REMARK  5 active torsions:
REMARK  status: ('A' for Active; 'I' for Inactive)
REMARK    1  A    between atoms: C_2  and  O_18
REMARK    2  A    between atoms: C_3  and  C_11
REMARK    3  A    between atoms: C_4  and  O_20
REMARK    4  A    between atoms: C_5  and  C_22
REMARK    5  A    between atoms: C_22  and  O_23
REMARK                            x       y       z     vdW  Elec       q    Type
REMARK                         _______ _______ _______ _____ _____    ______ ____
ROOT
ATOM      1  O   UNL     1      37.696 -23.528 -13.798  0.00  0.00    -0.345 OA
ATOM      2  C   UNL     1      35.998 -24.909 -12.898  0.00  0.00    +0.173 C 
ATOM      3  C   UNL     1      36.276 -23.562 -13.548  0.00  0.00    +0.185 C 
ATOM      4  C   UNL     1      37.271 -25.149 -12.107  0.00  0.00    +0.170 C 
ATOM      5  C   UNL     1      38.341 -24.562 -13.021  0.00  0.00    +0.174 C 
ENDROOT
BRANCH   3  11
ATOM      6  O   UNL     1      32.846 -22.776 -18.477  0.00  0.00    -0.221 OA
ATOM      7  N   UNL     1      36.192 -23.151 -16.034  0.00  0.00    -0.275 N 
ATOM      8  N   UNL     1      33.100 -23.441 -14.440  0.00  0.00    -0.309 N 
ATOM      9  N   UNL     1      35.370 -22.983 -17.095  0.00  0.00    -0.160 NA
ATOM     10  N   UNL     1      31.776 -23.120 -16.453  0.00  0.00    -0.179 NA
ATOM     11  C   UNL     1      35.541 -23.353 -14.848  0.00  0.00    +0.096 A 
ATOM     12  C   UNL     1      34.219 -23.310 -15.169  0.00  0.00    +0.092 A 
ATOM     13  C   UNL     1      34.155 -23.082 -16.551  0.00  0.00    +0.197 A 
ATOM     14  C   UNL     1      32.896 -22.975 -17.269  0.00  0.00    +0.173 C 
ATOM     15  C   UNL     1      31.937 -23.329 -15.177  0.00  0.00    +0.229 C 
ATOM     16  H   UNL     1      37.174 -23.132 -16.108  0.00  0.00    +0.189 HD
ATOM     17  H   UNL     1      33.108 -23.601 -13.468  0.00  0.00    +0.149 HD
ENDBRANCH   3  11
BRANCH   2  18
ATOM     18  O   UNL     1      34.843 -24.875 -12.084  0.00  0.00    -0.379 OA
ATOM     19  H   UNL     1      34.984 -25.425 -11.299  0.00  0.00    +0.211 HD
ENDBRANCH   2  18
BRANCH   4  20
ATOM     20  O   UNL     1      37.249 -24.422 -10.879  0.00  0.00    -0.379 OA
ATOM     21  H   UNL     1      38.135 -24.075 -10.693  0.00  0.00    +0.211 HD
ENDBRANCH   4  20
BRANCH   5  22
ATOM     22  C   UNL     1      38.926 -25.588 -13.983  0.00  0.00    +0.169 C 
BRANCH  22  23
ATOM     23  O   UNL     1      38.650 -25.175 -15.310  0.00  0.00    -0.379 OA
ATOM     24  H   UNL     1      38.378 -25.942 -15.838  0.00  0.00    +0.211 HD
ENDBRANCH  22  23
ENDBRANCH   5  22
TORSDOF 5
ENDMDL
MODEL 2
REMARK VINA RESULT:      -8.5      6.080      9.597
REMARK  Name = 72443
REMARK  5 active torsions:
REMARK  status: ('A' for Active; 'I' for Inactive)
REMARK    1  A    between atoms: C_2  and  O_18
REMARK    2  A    between atoms: C_3  and  C_11
REMARK    3  A    between atoms: C_4  and  O_20
REMARK    4  A    between atoms: C_5  and  C_22
REMARK    5  A    between atoms: C_22  and  O_23
REMARK                            x       y       z     vdW  Elec       q    Type
REMARK                         _______ _______ _______ _____ _____    ______ ____
ROOT
ATOM      1  O   UNL     1      34.978 -17.146 -20.748  0.00  0.00    -0.345 OA
ATOM      2  C   UNL     1      34.268 -17.920 -22.869  0.00  0.00    +0.173 C 
ATOM      3  C   UNL     1      35.037 -18.299 -21.612  0.00  0.00    +0.185 C 
ATOM      4  C   UNL     1      34.554 -16.434 -22.980  0.00  0.00    +0.170 C 
ATOM      5  C   UNL     1      34.572 -15.993 -21.520  0.00  0.00    +0.174 C 
ENDROOT
BRANCH   3  11
ATOM      6  O   UNL     1      33.247 -23.163 -18.478  0.00  0.00    -0.221 OA
ATOM      7  N   UNL     1      33.153 -19.862 -21.008  0.00  0.00    -0.275 N 
ATOM      8  N   UNL     1      36.236 -20.561 -19.528  0.00  0.00    -0.309 N 
ATOM      9  N   UNL     1      32.818 -20.954 -20.284  0.00  0.00    -0.160 NA
ATOM     10  N   UNL     1      35.459 -22.506 -18.295  0.00  0.00    -0.179 NA
ATOM     11  C   UNL     1      34.464 -19.490 -20.886  0.00  0.00    +0.096 A 
ATOM     12  C   UNL     1      35.002 -20.400 -20.029  0.00  0.00    +0.092 A 
ATOM     13  C   UNL     1      33.965 -21.279 -19.683  0.00  0.00    +0.197 A 
ATOM     14  C   UNL     1      34.157 -22.398 -18.777  0.00  0.00    +0.173 C 
ATOM     15  C   UNL     1      36.356 -21.640 -18.674  0.00  0.00    +0.229 C 
ATOM     16  H   UNL     1      32.510 -19.377 -21.575  0.00  0.00    +0.189 HD
ATOM     17  H   UNL     1      36.987 -19.963 -19.748  0.00  0.00    +0.149 HD
ENDBRANCH   3  11
BRANCH   2  18
ATOM     18  O   UNL     1      34.708 -18.651 -23.997  0.00  0.00    -0.379 OA
ATOM     19  H   UNL     1      35.587 -19.019 -23.821  0.00  0.00    +0.211 HD
ENDBRANCH   2  18
BRANCH   4  20
ATOM     20  O   UNL     1      35.838 -16.206 -23.558  0.00  0.00    -0.379 OA
ATOM     21  H   UNL     1      36.482 -16.817 -23.168  0.00  0.00    +0.211 HD
ENDBRANCH   4  20
BRANCH   5  22
ATOM     22  C   UNL     1      33.206 -15.540 -21.021  0.00  0.00    +0.169 C 
BRANCH  22  23
ATOM     23  O   UNL     1      32.486 -14.987 -22.108  0.00  0.00    -0.379 OA
ATOM     24  H   UNL     1      31.843 -15.636 -22.433  0.00  0.00    +0.211 HD
ENDBRANCH  22  23
ENDBRANCH   5  22
TORSDOF 5
ENDMDL
MODEL 3
REMARK VINA RESULT:      -8.4      1.017      2.092
REMARK  Name = 72443
REMARK  5 active torsions:
REMARK  status: ('A' for Active; 'I' for Inactive)
REMARK    1  A    between atoms: C_2  and  O_18
REMARK    2  A    between atoms: C_3  and  C_11
REMARK    3  A    between atoms: C_4  and  O_20
REMARK    4  A    between atoms: C_5  and  C_22
REMARK    5  A    between atoms: C_22  and  O_23
REMARK                            x       y       z     vdW  Elec       q    Type
REMARK                         _______ _______ _______ _____ _____    ______ ____
ROOT
ATOM      1  O   UNL     1      37.422 -23.329 -13.858  0.00  0.00    -0.345 OA
ATOM      2  C   UNL     1      35.952 -24.884 -12.846  0.00  0.00    +0.173 C 
ATOM      3  C   UNL     1      36.038 -23.511 -13.495  0.00  0.00    +0.185 C 
ATOM      4  C   UNL     1      37.302 -24.998 -12.162  0.00  0.00    +0.170 C 
ATOM      5  C   UNL     1      38.229 -24.298 -13.151  0.00  0.00    +0.174 C 
ENDROOT
BRANCH   3  11
ATOM      6  O   UNL     1      33.057 -22.729 -18.709  0.00  0.00    -0.221 OA
ATOM      7  N   UNL     1      33.865 -23.736 -14.754  0.00  0.00    -0.275 N 
ATOM      8  N   UNL     1      36.538 -22.410 -16.567  0.00  0.00    -0.309 N 
ATOM      9  N   UNL     1      33.257 -23.535 -15.946  0.00  0.00    -0.160 NA
ATOM     10  N   UNL     1      35.288 -22.118 -18.631  0.00  0.00    -0.179 NA
ATOM     11  C   UNL     1      35.182 -23.369 -14.729  0.00  0.00    +0.096 A 
ATOM     12  C   UNL     1      35.436 -22.906 -15.984  0.00  0.00    +0.092 A 
ATOM     13  C   UNL     1      34.234 -23.024 -16.699  0.00  0.00    +0.197 A 
ATOM     14  C   UNL     1      34.108 -22.624 -18.089  0.00  0.00    +0.173 C 
ATOM     15  C   UNL     1      36.356 -22.048 -17.887  0.00  0.00    +0.229 C 
ATOM     16  H   UNL     1      33.399 -24.111 -13.972  0.00  0.00    +0.189 HD
ATOM     17  H   UNL     1      37.397 -22.314 -16.096  0.00  0.00    +0.149 HD
ENDBRANCH   3  11
BRANCH   2  18
ATOM     18  O   UNL     1      34.869 -24.974 -11.942  0.00  0.00    -0.379 OA
ATOM     19  H   UNL     1      35.208 -25.043 -11.036  0.00  0.00    +0.211 HD
ENDBRANCH   2  18
BRANCH   4  20
ATOM     20  O   UNL     1      37.306 -24.286 -10.926  0.00  0.00    -0.379 OA
ATOM     21  H   UNL     1      36.485 -24.469 -10.444  0.00  0.00    +0.211 HD
ENDBRANCH   4  20
BRANCH   5  22
ATOM     22  C   UNL     1      38.836 -25.252 -14.172  0.00  0.00    +0.169 C 
BRANCH  22  23
ATOM     23  O   UNL     1      38.674 -24.695 -15.464  0.00  0.00    -0.379 OA
ATOM     24  H   UNL     1      37.888 -25.076 -15.885  0.00  0.00    +0.211 HD
ENDBRANCH  22  23
ENDBRANCH   5  22
TORSDOF 5
ENDMDL
MODEL 4
REMARK VINA RESULT:      -8.3      1.930      3.260
REMARK  Name = 72443
REMARK  5 active torsions:
REMARK  status: ('A' for Active; 'I' for Inactive)
REMARK    1  A    between atoms: C_2  and  O_18
REMARK    2  A    between atoms: C_3  and  C_11
REMARK    3  A    between atoms: C_4  and  O_20
REMARK    4  A    between atoms: C_5  and  C_22
REMARK    5  A    between atoms: C_22  and  O_23
REMARK                            x       y       z     vdW  Elec       q    Type
REMARK                         _______ _______ _______ _____ _____    ______ ____
ROOT
ATOM      1  O   UNL     1      35.035 -24.768 -14.480  0.00  0.00    -0.345 OA
ATOM      2  C   UNL     1      36.183 -23.061 -15.651  0.00  0.00    +0.173 C 
ATOM      3  C   UNL     1      35.145 -24.164 -15.785  0.00  0.00    +0.185 C 
ATOM      4  C   UNL     1      37.127 -23.639 -14.612  0.00  0.00    +0.170 C 
ATOM      5  C   UNL     1      36.175 -24.380 -13.680  0.00  0.00    +0.174 C 
ENDROOT
BRANCH   3  11
ATOM      6  O   UNL     1      29.504 -22.323 -17.001  0.00  0.00    -0.221 OA
ATOM      7  N   UNL     1      33.555 -23.152 -17.460  0.00  0.00    -0.275 N 
ATOM      8  N   UNL     1      32.175 -23.960 -14.357  0.00  0.00    -0.309 N 
ATOM      9  N   UNL     1      32.277 -22.760 -17.668  0.00  0.00    -0.160 NA
ATOM     10  N   UNL     1      29.930 -23.206 -14.904  0.00  0.00    -0.179 NA
ATOM     11  C   UNL     1      33.786 -23.669 -16.215  0.00  0.00    +0.096 A 
ATOM     12  C   UNL     1      32.581 -23.605 -15.585  0.00  0.00    +0.092 A 
ATOM     13  C   UNL     1      31.684 -23.043 -16.506  0.00  0.00    +0.197 A 
ATOM     14  C   UNL     1      30.283 -22.815 -16.194  0.00  0.00    +0.173 C 
ATOM     15  C   UNL     1      30.836 -23.719 -14.120  0.00  0.00    +0.229 C 
ATOM     16  H   UNL     1      34.257 -23.072 -18.145  0.00  0.00    +0.189 HD
ATOM     17  H   UNL     1      32.778 -24.356 -13.686  0.00  0.00    +0.149 HD
ENDBRANCH   3  11
BRANCH   2  18
ATOM     18  O   UNL     1      36.822 -22.785 -16.881  0.00  0.00    -0.379 OA
ATOM     19  H   UNL     1      36.971 -23.614 -17.362  0.00  0.00    +0.211 HD
ENDBRANCH   2  18
BRANCH   4  20
ATOM     20  O   UNL     1      38.027 -24.572 -15.208  0.00  0.00    -0.379 OA
ATOM     21  H   UNL     1      37.523 -25.299 -15.605  0.00  0.00    +0.211 HD
ENDBRANCH   4  20
BRANCH   5  22
ATOM     22  C   UNL     1      35.679 -23.515 -12.529  0.00  0.00    +0.169 C 
BRANCH  22  23
ATOM     23  O   UNL     1      34.274 -23.657 -12.427  0.00  0.00    -0.379 OA
ATOM     24  H   UNL     1      33.985 -23.391 -11.540  0.00  0.00    +0.211 HD
ENDBRANCH  22  23
ENDBRANCH   5  22
TORSDOF 5
ENDMDL
MODEL 5
REMARK VINA RESULT:      -8.2      1.628      2.511
REMARK  Name = 72443
REMARK  5 active torsions:
REMARK  status: ('A' for Active; 'I' for Inactive)
REMARK    1  A    between atoms: C_2  and  O_18
REMARK    2  A    between atoms: C_3  and  C_11
REMARK    3  A    between atoms: C_4  and  O_20
REMARK    4  A    between atoms: C_5  and  C_22
REMARK    5  A    between atoms: C_22  and  O_23
REMARK                            x       y       z     vdW  Elec       q    Type
REMARK                         _______ _______ _______ _____ _____    ______ ____
ROOT
ATOM      1  O   UNL     1      35.898 -24.915 -12.611  0.00  0.00    -0.345 OA
ATOM      2  C   UNL     1      37.428 -24.469 -14.361  0.00  0.00    +0.173 C 
ATOM      3  C   UNL     1      36.078 -25.087 -14.031  0.00  0.00    +0.185 C 
ATOM      4  C   UNL     1      38.223 -24.752 -13.099  0.00  0.00    +0.170 C 
ATOM      5  C   UNL     1      37.172 -24.593 -12.006  0.00  0.00    +0.174 C 
ENDROOT
BRANCH   3  11
ATOM      6  O   UNL     1      31.100 -22.742 -16.562  0.00  0.00    -0.221 OA
ATOM      7  N   UNL     1      35.098 -23.654 -15.860  0.00  0.00    -0.275 N 
ATOM      8  N   UNL     1      32.801 -25.050 -13.632  0.00  0.00    -0.309 N 
ATOM      9  N   UNL     1      33.949 -23.162 -16.377  0.00  0.00    -0.160 NA
ATOM     10  N   UNL     1      30.840 -24.082 -14.693  0.00  0.00    -0.179 NA
ATOM     11  C   UNL     1      34.923 -24.442 -14.756  0.00  0.00    +0.096 A 
ATOM     12  C   UNL     1      33.577 -24.456 -14.551  0.00  0.00    +0.092 A 
ATOM     13  C   UNL     1      33.016 -23.662 -15.563  0.00  0.00    +0.197 A 
ATOM     14  C   UNL     1      31.585 -23.436 -15.678  0.00  0.00    +0.173 C 
ATOM     15  C   UNL     1      31.453 -24.799 -13.793  0.00  0.00    +0.229 C 
ATOM     16  H   UNL     1      35.984 -23.462 -16.245  0.00  0.00    +0.189 HD
ATOM     17  H   UNL     1      33.161 -25.613 -12.909  0.00  0.00    +0.149 HD
ENDBRANCH   3  11
BRANCH   2  18
ATOM     18  O   UNL     1      38.005 -25.045 -15.515  0.00  0.00    -0.379 OA
ATOM     19  H   UNL     1      37.649 -25.938 -15.643  0.00  0.00    +0.211 HD
ENDBRANCH   2  18
BRANCH   4  20
ATOM     20  O   UNL     1      38.709 -26.094 -13.096  0.00  0.00    -0.379 OA
ATOM     21  H   UNL     1      37.963 -26.708 -13.012  0.00  0.00    +0.211 HD
ENDBRANCH   4  20
BRANCH   5  22
ATOM     22  C   UNL     1      37.096 -23.174 -11.459  0.00  0.00    +0.169 C 
BRANCH  22  23
ATOM     23  O   UNL     1      38.362 -22.559 -11.616  0.00  0.00    -0.379 OA
ATOM     24  H   UNL     1      38.388 -21.737 -11.102  0.00  0.00    +0.211 HD
ENDBRANCH  22  23
ENDBRANCH   5  22
TORSDOF 5
ENDMDL
MODEL 6
REMARK VINA RESULT:      -8.2      3.484      5.715
REMARK  Name = 72443
REMARK  5 active torsions:
REMARK  status: ('A' for Active; 'I' for Inactive)
REMARK    1  A    between atoms: C_2  and  O_18
REMARK    2  A    between atoms: C_3  and  C_11
REMARK    3  A    between atoms: C_4  and  O_20
REMARK    4  A    between atoms: C_5  and  C_22
REMARK    5  A    between atoms: C_22  and  O_23
REMARK                            x       y       z     vdW  Elec       q    Type
REMARK                         _______ _______ _______ _____ _____    ______ ____
ROOT
ATOM      1  O   UNL     1      30.666 -24.186 -16.108  0.00  0.00    -0.345 OA
ATOM      2  C   UNL     1      31.826 -22.991 -14.427  0.00  0.00    +0.173 C 
ATOM      3  C   UNL     1      31.997 -23.906 -15.630  0.00  0.00    +0.185 C 
ATOM      4  C   UNL     1      30.516 -23.482 -13.839  0.00  0.00    +0.170 C 
ATOM      5  C   UNL     1      29.709 -23.833 -15.084  0.00  0.00    +0.174 C 
ENDROOT
BRANCH   3  11
ATOM      6  O   UNL     1      35.682 -21.476 -19.778  0.00  0.00    -0.221 OA
ATOM      7  N   UNL     1      32.248 -22.952 -17.951  0.00  0.00    -0.275 N 
ATOM      8  N   UNL     1      35.160 -23.045 -16.027  0.00  0.00    -0.309 N 
ATOM      9  N   UNL     1      33.123 -22.414 -18.832  0.00  0.00    -0.160 NA
ATOM     10  N   UNL     1      36.589 -22.064 -17.731  0.00  0.00    -0.179 NA
ATOM     11  C   UNL     1      32.804 -23.293 -16.748  0.00  0.00    +0.096 A 
ATOM     12  C   UNL     1      34.117 -22.955 -16.866  0.00  0.00    +0.092 A 
ATOM     13  C   UNL     1      34.273 -22.421 -18.154  0.00  0.00    +0.197 A 
ATOM     14  C   UNL     1      35.551 -21.941 -18.652  0.00  0.00    +0.173 C 
ATOM     15  C   UNL     1      36.345 -22.574 -16.557  0.00  0.00    +0.229 C 
ATOM     16  H   UNL     1      31.295 -23.085 -18.156  0.00  0.00    +0.189 HD
ATOM     17  H   UNL     1      35.086 -23.415 -15.117  0.00  0.00    +0.149 HD
ENDBRANCH   3  11
BRANCH   2  18
ATOM     18  O   UNL     1      32.909 -23.098 -13.525  0.00  0.00    -0.379 OA
ATOM     19  H   UNL     1      33.724 -23.278 -14.018  0.00  0.00    +0.211 HD
ENDBRANCH   2  18
BRANCH   4  20
ATOM     20  O   UNL     1      30.720 -24.659 -13.060  0.00  0.00    -0.379 OA
ATOM     21  H   UNL     1      29.868 -24.975 -12.720  0.00  0.00    +0.211 HD
ENDBRANCH   4  20
BRANCH   5  22
ATOM     22  C   UNL     1      28.870 -22.669 -15.594  0.00  0.00    +0.169 C 
BRANCH  22  23
ATOM     23  O   UNL     1      29.238 -22.397 -16.934  0.00  0.00    -0.379 OA
ATOM     24  H   UNL     1      28.965 -23.135 -17.501  0.00  0.00    +0.211 HD
ENDBRANCH  22  23
ENDBRANCH   5  22
TORSDOF 5
ENDMDL
MODEL 7
REMARK VINA RESULT:      -8.2      1.688      2.502
REMARK  Name = 72443
REMARK  5 active torsions:
REMARK  status: ('A' for Active; 'I' for Inactive)
REMARK    1  A    between atoms: C_2  and  O_18
REMARK    2  A    between atoms: C_3  and  C_11
REMARK    3  A    between atoms: C_4  and  O_20
REMARK    4  A    between atoms: C_5  and  C_22
REMARK    5  A    between atoms: C_22  and  O_23
REMARK                            x       y       z     vdW  Elec       q    Type
REMARK                         _______ _______ _______ _____ _____    ______ ____
ROOT
ATOM      1  O   UNL     1      36.518 -24.646 -15.417  0.00  0.00    -0.345 OA
ATOM      2  C   UNL     1      36.436 -24.531 -13.054  0.00  0.00    +0.173 C 
ATOM      3  C   UNL     1      36.043 -23.816 -14.337  0.00  0.00    +0.185 C 
ATOM      4  C   UNL     1      37.740 -25.199 -13.449  0.00  0.00    +0.170 C 
ATOM      5  C   UNL     1      37.481 -25.593 -14.900  0.00  0.00    +0.174 C 
ENDROOT
BRANCH   3  11
ATOM      6  O   UNL     1      30.164 -22.927 -15.493  0.00  0.00    -0.221 OA
ATOM      7  N   UNL     1      33.696 -23.678 -13.426  0.00  0.00    -0.275 N 
ATOM      8  N   UNL     1      34.020 -23.173 -16.865  0.00  0.00    -0.309 N 
ATOM      9  N   UNL     1      32.399 -23.470 -13.751  0.00  0.00    -0.160 NA
ATOM     10  N   UNL     1      31.648 -22.823 -17.267  0.00  0.00    -0.179 NA
ATOM     11  C   UNL     1      34.556 -23.614 -14.488  0.00  0.00    +0.096 A 
ATOM     12  C   UNL     1      33.761 -23.349 -15.561  0.00  0.00    +0.092 A 
ATOM     13  C   UNL     1      32.449 -23.269 -15.070  0.00  0.00    +0.197 A 
ATOM     14  C   UNL     1      31.308 -22.995 -15.927  0.00  0.00    +0.173 C 
ATOM     15  C   UNL     1      32.897 -22.917 -17.628  0.00  0.00    +0.229 C 
ATOM     16  H   UNL     1      33.995 -23.859 -12.506  0.00  0.00    +0.189 HD
ATOM     17  H   UNL     1      34.927 -23.223 -17.244  0.00  0.00    +0.149 HD
ENDBRANCH   3  11
BRANCH   2  18
ATOM     18  O   UNL     1      36.584 -23.632 -11.973  0.00  0.00    -0.379 OA
ATOM     19  H   UNL     1      37.526 -23.446 -11.834  0.00  0.00    +0.211 HD
ENDBRANCH   2  18
BRANCH   4  20
ATOM     20  O   UNL     1      38.822 -24.269 -13.399  0.00  0.00    -0.379 OA
ATOM     21  H   UNL     1      38.635 -23.591 -12.732  0.00  0.00    +0.211 HD
ENDBRANCH   4  20
BRANCH   5  22
ATOM     22  C   UNL     1      36.897 -26.993 -15.038  0.00  0.00    +0.169 C 
BRANCH  22  23
ATOM     23  O   UNL     1      36.796 -27.308 -16.415  0.00  0.00    -0.379 OA
ATOM     24  H   UNL     1      36.891 -26.498 -16.941  0.00  0.00    +0.211 HD
ENDBRANCH  22  23
ENDBRANCH   5  22
TORSDOF 5
ENDMDL
MODEL 8
REMARK VINA RESULT:      -8.1      1.783      2.173
REMARK  Name = 72443
REMARK  5 active torsions:
REMARK  status: ('A' for Active; 'I' for Inactive)
REMARK    1  A    between atoms: C_2  and  O_18
REMARK    2  A    between atoms: C_3  and  C_11
REMARK    3  A    between atoms: C_4  and  O_20
REMARK    4  A    between atoms: C_5  and  C_22
REMARK    5  A    between atoms: C_22  and  O_23
REMARK                            x       y       z     vdW  Elec       q    Type
REMARK                         _______ _______ _______ _____ _____    ______ ____
ROOT
ATOM      1  O   UNL     1      36.429 -24.509 -15.759  0.00  0.00    -0.345 OA
ATOM      2  C   UNL     1      35.658 -24.166 -13.547  0.00  0.00    +0.173 C 
ATOM      3  C   UNL     1      35.676 -23.581 -14.951  0.00  0.00    +0.185 C 
ATOM      4  C   UNL     1      37.004 -24.861 -13.475  0.00  0.00    +0.170 C 
ATOM      5  C   UNL     1      37.175 -25.395 -14.893  0.00  0.00    +0.174 C 
ENDROOT
BRANCH   3  11
ATOM      6  O   UNL     1      29.965 -22.883 -16.843  0.00  0.00    -0.221 OA
ATOM      7  N   UNL     1      34.105 -23.297 -16.902  0.00  0.00    -0.275 N 
ATOM      8  N   UNL     1      32.612 -23.347 -13.747  0.00  0.00    -0.309 N 
ATOM      9  N   UNL     1      32.809 -23.144 -17.259  0.00  0.00    -0.160 NA
ATOM     10  N   UNL     1      30.340 -23.067 -14.566  0.00  0.00    -0.179 NA
ATOM     11  C   UNL     1      34.305 -23.403 -15.553  0.00  0.00    +0.096 A 
ATOM     12  C   UNL     1      33.059 -23.311 -15.011  0.00  0.00    +0.092 A 
ATOM     13  C   UNL     1      32.171 -23.153 -16.085  0.00  0.00    +0.197 A 
ATOM     14  C   UNL     1      30.737 -23.021 -15.902  0.00  0.00    +0.173 C 
ATOM     15  C   UNL     1      31.241 -23.217 -13.636  0.00  0.00    +0.229 C 
ATOM     16  H   UNL     1      34.840 -23.330 -17.556  0.00  0.00    +0.189 HD
ATOM     17  H   UNL     1      33.206 -23.456 -12.969  0.00  0.00    +0.149 HD
ENDBRANCH   3  11
BRANCH   2  18
ATOM     18  O   UNL     1      35.501 -23.167 -12.560  0.00  0.00    -0.379 OA
ATOM     19  H   UNL     1      36.363 -22.962 -12.168  0.00  0.00    +0.211 HD
ENDBRANCH   2  18
BRANCH   4  20
ATOM     20  O   UNL     1      38.044 -23.925 -13.195  0.00  0.00    -0.379 OA
ATOM     21  H   UNL     1      37.684 -23.187 -12.679  0.00  0.00    +0.211 HD
ENDBRANCH   4  20
BRANCH   5  22
ATOM     22  C   UNL     1      36.626 -26.805 -15.066  0.00  0.00    +0.169 C 
BRANCH  22  23
ATOM     23  O   UNL     1      36.891 -27.237 -16.389  0.00  0.00    -0.379 OA
ATOM     24  H   UNL     1      37.137 -26.474 -16.935  0.00  0.00    +0.211 HD
ENDBRANCH  22  23
ENDBRANCH   5  22
TORSDOF 5
ENDMDL
MODEL 9
REMARK VINA RESULT:      -8.0      2.040      5.664
REMARK  Name = 72443
REMARK  5 active torsions:
REMARK  status: ('A' for Active; 'I' for Inactive)
REMARK    1  A    between atoms: C_2  and  O_18
REMARK    2  A    between atoms: C_3  and  C_11
REMARK    3  A    between atoms: C_4  and  O_20
REMARK    4  A    between atoms: C_5  and  C_22
REMARK    5  A    between atoms: C_22  and  O_23
REMARK                            x       y       z     vdW  Elec       q    Type
REMARK                         _______ _______ _______ _____ _____    ______ ____
ROOT
ATOM      1  O   UNL     1      32.958 -23.004 -14.347  0.00  0.00    -0.345 OA
ATOM      2  C   UNL     1      33.595 -23.774 -16.493  0.00  0.00    +0.173 C 
ATOM      3  C   UNL     1      33.977 -22.840 -15.355  0.00  0.00    +0.185 C 
ATOM      4  C   UNL     1      32.079 -23.746 -16.432  0.00  0.00    +0.170 C 
ATOM      5  C   UNL     1      31.812 -23.663 -14.933  0.00  0.00    +0.174 C 
ENDROOT
BRANCH   3  11
ATOM      6  O   UNL     1      39.118 -24.144 -12.431  0.00  0.00    -0.221 OA
ATOM      7  N   UNL     1      36.484 -23.081 -15.471  0.00  0.00    -0.275 N 
ATOM      8  N   UNL     1      35.041 -23.723 -12.357  0.00  0.00    -0.309 N 
ATOM      9  N   UNL     1      37.595 -23.382 -14.760  0.00  0.00    -0.160 NA
ATOM     10  N   UNL     1      37.137 -24.235 -11.237  0.00  0.00    -0.179 NA
ATOM     11  C   UNL     1      35.324 -23.141 -14.748  0.00  0.00    +0.096 A 
ATOM     12  C   UNL     1      35.716 -23.505 -13.496  0.00  0.00    +0.092 A 
ATOM     13  C   UNL     1      37.111 -23.643 -13.543  0.00  0.00    +0.197 A 
ATOM     14  C   UNL     1      37.900 -24.024 -12.384  0.00  0.00    +0.173 C 
ATOM     15  C   UNL     1      35.843 -24.082 -11.292  0.00  0.00    +0.229 C 
ATOM     16  H   UNL     1      36.508 -22.838 -16.424  0.00  0.00    +0.189 HD
ATOM     17  H   UNL     1      34.062 -23.636 -12.288  0.00  0.00    +0.149 HD
ENDBRANCH   3  11
BRANCH   2  18
ATOM     18  O   UNL     1      34.104 -23.330 -17.734  0.00  0.00    -0.379 OA
ATOM     19  H   UNL     1      34.132 -22.361 -17.744  0.00  0.00    +0.211 HD
ENDBRANCH   2  18
BRANCH   4  20
ATOM     20  O   UNL     1      31.568 -22.576 -17.068  0.00  0.00    -0.379 OA
ATOM     21  H   UNL     1      30.931 -22.140 -16.481  0.00  0.00    +0.211 HD
ENDBRANCH   4  20
BRANCH   5  22
ATOM     22  C   UNL     1      31.662 -25.031 -14.281  0.00  0.00    +0.169 C 
BRANCH  22  23
ATOM     23  O   UNL     1      32.501 -25.085 -13.140  0.00  0.00    -0.379 OA
ATOM     24  H   UNL     1      33.095 -25.848 -13.211  0.00  0.00    +0.211 HD
ENDBRANCH  22  23
ENDBRANCH   5  22
TORSDOF 5
ENDMDL
