MODEL 1
REMARK VINA RESULT:      -4.1      0.000      0.000
REMARK  Name = 2146
REMARK  2 active torsions:
REMARK  status: ('A' for Active; 'I' for Inactive)
REMARK    1  A    between atoms: N_3  and  C_4
REMARK    2  A    between atoms: N_3  and  N_9
REMARK                            x       y       z     vdW  Elec       q    Type
REMARK                         _______ _______ _______ _____ _____    ______ ____
ROOT
ATOM      1  N   UNL     1      38.232 -25.578 -15.059  0.00  0.00    -0.369 N 
ATOM      2  N   UNL     1      37.149 -27.016 -13.656  0.00  0.00    -0.369 N 
ATOM      3  C   UNL     1      37.183 -26.460 -14.913  0.00  0.00    +0.205 C 
ATOM      4  H   UNL     1      38.848 -25.416 -14.308  0.00  0.00    +0.159 HD
ATOM      5  H   UNL     1      38.365 -25.108 -15.913  0.00  0.00    +0.159 HD
ATOM      6  H   UNL     1      37.830 -26.768 -12.989  0.00  0.00    +0.159 HD
ATOM      7  H   UNL     1      36.443 -27.662 -13.422  0.00  0.00    +0.159 HD
ENDROOT
BRANCH   3   8
ATOM      8  N   UNL     1      36.285 -26.781 -15.808  0.00  0.00    -0.168 NA
BRANCH   8   9
ATOM      9  N   UNL     1      36.720 -27.628 -16.762  0.00  0.00    -0.223 NA
ATOM     10  H   UNL     1      37.340 -27.310 -17.456  0.00  0.00    +0.145 HD
ATOM     11  H   UNL     1      36.417 -28.565 -16.763  0.00  0.00    +0.145 HD
ENDBRANCH   8   9
ENDBRANCH   3   8
TORSDOF 2
ENDMDL
MODEL 2
REMARK VINA RESULT:      -3.9      2.797      3.519
REMARK  Name = 2146
REMARK  2 active torsions:
REMARK  status: ('A' for Active; 'I' for Inactive)
REMARK    1  A    between atoms: N_3  and  C_4
REMARK    2  A    between atoms: N_3  and  N_9
REMARK                            x       y       z     vdW  Elec       q    Type
REMARK                         _______ _______ _______ _____ _____    ______ ____
ROOT
ATOM      1  N   UNL     1      38.882 -24.626 -15.413  0.00  0.00    -0.369 N 
ATOM      2  N   UNL     1      38.905 -26.038 -13.620  0.00  0.00    -0.369 N 
ATOM      3  C   UNL     1      39.587 -25.591 -14.726  0.00  0.00    +0.205 C 
ATOM      4  H   UNL     1      37.999 -24.337 -15.088  0.00  0.00    +0.159 HD
ATOM      5  H   UNL     1      39.261 -24.227 -16.229  0.00  0.00    +0.159 HD
ATOM      6  H   UNL     1      38.020 -25.664 -13.402  0.00  0.00    +0.159 HD
ATOM      7  H   UNL     1      39.300 -26.732 -13.044  0.00  0.00    +0.159 HD
ENDROOT
BRANCH   3   8
ATOM      8  N   UNL     1      40.763 -26.080 -15.026  0.00  0.00    -0.168 NA
BRANCH   8   9
ATOM      9  N   UNL     1      41.297 -26.877 -14.079  0.00  0.00    -0.223 NA
ATOM     10  H   UNL     1      40.743 -27.185 -13.325  0.00  0.00    +0.145 HD
ATOM     11  H   UNL     1      42.240 -27.151 -14.142  0.00  0.00    +0.145 HD
ENDBRANCH   8   9
ENDBRANCH   3   8
TORSDOF 2
ENDMDL
MODEL 3
REMARK VINA RESULT:      -3.8      1.064      2.186
REMARK  Name = 2146
REMARK  2 active torsions:
REMARK  status: ('A' for Active; 'I' for Inactive)
REMARK    1  A    between atoms: N_3  and  C_4
REMARK    2  A    between atoms: N_3  and  N_9
REMARK                            x       y       z     vdW  Elec       q    Type
REMARK                         _______ _______ _______ _____ _____    ______ ____
ROOT
ATOM      1  N   UNL     1      36.149 -26.895 -15.190  0.00  0.00    -0.369 N 
ATOM      2  N   UNL     1      36.930 -26.501 -13.082  0.00  0.00    -0.369 N 
ATOM      3  C   UNL     1      37.262 -26.796 -14.383  0.00  0.00    +0.205 C 
ATOM      4  H   UNL     1      35.251 -26.754 -14.810  0.00  0.00    +0.159 HD
ATOM      5  H   UNL     1      36.251 -27.107 -16.145  0.00  0.00    +0.159 HD
ATOM      6  H   UNL     1      35.985 -26.384 -12.829  0.00  0.00    +0.159 HD
ATOM      7  H   UNL     1      37.637 -26.407 -12.403  0.00  0.00    +0.159 HD
ENDROOT
BRANCH   3   8
ATOM      8  N   UNL     1      38.512 -26.954 -14.732  0.00  0.00    -0.168 NA
BRANCH   8   9
ATOM      9  N   UNL     1      39.068 -25.881 -15.331  0.00  0.00    -0.223 NA
ATOM     10  H   UNL     1      39.687 -25.303 -14.829  0.00  0.00    +0.145 HD
ATOM     11  H   UNL     1      38.853 -25.676 -16.269  0.00  0.00    +0.145 HD
ENDBRANCH   8   9
ENDBRANCH   3   8
TORSDOF 2
ENDMDL
MODEL 4
REMARK VINA RESULT:      -3.8      3.880      5.040
REMARK  Name = 2146
REMARK  2 active torsions:
REMARK  status: ('A' for Active; 'I' for Inactive)
REMARK    1  A    between atoms: N_3  and  C_4
REMARK    2  A    between atoms: N_3  and  N_9
REMARK                            x       y       z     vdW  Elec       q    Type
REMARK                         _______ _______ _______ _____ _____    ______ ____
ROOT
ATOM      1  N   UNL     1      35.670 -23.334 -12.367  0.00  0.00    -0.369 N 
ATOM      2  N   UNL     1      36.165 -25.489 -12.930  0.00  0.00    -0.369 N 
ATOM      3  C   UNL     1      35.693 -24.647 -11.951  0.00  0.00    +0.205 C 
ATOM      4  H   UNL     1      35.968 -23.099 -13.276  0.00  0.00    +0.159 HD
ATOM      5  H   UNL     1      35.356 -22.629 -11.756  0.00  0.00    +0.159 HD
ATOM      6  H   UNL     1      36.434 -25.126 -13.805  0.00  0.00    +0.159 HD
ATOM      7  H   UNL     1      36.235 -26.456 -12.756  0.00  0.00    +0.159 HD
ENDROOT
BRANCH   3   8
ATOM      8  N   UNL     1      35.333 -25.118 -10.785  0.00  0.00    -0.168 NA
BRANCH   8   9
ATOM      9  N   UNL     1      35.687 -24.349  -9.736  0.00  0.00    -0.223 NA
ATOM     10  H   UNL     1      35.477 -24.640  -8.819  0.00  0.00    +0.145 HD
ATOM     11  H   UNL     1      36.155 -23.496  -9.887  0.00  0.00    +0.145 HD
ENDBRANCH   8   9
ENDBRANCH   3   8
TORSDOF 2
ENDMDL
MODEL 5
REMARK VINA RESULT:      -3.7     12.017     13.119
REMARK  Name = 2146
REMARK  2 active torsions:
REMARK  status: ('A' for Active; 'I' for Inactive)
REMARK    1  A    between atoms: N_3  and  C_4
REMARK    2  A    between atoms: N_3  and  N_9
REMARK                            x       y       z     vdW  Elec       q    Type
REMARK                         _______ _______ _______ _____ _____    ______ ____
ROOT
ATOM      1  N   UNL     1      41.706 -13.193 -15.583  0.00  0.00    -0.369 N 
ATOM      2  N   UNL     1      40.496 -13.001 -13.658  0.00  0.00    -0.369 N 
ATOM      3  C   UNL     1      41.010 -13.861 -14.599  0.00  0.00    +0.205 C 
ATOM      4  H   UNL     1      41.787 -12.212 -15.550  0.00  0.00    +0.159 HD
ATOM      5  H   UNL     1      42.121 -13.696 -16.320  0.00  0.00    +0.159 HD
ATOM      6  H   UNL     1      40.649 -12.032 -13.740  0.00  0.00    +0.159 HD
ATOM      7  H   UNL     1      39.973 -13.354 -12.901  0.00  0.00    +0.159 HD
ENDROOT
BRANCH   3   8
ATOM      8  N   UNL     1      40.814 -15.151 -14.501  0.00  0.00    -0.168 NA
BRANCH   8   9
ATOM      9  N   UNL     1      40.483 -15.758 -15.658  0.00  0.00    -0.223 NA
ATOM     10  H   UNL     1      40.336 -16.731 -15.679  0.00  0.00    +0.145 HD
ATOM     11  H   UNL     1      40.390 -15.228 -16.482  0.00  0.00    +0.145 HD
ENDBRANCH   8   9
ENDBRANCH   3   8
TORSDOF 2
ENDMDL
MODEL 6
REMARK VINA RESULT:      -3.6     12.580     13.696
REMARK  Name = 2146
REMARK  2 active torsions:
REMARK  status: ('A' for Active; 'I' for Inactive)
REMARK    1  A    between atoms: N_3  and  C_4
REMARK    2  A    between atoms: N_3  and  N_9
REMARK                            x       y       z     vdW  Elec       q    Type
REMARK                         _______ _______ _______ _____ _____    ______ ____
ROOT
ATOM      1  N   UNL     1      42.028 -13.001 -15.653  0.00  0.00    -0.369 N 
ATOM      2  N   UNL     1      41.208 -15.128 -15.746  0.00  0.00    -0.369 N 
ATOM      3  C   UNL     1      41.160 -13.916 -15.099  0.00  0.00    +0.205 C 
ATOM      4  H   UNL     1      42.585 -13.254 -16.425  0.00  0.00    +0.159 HD
ATOM      5  H   UNL     1      42.092 -12.093 -15.277  0.00  0.00    +0.159 HD
ATOM      6  H   UNL     1      41.814 -15.254 -16.513  0.00  0.00    +0.159 HD
ATOM      7  H   UNL     1      40.636 -15.871 -15.444  0.00  0.00    +0.159 HD
ENDROOT
BRANCH   3   8
ATOM      8  N   UNL     1      40.359 -13.737 -14.081  0.00  0.00    -0.168 NA
BRANCH   8   9
ATOM      9  N   UNL     1      40.950 -13.216 -12.987  0.00  0.00    -0.223 NA
ATOM     10  H   UNL     1      41.905 -13.383 -12.817  0.00  0.00    +0.145 HD
ATOM     11  H   UNL     1      40.426 -12.669 -12.358  0.00  0.00    +0.145 HD
ENDBRANCH   8   9
ENDBRANCH   3   8
TORSDOF 2
ENDMDL
MODEL 7
REMARK VINA RESULT:      -3.6      1.601      2.044
REMARK  Name = 2146
REMARK  2 active torsions:
REMARK  status: ('A' for Active; 'I' for Inactive)
REMARK    1  A    between atoms: N_3  and  C_4
REMARK    2  A    between atoms: N_3  and  N_9
REMARK                            x       y       z     vdW  Elec       q    Type
REMARK                         _______ _______ _______ _____ _____    ______ ____
ROOT
ATOM      1  N   UNL     1      38.883 -24.725 -15.225  0.00  0.00    -0.369 N 
ATOM      2  N   UNL     1      40.151 -26.147 -13.970  0.00  0.00    -0.369 N 
ATOM      3  C   UNL     1      38.977 -25.981 -14.666  0.00  0.00    +0.205 C 
ATOM      4  H   UNL     1      39.613 -24.074 -15.103  0.00  0.00    +0.159 HD
ATOM      5  H   UNL     1      38.087 -24.477 -15.747  0.00  0.00    +0.159 HD
ATOM      6  H   UNL     1      40.805 -25.412 -13.922  0.00  0.00    +0.159 HD
ATOM      7  H   UNL     1      40.339 -27.002 -13.518  0.00  0.00    +0.159 HD
ENDROOT
BRANCH   3   8
ATOM      8  N   UNL     1      38.102 -26.949 -14.736  0.00  0.00    -0.168 NA
BRANCH   8   9
ATOM      9  N   UNL     1      37.241 -26.854 -15.769  0.00  0.00    -0.223 NA
ATOM     10  H   UNL     1      37.160 -26.008 -16.265  0.00  0.00    +0.145 HD
ATOM     11  H   UNL     1      36.694 -27.631 -16.027  0.00  0.00    +0.145 HD
ENDBRANCH   8   9
ENDBRANCH   3   8
TORSDOF 2
ENDMDL
MODEL 8
REMARK VINA RESULT:      -3.5      2.821      4.124
REMARK  Name = 2146
REMARK  2 active torsions:
REMARK  status: ('A' for Active; 'I' for Inactive)
REMARK    1  A    between atoms: N_3  and  C_4
REMARK    2  A    between atoms: N_3  and  N_9
REMARK                            x       y       z     vdW  Elec       q    Type
REMARK                         _______ _______ _______ _____ _____    ______ ____
ROOT
ATOM      1  N   UNL     1      39.055 -25.833 -13.208  0.00  0.00    -0.369 N 
ATOM      2  N   UNL     1      36.821 -26.160 -12.877  0.00  0.00    -0.369 N 
ATOM      3  C   UNL     1      37.943 -25.473 -12.478  0.00  0.00    +0.205 C 
ATOM      4  H   UNL     1      38.979 -26.508 -13.921  0.00  0.00    +0.159 HD
ATOM      5  H   UNL     1      39.926 -25.415 -13.017  0.00  0.00    +0.159 HD
ATOM      6  H   UNL     1      36.879 -26.816 -13.610  0.00  0.00    +0.159 HD
ATOM      7  H   UNL     1      35.959 -25.996 -12.430  0.00  0.00    +0.159 HD
ENDROOT
BRANCH   3   8
ATOM      8  N   UNL     1      37.879 -24.600 -11.506  0.00  0.00    -0.168 NA
BRANCH   8   9
ATOM      9  N   UNL     1      38.575 -23.466 -11.724  0.00  0.00    -0.223 NA
ATOM     10  H   UNL     1      39.056 -23.340 -12.573  0.00  0.00    +0.145 HD
ATOM     11  H   UNL     1      38.603 -22.766 -11.033  0.00  0.00    +0.145 HD
ENDBRANCH   8   9
ENDBRANCH   3   8
TORSDOF 2
ENDMDL
MODEL 9
REMARK VINA RESULT:      -3.5     21.948     22.702
REMARK  Name = 2146
REMARK  2 active torsions:
REMARK  status: ('A' for Active; 'I' for Inactive)
REMARK    1  A    between atoms: N_3  and  C_4
REMARK    2  A    between atoms: N_3  and  N_9
REMARK                            x       y       z     vdW  Elec       q    Type
REMARK                         _______ _______ _______ _____ _____    ______ ____
ROOT
ATOM      1  N   UNL     1      36.446  -3.686 -10.433  0.00  0.00    -0.369 N 
ATOM      2  N   UNL     1      38.613  -4.404 -10.450  0.00  0.00    -0.369 N 
ATOM      3  C   UNL     1      37.380  -4.514  -9.850  0.00  0.00    +0.205 C 
ATOM      4  H   UNL     1      36.702  -3.112 -11.192  0.00  0.00    +0.159 HD
ATOM      5  H   UNL     1      35.523  -3.668 -10.092  0.00  0.00    +0.159 HD
ATOM      6  H   UNL     1      38.738  -3.786 -11.207  0.00  0.00    +0.159 HD
ATOM      7  H   UNL     1      39.369  -4.942 -10.122  0.00  0.00    +0.159 HD
ENDROOT
BRANCH   3   8
ATOM      8  N   UNL     1      37.200  -5.330  -8.844  0.00  0.00    -0.168 NA
BRANCH   8   9
ATOM      9  N   UNL     1      38.260  -6.114  -8.560  0.00  0.00    -0.223 NA
ATOM     10  H   UNL     1      39.013  -6.170  -9.191  0.00  0.00    +0.145 HD
ATOM     11  H   UNL     1      38.280  -6.629  -7.721  0.00  0.00    +0.145 HD
ENDBRANCH   8   9
ENDBRANCH   3   8
TORSDOF 2
ENDMDL
