MODEL 1
REMARK VINA RESULT:     -11.8      0.000      0.000
REMARK  Name = 11712628
REMARK  7 active torsions:
REMARK  status: ('A' for Active; 'I' for Inactive)
REMARK    1  A    between atoms: C_1  and  C_10
REMARK    2  A    between atoms: C_2  and  C_16
REMARK    3  A    between atoms: C_3  and  C_14
REMARK    4  A    between atoms: C_4  and  S_25
REMARK    5  A    between atoms: C_15  and  C_24
REMARK    6  A    between atoms: S_25  and  C_26
REMARK    7  A    between atoms: C_29  and  N_32
REMARK                            x       y       z     vdW  Elec       q    Type
REMARK                         _______ _______ _______ _____ _____    ______ ____
ROOT
ATOM      1  C   UNL     1      33.697 -15.269 -23.527  0.00  0.00    +0.076 C 
ATOM      2  C   UNL     1      33.419 -14.544 -22.379  0.00  0.00    +0.004 C 
ATOM      3  C   UNL     1      34.502 -16.405 -23.443  0.00  0.00    +0.081 C 
ATOM      4  C   UNL     1      35.018 -16.804 -22.210  0.00  0.00    +0.033 C 
ATOM      5  C   UNL     1      33.926 -14.929 -21.147  0.00  0.00    +0.000 C 
ATOM      6  C   UNL     1      34.730 -16.066 -21.062  0.00  0.00    +0.006 C 
ENDROOT
BRANCH   1  10
ATOM      7  F   UNL     1      32.863 -15.893 -25.681  0.00  0.00    -0.166 F 
ATOM      8  F   UNL     1      31.985 -14.137 -24.756  0.00  0.00    -0.166 F 
ATOM      9  F   UNL     1      34.009 -14.050 -25.545  0.00  0.00    -0.166 F 
ATOM     10  C   UNL     1      33.145 -14.846 -24.855  0.00  0.00    +0.419 C 
ENDBRANCH   1  10
BRANCH   3  14
ATOM     11  F   UNL     1      33.688 -17.729 -25.262  0.00  0.00    -0.166 F 
ATOM     12  F   UNL     1      35.380 -16.434 -25.668  0.00  0.00    -0.166 F 
ATOM     13  F   UNL     1      35.648 -18.223 -24.461  0.00  0.00    -0.166 F 
ATOM     14  C   UNL     1      34.798 -17.183 -24.689  0.00  0.00    +0.419 C 
ENDBRANCH   3  14
BRANCH   2  16
ATOM     15  C   UNL     1      33.043 -12.096 -22.530  0.00  0.00    +0.058 C 
ATOM     16  C   UNL     1      32.573 -13.339 -22.431  0.00  0.00    +0.005 C 
BRANCH  15  24
ATOM     17  O   UNL     1      33.252  -7.136 -23.646  0.00  0.00    -0.350 OA
ATOM     18  O   UNL     1      30.966 -11.189 -22.043  0.00  0.00    -0.270 OA
ATOM     19  N   UNL     1      32.448  -9.798 -23.168  0.00  0.00    -0.271 N 
ATOM     20  C   UNL     1      31.456  -8.738 -23.353  0.00  0.00    +0.126 C 
ATOM     21  C   UNL     1      33.742  -9.507 -23.799  0.00  0.00    +0.126 C 
ATOM     22  C   UNL     1      32.039  -7.394 -22.935  0.00  0.00    +0.164 C 
ATOM     23  C   UNL     1      34.238  -8.133 -23.361  0.00  0.00    +0.164 C 
ATOM     24  C   UNL     1      32.066 -10.990 -22.560  0.00  0.00    +0.249 C 
ENDBRANCH  15  24
ENDBRANCH   2  16
BRANCH   4  25
ATOM     25  S   UNL     1      36.056 -18.252 -22.043  0.00  0.00    -0.087 S 
BRANCH  25  26
ATOM     26  C   UNL     1      34.970 -19.350 -21.149  0.00  0.00    +0.031 C 
ATOM     27  C   UNL     1      35.505 -20.352 -20.341  0.00  0.00    +0.021 C 
ATOM     28  C   UNL     1      33.589 -19.204 -21.262  0.00  0.00    +0.007 C 
ATOM     29  C   UNL     1      34.655 -21.210 -19.643  0.00  0.00    +0.042 C 
ATOM     30  C   UNL     1      32.739 -20.062 -20.564  0.00  0.00    +0.002 C 
ATOM     31  C   UNL     1      33.273 -21.065 -19.755  0.00  0.00    +0.014 C 
BRANCH  29  32
ATOM     32  N   UNL     1      35.193 -22.224 -18.824  0.00  0.00    -0.357 N 
ATOM     33  H   UNL     1      34.684 -22.550 -18.047  0.00  0.00    +0.142 HD
ATOM     34  H   UNL     1      36.077 -22.607 -19.029  0.00  0.00    +0.142 HD
ENDBRANCH  29  32
ENDBRANCH  25  26
ENDBRANCH   4  25
TORSDOF 7
ENDMDL
MODEL 2
REMARK VINA RESULT:     -10.7      3.358      8.911
REMARK  Name = 11712628
REMARK  7 active torsions:
REMARK  status: ('A' for Active; 'I' for Inactive)
REMARK    1  A    between atoms: C_1  and  C_10
REMARK    2  A    between atoms: C_2  and  C_16
REMARK    3  A    between atoms: C_3  and  C_14
REMARK    4  A    between atoms: C_4  and  S_25
REMARK    5  A    between atoms: C_15  and  C_24
REMARK    6  A    between atoms: S_25  and  C_26
REMARK    7  A    between atoms: C_29  and  N_32
REMARK                            x       y       z     vdW  Elec       q    Type
REMARK                         _______ _______ _______ _____ _____    ______ ____
ROOT
ATOM      1  C   UNL     1      34.192 -16.033 -23.799  0.00  0.00    +0.076 C 
ATOM      2  C   UNL     1      34.486 -16.055 -22.445  0.00  0.00    +0.004 C 
ATOM      3  C   UNL     1      33.430 -14.986 -24.319  0.00  0.00    +0.081 C 
ATOM      4  C   UNL     1      32.972 -13.973 -23.477  0.00  0.00    +0.033 C 
ATOM      5  C   UNL     1      34.037 -15.054 -21.597  0.00  0.00    +0.000 C 
ATOM      6  C   UNL     1      33.276 -14.007 -22.116  0.00  0.00    +0.006 C 
ENDROOT
BRANCH   1  10
ATOM      7  F   UNL     1      33.692 -17.953 -25.138  0.00  0.00    -0.166 F 
ATOM      8  F   UNL     1      35.275 -16.647 -25.843  0.00  0.00    -0.166 F 
ATOM      9  F   UNL     1      35.608 -17.918 -24.110  0.00  0.00    -0.166 F 
ATOM     10  C   UNL     1      34.682 -17.118 -24.709  0.00  0.00    +0.419 C 
ENDBRANCH   1  10
BRANCH   3  14
ATOM     11  F   UNL     1      32.682 -16.171 -26.258  0.00  0.00    -0.166 F 
ATOM     12  F   UNL     1      32.143 -14.075 -26.117  0.00  0.00    -0.166 F 
ATOM     13  F   UNL     1      34.199 -14.640 -26.542  0.00  0.00    -0.166 F 
ATOM     14  C   UNL     1      33.117 -14.969 -25.784  0.00  0.00    +0.419 C 
ENDBRANCH   3  14
BRANCH   2  16
ATOM     15  C   UNL     1      34.774 -18.210 -21.248  0.00  0.00    +0.058 C 
ATOM     16  C   UNL     1      35.289 -17.145 -21.863  0.00  0.00    +0.005 C 
BRANCH  15  24
ATOM     17  O   UNL     1      34.284 -22.637 -18.790  0.00  0.00    -0.350 OA
ATOM     18  O   UNL     1      36.901 -18.900 -20.635  0.00  0.00    -0.270 OA
ATOM     19  N   UNL     1      35.194 -20.444 -20.313  0.00  0.00    -0.271 N 
ATOM     20  C   UNL     1      36.112 -21.513 -19.917  0.00  0.00    +0.126 C 
ATOM     21  C   UNL     1      33.790 -20.869 -20.375  0.00  0.00    +0.126 C 
ATOM     22  C   UNL     1      35.627 -22.174 -18.633  0.00  0.00    +0.164 C 
ATOM     23  C   UNL     1      33.394 -21.553 -19.072  0.00  0.00    +0.164 C 
ATOM     24  C   UNL     1      35.711 -19.213 -20.707  0.00  0.00    +0.249 C 
ENDBRANCH  15  24
ENDBRANCH   2  16
BRANCH   4  25
ATOM     25  S   UNL     1      31.991 -12.607 -24.088  0.00  0.00    -0.087 S 
BRANCH  25  26
ATOM     26  C   UNL     1      33.241 -11.349 -24.286  0.00  0.00    +0.031 C 
ATOM     27  C   UNL     1      33.194 -10.194 -23.508  0.00  0.00    +0.021 C 
ATOM     28  C   UNL     1      34.260 -11.524 -25.219  0.00  0.00    +0.007 C 
ATOM     29  C   UNL     1      34.171  -9.211 -23.664  0.00  0.00    +0.042 C 
ATOM     30  C   UNL     1      35.238 -10.541 -25.375  0.00  0.00    +0.002 C 
ATOM     31  C   UNL     1      35.193  -9.385 -24.597  0.00  0.00    +0.014 C 
BRANCH  29  32
ATOM     32  N   UNL     1      34.127  -8.041 -22.878  0.00  0.00    -0.357 N 
ATOM     33  H   UNL     1      34.932  -7.481 -22.783  0.00  0.00    +0.142 HD
ATOM     34  H   UNL     1      33.293  -7.783 -22.424  0.00  0.00    +0.142 HD
ENDBRANCH  29  32
ENDBRANCH  25  26
ENDBRANCH   4  25
TORSDOF 7
ENDMDL
MODEL 3
REMARK VINA RESULT:     -10.7      3.445      8.499
REMARK  Name = 11712628
REMARK  7 active torsions:
REMARK  status: ('A' for Active; 'I' for Inactive)
REMARK    1  A    between atoms: C_1  and  C_10
REMARK    2  A    between atoms: C_2  and  C_16
REMARK    3  A    between atoms: C_3  and  C_14
REMARK    4  A    between atoms: C_4  and  S_25
REMARK    5  A    between atoms: C_15  and  C_24
REMARK    6  A    between atoms: S_25  and  C_26
REMARK    7  A    between atoms: C_29  and  N_32
REMARK                            x       y       z     vdW  Elec       q    Type
REMARK                         _______ _______ _______ _____ _____    ______ ____
ROOT
ATOM      1  C   UNL     1      34.222 -15.702 -24.100  0.00  0.00    +0.076 C 
ATOM      2  C   UNL     1      34.671 -15.852 -22.797  0.00  0.00    +0.004 C 
ATOM      3  C   UNL     1      33.727 -14.466 -24.517  0.00  0.00    +0.081 C 
ATOM      4  C   UNL     1      33.686 -13.394 -23.624  0.00  0.00    +0.033 C 
ATOM      5  C   UNL     1      34.636 -14.796 -21.899  0.00  0.00    +0.000 C 
ATOM      6  C   UNL     1      34.141 -13.560 -22.315  0.00  0.00    +0.006 C 
ENDROOT
BRANCH   1  10
ATOM      7  F   UNL     1      34.330 -18.066 -24.454  0.00  0.00    -0.166 F 
ATOM      8  F   UNL     1      33.172 -16.909 -25.879  0.00  0.00    -0.166 F 
ATOM      9  F   UNL     1      35.344 -16.789 -25.893  0.00  0.00    -0.166 F 
ATOM     10  C   UNL     1      34.264 -16.848 -25.064  0.00  0.00    +0.419 C 
ENDBRANCH   1  10
BRANCH   3  14
ATOM     11  F   UNL     1      34.070 -14.884 -26.846  0.00  0.00    -0.166 F 
ATOM     12  F   UNL     1      32.019 -14.868 -26.142  0.00  0.00    -0.166 F 
ATOM     13  F   UNL     1      33.128 -13.004 -26.294  0.00  0.00    -0.166 F 
ATOM     14  C   UNL     1      33.244 -14.311 -25.926  0.00  0.00    +0.419 C 
ENDBRANCH   3  14
BRANCH   2  16
ATOM     15  C   UNL     1      34.973 -17.649 -21.112  0.00  0.00    +0.058 C 
ATOM     16  C   UNL     1      35.201 -17.143 -22.324  0.00  0.00    +0.005 C 
BRANCH  15  24
ATOM     17  O   UNL     1      33.214 -22.154 -19.533  0.00  0.00    -0.350 OA
ATOM     18  O   UNL     1      36.810 -18.992 -20.668  0.00  0.00    -0.270 OA
ATOM     19  N   UNL     1      34.741 -20.046 -20.622  0.00  0.00    -0.271 N 
ATOM     20  C   UNL     1      35.320 -21.379 -20.449  0.00  0.00    +0.126 C 
ATOM     21  C   UNL     1      33.277 -20.055 -20.746  0.00  0.00    +0.126 C 
ATOM     22  C   UNL     1      34.626 -22.110 -19.308  0.00  0.00    +0.164 C 
ATOM     23  C   UNL     1      32.660 -20.836 -19.591  0.00  0.00    +0.164 C 
ATOM     24  C   UNL     1      35.584 -18.951 -20.782  0.00  0.00    +0.249 C 
ENDBRANCH  15  24
ENDBRANCH   2  16
BRANCH   4  25
ATOM     25  S   UNL     1      33.060 -11.788 -24.102  0.00  0.00    -0.087 S 
BRANCH  25  26
ATOM     26  C   UNL     1      32.368 -11.217 -22.560  0.00  0.00    +0.031 C 
ATOM     27  C   UNL     1      32.521  -9.885 -22.179  0.00  0.00    +0.021 C 
ATOM     28  C   UNL     1      31.677 -12.106 -21.738  0.00  0.00    +0.007 C 
ATOM     29  C   UNL     1      31.980  -9.440 -20.973  0.00  0.00    +0.042 C 
ATOM     30  C   UNL     1      31.136 -11.661 -20.532  0.00  0.00    +0.002 C 
ATOM     31  C   UNL     1      31.288 -10.328 -20.150  0.00  0.00    +0.014 C 
BRANCH  29  32
ATOM     32  N   UNL     1      32.133  -8.093 -20.585  0.00  0.00    -0.357 N 
ATOM     33  H   UNL     1      31.381  -7.613 -20.168  0.00  0.00    +0.142 HD
ATOM     34  H   UNL     1      32.991  -7.632 -20.732  0.00  0.00    +0.142 HD
ENDBRANCH  29  32
ENDBRANCH  25  26
ENDBRANCH   4  25
TORSDOF 7
ENDMDL
MODEL 4
REMARK VINA RESULT:     -10.6      4.022      9.160
REMARK  Name = 11712628
REMARK  7 active torsions:
REMARK  status: ('A' for Active; 'I' for Inactive)
REMARK    1  A    between atoms: C_1  and  C_10
REMARK    2  A    between atoms: C_2  and  C_16
REMARK    3  A    between atoms: C_3  and  C_14
REMARK    4  A    between atoms: C_4  and  S_25
REMARK    5  A    between atoms: C_15  and  C_24
REMARK    6  A    between atoms: S_25  and  C_26
REMARK    7  A    between atoms: C_29  and  N_32
REMARK                            x       y       z     vdW  Elec       q    Type
REMARK                         _______ _______ _______ _____ _____    ______ ____
ROOT
ATOM      1  C   UNL     1      34.086 -15.668 -22.441  0.00  0.00    +0.076 C 
ATOM      2  C   UNL     1      34.864 -16.671 -22.999  0.00  0.00    +0.004 C 
ATOM      3  C   UNL     1      33.376 -14.806 -23.276  0.00  0.00    +0.081 C 
ATOM      4  C   UNL     1      33.452 -14.957 -24.661  0.00  0.00    +0.033 C 
ATOM      5  C   UNL     1      34.949 -16.833 -24.374  0.00  0.00    +0.000 C 
ATOM      6  C   UNL     1      34.239 -15.971 -25.209  0.00  0.00    +0.006 C 
ENDROOT
BRANCH   1  10
ATOM      7  F   UNL     1      34.974 -16.171 -20.277  0.00  0.00    -0.166 F 
ATOM      8  F   UNL     1      34.103 -14.203 -20.550  0.00  0.00    -0.166 F 
ATOM      9  F   UNL     1      32.817 -15.954 -20.450  0.00  0.00    -0.166 F 
ATOM     10  C   UNL     1      33.999 -15.501 -20.954  0.00  0.00    +0.419 C 
ENDBRANCH   1  10
BRANCH   3  14
ATOM     11  F   UNL     1      31.604 -13.218 -23.521  0.00  0.00    -0.166 F 
ATOM     12  F   UNL     1      31.838 -14.138 -21.571  0.00  0.00    -0.166 F 
ATOM     13  F   UNL     1      33.281 -12.662 -22.254  0.00  0.00    -0.166 F 
ATOM     14  C   UNL     1      32.537 -13.725 -22.667  0.00  0.00    +0.419 C 
ENDBRANCH   3  14
BRANCH   2  16
ATOM     15  C   UNL     1      35.168 -18.776 -21.720  0.00  0.00    +0.058 C 
ATOM     16  C   UNL     1      35.627 -17.599 -22.146  0.00  0.00    +0.005 C 
BRANCH  15  24
ATOM     17  O   UNL     1      34.466 -22.579 -18.414  0.00  0.00    -0.350 OA
ATOM     18  O   UNL     1      37.215 -19.211 -20.721  0.00  0.00    -0.270 OA
ATOM     19  N   UNL     1      35.515 -20.729 -20.268  0.00  0.00    -0.271 N 
ATOM     20  C   UNL     1      36.397 -21.640 -19.538  0.00  0.00    +0.126 C 
ATOM     21  C   UNL     1      34.139 -21.225 -20.400  0.00  0.00    +0.126 C 
ATOM     22  C   UNL     1      35.768 -22.027 -18.206  0.00  0.00    +0.164 C 
ATOM     23  C   UNL     1      33.595 -21.627 -19.033  0.00  0.00    +0.164 C 
ATOM     24  C   UNL     1      36.050 -19.590 -20.861  0.00  0.00    +0.249 C 
ENDBRANCH  15  24
ENDBRANCH   2  16
BRANCH   4  25
ATOM     25  S   UNL     1      32.564 -13.881 -25.781  0.00  0.00    -0.087 S 
BRANCH  25  26
ATOM     26  C   UNL     1      33.751 -12.567 -26.006  0.00  0.00    +0.031 C 
ATOM     27  C   UNL     1      33.966 -11.642 -24.986  0.00  0.00    +0.021 C 
ATOM     28  C   UNL     1      34.460 -12.469 -27.202  0.00  0.00    +0.007 C 
ATOM     29  C   UNL     1      34.893 -10.615 -25.163  0.00  0.00    +0.042 C 
ATOM     30  C   UNL     1      35.388 -11.443 -27.379  0.00  0.00    +0.002 C 
ATOM     31  C   UNL     1      35.604 -10.516 -26.359  0.00  0.00    +0.014 C 
BRANCH  29  32
ATOM     32  N   UNL     1      35.114  -9.677 -24.134  0.00  0.00    -0.357 N 
ATOM     33  H   UNL     1      35.851  -9.029 -24.209  0.00  0.00    +0.142 HD
ATOM     34  H   UNL     1      34.531  -9.670 -23.340  0.00  0.00    +0.142 HD
ENDBRANCH  29  32
ENDBRANCH  25  26
ENDBRANCH   4  25
TORSDOF 7
ENDMDL
MODEL 5
REMARK VINA RESULT:     -10.2      5.398     10.408
REMARK  Name = 11712628
REMARK  7 active torsions:
REMARK  status: ('A' for Active; 'I' for Inactive)
REMARK    1  A    between atoms: C_1  and  C_10
REMARK    2  A    between atoms: C_2  and  C_16
REMARK    3  A    between atoms: C_3  and  C_14
REMARK    4  A    between atoms: C_4  and  S_25
REMARK    5  A    between atoms: C_15  and  C_24
REMARK    6  A    between atoms: S_25  and  C_26
REMARK    7  A    between atoms: C_29  and  N_32
REMARK                            x       y       z     vdW  Elec       q    Type
REMARK                         _______ _______ _______ _____ _____    ______ ____
ROOT
ATOM      1  C   UNL     1      34.922 -20.753 -19.934  0.00  0.00    +0.076 C 
ATOM      2  C   UNL     1      36.219 -20.934 -19.481  0.00  0.00    +0.004 C 
ATOM      3  C   UNL     1      34.678 -19.859 -20.977  0.00  0.00    +0.081 C 
ATOM      4  C   UNL     1      35.736 -19.156 -21.554  0.00  0.00    +0.033 C 
ATOM      5  C   UNL     1      37.280 -20.241 -20.046  0.00  0.00    +0.000 C 
ATOM      6  C   UNL     1      37.037 -19.348 -21.089  0.00  0.00    +0.006 C 
ENDROOT
BRANCH   1  10
ATOM      7  F   UNL     1      34.088 -22.059 -18.111  0.00  0.00    -0.166 F 
ATOM      8  F   UNL     1      32.681 -20.733 -19.096  0.00  0.00    -0.166 F 
ATOM      9  F   UNL     1      33.359 -22.538 -20.102  0.00  0.00    -0.166 F 
ATOM     10  C   UNL     1      33.782 -21.506 -19.319  0.00  0.00    +0.419 C 
ENDBRANCH   1  10
BRANCH   3  14
ATOM     11  F   UNL     1      32.498 -20.782 -21.319  0.00  0.00    -0.166 F 
ATOM     12  F   UNL     1      32.606 -18.677 -20.809  0.00  0.00    -0.166 F 
ATOM     13  F   UNL     1      33.220 -19.346 -22.784  0.00  0.00    -0.166 F 
ATOM     14  C   UNL     1      33.273 -19.670 -21.462  0.00  0.00    +0.419 C 
ENDBRANCH   3  14
BRANCH   2  16
ATOM     15  C   UNL     1      36.809 -21.497 -17.137  0.00  0.00    +0.058 C 
ATOM     16  C   UNL     1      36.514 -21.870 -18.382  0.00  0.00    +0.005 C 
BRANCH  15  24
ATOM     17  O   UNL     1      33.981 -24.364 -14.028  0.00  0.00    -0.350 OA
ATOM     18  O   UNL     1      38.264 -22.722 -15.811  0.00  0.00    -0.270 OA
ATOM     19  N   UNL     1      36.018 -23.298 -15.663  0.00  0.00    -0.271 N 
ATOM     20  C   UNL     1      36.276 -24.453 -14.802  0.00  0.00    +0.126 C 
ATOM     21  C   UNL     1      34.604 -23.144 -16.029  0.00  0.00    +0.126 C 
ATOM     22  C   UNL     1      35.343 -24.432 -13.599  0.00  0.00    +0.164 C 
ATOM     23  C   UNL     1      33.735 -23.171 -14.777  0.00  0.00    +0.164 C 
ATOM     24  C   UNL     1      37.091 -22.556 -16.148  0.00  0.00    +0.249 C 
ENDBRANCH  15  24
ENDBRANCH   2  16
BRANCH   4  25
ATOM     25  S   UNL     1      35.481 -17.997 -22.893  0.00  0.00    -0.087 S 
BRANCH  25  26
ATOM     26  C   UNL     1      34.707 -16.641 -22.029  0.00  0.00    +0.031 C 
ATOM     27  C   UNL     1      33.847 -15.782 -22.710  0.00  0.00    +0.021 C 
ATOM     28  C   UNL     1      34.966 -16.443 -20.674  0.00  0.00    +0.007 C 
ATOM     29  C   UNL     1      33.243 -14.723 -22.034  0.00  0.00    +0.042 C 
ATOM     30  C   UNL     1      34.362 -15.383 -19.997  0.00  0.00    +0.002 C 
ATOM     31  C   UNL     1      33.501 -14.523 -20.678  0.00  0.00    +0.014 C 
BRANCH  29  32
ATOM     32  N   UNL     1      32.372 -13.852 -22.721  0.00  0.00    -0.357 N 
ATOM     33  H   UNL     1      32.069 -13.019 -22.290  0.00  0.00    +0.142 HD
ATOM     34  H   UNL     1      32.067 -14.075 -23.630  0.00  0.00    +0.142 HD
ENDBRANCH  29  32
ENDBRANCH  25  26
ENDBRANCH   4  25
TORSDOF 7
ENDMDL
MODEL 6
REMARK VINA RESULT:     -10.1      5.603     10.390
REMARK  Name = 11712628
REMARK  7 active torsions:
REMARK  status: ('A' for Active; 'I' for Inactive)
REMARK    1  A    between atoms: C_1  and  C_10
REMARK    2  A    between atoms: C_2  and  C_16
REMARK    3  A    between atoms: C_3  and  C_14
REMARK    4  A    between atoms: C_4  and  S_25
REMARK    5  A    between atoms: C_15  and  C_24
REMARK    6  A    between atoms: S_25  and  C_26
REMARK    7  A    between atoms: C_29  and  N_32
REMARK                            x       y       z     vdW  Elec       q    Type
REMARK                         _______ _______ _______ _____ _____    ______ ____
ROOT
ATOM      1  C   UNL     1      35.139 -21.010 -19.599  0.00  0.00    +0.076 C 
ATOM      2  C   UNL     1      33.813 -21.384 -19.452  0.00  0.00    +0.004 C 
ATOM      3  C   UNL     1      35.492 -20.112 -20.606  0.00  0.00    +0.081 C 
ATOM      4  C   UNL     1      34.512 -19.596 -21.455  0.00  0.00    +0.033 C 
ATOM      5  C   UNL     1      32.828 -20.879 -20.289  0.00  0.00    +0.000 C 
ATOM      6  C   UNL     1      33.180 -19.980 -21.296  0.00  0.00    +0.006 C 
ENDROOT
BRANCH   1  10
ATOM      7  F   UNL     1      36.805 -20.606 -17.929  0.00  0.00    -0.166 F 
ATOM      8  F   UNL     1      35.722 -22.482 -17.805  0.00  0.00    -0.166 F 
ATOM      9  F   UNL     1      37.197 -22.182 -19.375  0.00  0.00    -0.166 F 
ATOM     10  C   UNL     1      36.197 -21.560 -18.690  0.00  0.00    +0.419 C 
ENDBRANCH   1  10
BRANCH   3  14
ATOM     11  F   UNL     1      37.145 -18.862 -21.801  0.00  0.00    -0.166 F 
ATOM     12  F   UNL     1      37.430 -19.076 -19.661  0.00  0.00    -0.166 F 
ATOM     13  F   UNL     1      37.744 -20.781 -20.972  0.00  0.00    -0.166 F 
ATOM     14  C   UNL     1      36.928 -19.712 -20.757  0.00  0.00    +0.419 C 
ENDBRANCH   3  14
BRANCH   2  16
ATOM     15  C   UNL     1      32.286 -22.219 -17.682  0.00  0.00    +0.058 C 
ATOM     16  C   UNL     1      33.405 -22.330 -18.400  0.00  0.00    +0.005 C 
BRANCH  15  24
ATOM     17  O   UNL     1      28.178 -23.761 -15.107  0.00  0.00    -0.350 OA
ATOM     18  O   UNL     1      32.996 -23.773 -16.114  0.00  0.00    -0.270 OA
ATOM     19  N   UNL     1      30.697 -23.550 -16.362  0.00  0.00    -0.271 N 
ATOM     20  C   UNL     1      30.399 -24.666 -15.464  0.00  0.00    +0.126 C 
ATOM     21  C   UNL     1      29.501 -22.954 -16.973  0.00  0.00    +0.126 C 
ATOM     22  C   UNL     1      29.345 -24.254 -14.444  0.00  0.00    +0.164 C 
ATOM     23  C   UNL     1      28.482 -22.605 -15.894  0.00  0.00    +0.164 C 
ATOM     24  C   UNL     1      32.022 -23.244 -16.654  0.00  0.00    +0.249 C 
ENDBRANCH  15  24
ENDBRANCH   2  16
BRANCH   4  25
ATOM     25  S   UNL     1      34.907 -18.442 -22.763  0.00  0.00    -0.087 S 
BRANCH  25  26
ATOM     26  C   UNL     1      34.409 -16.898 -22.019  0.00  0.00    +0.031 C 
ATOM     27  C   UNL     1      33.632 -15.995 -22.743  0.00  0.00    +0.021 C 
ATOM     28  C   UNL     1      34.801 -16.598 -20.716  0.00  0.00    +0.007 C 
ATOM     29  C   UNL     1      33.245 -14.789 -22.160  0.00  0.00    +0.042 C 
ATOM     30  C   UNL     1      34.413 -15.391 -20.133  0.00  0.00    +0.002 C 
ATOM     31  C   UNL     1      33.635 -14.487 -20.856  0.00  0.00    +0.014 C 
BRANCH  29  32
ATOM     32  N   UNL     1      32.458 -13.874 -22.890  0.00  0.00    -0.357 N 
ATOM     33  H   UNL     1      32.457 -12.920 -22.643  0.00  0.00    +0.142 HD
ATOM     34  H   UNL     1      31.910 -14.187 -23.645  0.00  0.00    +0.142 HD
ENDBRANCH  29  32
ENDBRANCH  25  26
ENDBRANCH   4  25
TORSDOF 7
ENDMDL
MODEL 7
REMARK VINA RESULT:     -10.1      5.886      9.129
REMARK  Name = 11712628
REMARK  7 active torsions:
REMARK  status: ('A' for Active; 'I' for Inactive)
REMARK    1  A    between atoms: C_1  and  C_10
REMARK    2  A    between atoms: C_2  and  C_16
REMARK    3  A    between atoms: C_3  and  C_14
REMARK    4  A    between atoms: C_4  and  S_25
REMARK    5  A    between atoms: C_15  and  C_24
REMARK    6  A    between atoms: S_25  and  C_26
REMARK    7  A    between atoms: C_29  and  N_32
REMARK                            x       y       z     vdW  Elec       q    Type
REMARK                         _______ _______ _______ _____ _____    ______ ____
ROOT
ATOM      1  C   UNL     1      35.465 -21.996 -17.952  0.00  0.00    +0.076 C 
ATOM      2  C   UNL     1      34.507 -21.799 -18.934  0.00  0.00    +0.004 C 
ATOM      3  C   UNL     1      35.112 -22.645 -16.769  0.00  0.00    +0.081 C 
ATOM      4  C   UNL     1      33.803 -23.091 -16.583  0.00  0.00    +0.033 C 
ATOM      5  C   UNL     1      33.202 -22.237 -18.762  0.00  0.00    +0.000 C 
ATOM      6  C   UNL     1      32.848 -22.887 -17.580  0.00  0.00    +0.006 C 
ENDROOT
BRANCH   1  10
ATOM      7  F   UNL     1      37.141 -20.349 -17.501  0.00  0.00    -0.166 F 
ATOM      8  F   UNL     1      37.809 -22.405 -17.697  0.00  0.00    -0.166 F 
ATOM      9  F   UNL     1      37.169 -21.299 -19.457  0.00  0.00    -0.166 F 
ATOM     10  C   UNL     1      36.873 -21.520 -18.146  0.00  0.00    +0.419 C 
ENDBRANCH   1  10
BRANCH   3  14
ATOM     11  F   UNL     1      37.077 -21.855 -15.658  0.00  0.00    -0.166 F 
ATOM     12  F   UNL     1      35.634 -22.939 -14.454  0.00  0.00    -0.166 F 
ATOM     13  F   UNL     1      36.858 -24.005 -15.901  0.00  0.00    -0.166 F 
ATOM     14  C   UNL     1      36.152 -22.855 -15.712  0.00  0.00    +0.419 C 
ENDBRANCH   3  14
BRANCH   2  16
ATOM     15  C   UNL     1      34.380 -19.919 -20.549  0.00  0.00    +0.058 C 
ATOM     16  C   UNL     1      34.846 -21.117 -20.195  0.00  0.00    +0.005 C 
BRANCH  15  24
ATOM     17  O   UNL     1      34.974 -15.247 -22.473  0.00  0.00    -0.350 OA
ATOM     18  O   UNL     1      34.881 -20.156 -22.801  0.00  0.00    -0.270 OA
ATOM     19  N   UNL     1      35.090 -18.013 -21.929  0.00  0.00    -0.271 N 
ATOM     20  C   UNL     1      35.659 -17.467 -23.162  0.00  0.00    +0.126 C 
ATOM     21  C   UNL     1      35.015 -17.035 -20.835  0.00  0.00    +0.126 C 
ATOM     22  C   UNL     1      34.938 -16.184 -23.552  0.00  0.00    +0.164 C 
ATOM     23  C   UNL     1      34.316 -15.768 -21.314  0.00  0.00    +0.164 C 
ATOM     24  C   UNL     1      34.804 -19.372 -21.853  0.00  0.00    +0.249 C 
ENDBRANCH  15  24
ENDBRANCH   2  16
BRANCH   4  25
ATOM     25  S   UNL     1      33.292 -23.929 -15.087  0.00  0.00    -0.087 S 
BRANCH  25  26
ATOM     26  C   UNL     1      31.516 -23.836 -15.231  0.00  0.00    +0.031 C 
ATOM     27  C   UNL     1      30.727 -24.902 -14.802  0.00  0.00    +0.021 C 
ATOM     28  C   UNL     1      30.923 -22.699 -15.774  0.00  0.00    +0.007 C 
ATOM     29  C   UNL     1      29.339 -24.829 -14.916  0.00  0.00    +0.042 C 
ATOM     30  C   UNL     1      29.534 -22.625 -15.888  0.00  0.00    +0.002 C 
ATOM     31  C   UNL     1      28.743 -23.691 -15.459  0.00  0.00    +0.014 C 
BRANCH  29  32
ATOM     32  N   UNL     1      28.537 -25.905 -14.483  0.00  0.00    -0.357 N 
ATOM     33  H   UNL     1      28.081 -25.858 -13.612  0.00  0.00    +0.142 HD
ATOM     34  H   UNL     1      28.433 -26.702 -15.051  0.00  0.00    +0.142 HD
ENDBRANCH  29  32
ENDBRANCH  25  26
ENDBRANCH   4  25
TORSDOF 7
ENDMDL
MODEL 8
REMARK VINA RESULT:     -10.0      4.225      9.600
REMARK  Name = 11712628
REMARK  7 active torsions:
REMARK  status: ('A' for Active; 'I' for Inactive)
REMARK    1  A    between atoms: C_1  and  C_10
REMARK    2  A    between atoms: C_2  and  C_16
REMARK    3  A    between atoms: C_3  and  C_14
REMARK    4  A    between atoms: C_4  and  S_25
REMARK    5  A    between atoms: C_15  and  C_24
REMARK    6  A    between atoms: S_25  and  C_26
REMARK    7  A    between atoms: C_29  and  N_32
REMARK                            x       y       z     vdW  Elec       q    Type
REMARK                         _______ _______ _______ _____ _____    ______ ____
ROOT
ATOM      1  C   UNL     1      32.759 -12.569 -22.228  0.00  0.00    +0.076 C 
ATOM      2  C   UNL     1      33.481 -12.766 -23.395  0.00  0.00    +0.004 C 
ATOM      3  C   UNL     1      32.152 -11.334 -21.997  0.00  0.00    +0.081 C 
ATOM      4  C   UNL     1      32.274 -10.311 -22.937  0.00  0.00    +0.033 C 
ATOM      5  C   UNL     1      33.610 -11.758 -24.338  0.00  0.00    +0.000 C 
ATOM      6  C   UNL     1      33.003 -10.523 -24.108  0.00  0.00    +0.006 C 
ENDROOT
BRANCH   1  10
ATOM      7  F   UNL     1      31.974 -13.275 -20.081  0.00  0.00    -0.166 F 
ATOM      8  F   UNL     1      31.934 -14.746 -21.676  0.00  0.00    -0.166 F 
ATOM      9  F   UNL     1      33.832 -14.142 -20.804  0.00  0.00    -0.166 F 
ATOM     10  C   UNL     1      32.624 -13.664 -21.214  0.00  0.00    +0.419 C 
ENDBRANCH   1  10
BRANCH   3  14
ATOM     11  F   UNL     1      31.953 -11.705 -19.643  0.00  0.00    -0.166 F 
ATOM     12  F   UNL     1      31.212  -9.815 -20.408  0.00  0.00    -0.166 F 
ATOM     13  F   UNL     1      30.118 -11.650 -20.808  0.00  0.00    -0.166 F 
ATOM     14  C   UNL     1      31.374 -11.129 -20.734  0.00  0.00    +0.419 C 
ENDBRANCH   3  14
BRANCH   2  16
ATOM     15  C   UNL     1      33.591 -15.034 -24.398  0.00  0.00    +0.058 C 
ATOM     16  C   UNL     1      34.134 -14.057 -23.671  0.00  0.00    +0.005 C 
BRANCH  15  24
ATOM     17  O   UNL     1      35.662 -18.466 -21.265  0.00  0.00    -0.350 OA
ATOM     18  O   UNL     1      34.811 -16.513 -25.702  0.00  0.00    -0.270 OA
ATOM     19  N   UNL     1      34.552 -17.096 -23.468  0.00  0.00    -0.271 N 
ATOM     20  C   UNL     1      35.183 -18.405 -23.641  0.00  0.00    +0.126 C 
ATOM     21  C   UNL     1      34.049 -16.862 -22.108  0.00  0.00    +0.126 C 
ATOM     22  C   UNL     1      36.237 -18.627 -22.564  0.00  0.00    +0.164 C 
ATOM     23  C   UNL     1      35.149 -17.142 -21.089  0.00  0.00    +0.164 C 
ATOM     24  C   UNL     1      34.368 -16.275 -24.576  0.00  0.00    +0.249 C 
ENDBRANCH  15  24
ENDBRANCH   2  16
BRANCH   4  25
ATOM     25  S   UNL     1      31.519  -8.708 -22.694  0.00  0.00    -0.087 S 
BRANCH  25  26
ATOM     26  C   UNL     1      32.607  -7.667 -23.652  0.00  0.00    +0.031 C 
ATOM     27  C   UNL     1      32.077  -6.649 -24.443  0.00  0.00    +0.021 C 
ATOM     28  C   UNL     1      33.983  -7.877 -23.608  0.00  0.00    +0.007 C 
ATOM     29  C   UNL     1      32.928  -5.837 -25.192  0.00  0.00    +0.042 C 
ATOM     30  C   UNL     1      34.835  -7.064 -24.357  0.00  0.00    +0.002 C 
ATOM     31  C   UNL     1      34.307  -6.045 -25.149  0.00  0.00    +0.014 C 
BRANCH  29  32
ATOM     32  N   UNL     1      32.396  -4.806 -25.993  0.00  0.00    -0.357 N 
ATOM     33  H   UNL     1      31.434  -4.598 -25.953  0.00  0.00    +0.142 HD
ATOM     34  H   UNL     1      32.985  -4.294 -26.593  0.00  0.00    +0.142 HD
ENDBRANCH  29  32
ENDBRANCH  25  26
ENDBRANCH   4  25
TORSDOF 7
ENDMDL
MODEL 9
REMARK VINA RESULT:      -9.6      7.703     11.159
REMARK  Name = 11712628
REMARK  7 active torsions:
REMARK  status: ('A' for Active; 'I' for Inactive)
REMARK    1  A    between atoms: C_1  and  C_10
REMARK    2  A    between atoms: C_2  and  C_16
REMARK    3  A    between atoms: C_3  and  C_14
REMARK    4  A    between atoms: C_4  and  S_25
REMARK    5  A    between atoms: C_15  and  C_24
REMARK    6  A    between atoms: S_25  and  C_26
REMARK    7  A    between atoms: C_29  and  N_32
REMARK                            x       y       z     vdW  Elec       q    Type
REMARK                         _______ _______ _______ _____ _____    ______ ____
ROOT
ATOM      1  C   UNL     1      32.226 -23.257 -16.031  0.00  0.00    +0.076 C 
ATOM      2  C   UNL     1      33.292 -22.900 -16.842  0.00  0.00    +0.004 C 
ATOM      3  C   UNL     1      32.471 -23.922 -14.829  0.00  0.00    +0.081 C 
ATOM      4  C   UNL     1      33.781 -24.220 -14.452  0.00  0.00    +0.033 C 
ATOM      5  C   UNL     1      34.599 -23.191 -16.480  0.00  0.00    +0.000 C 
ATOM      6  C   UNL     1      34.844 -23.855 -15.277  0.00  0.00    +0.006 C 
ENDROOT
BRANCH   1  10
ATOM      7  F   UNL     1      30.092 -24.040 -16.777  0.00  0.00    -0.166 F 
ATOM      8  F   UNL     1      30.102 -22.327 -15.444  0.00  0.00    -0.166 F 
ATOM      9  F   UNL     1      30.760 -22.103 -17.504  0.00  0.00    -0.166 F 
ATOM     10  C   UNL     1      30.817 -22.939 -16.430  0.00  0.00    +0.419 C 
ENDBRANCH   1  10
BRANCH   3  14
ATOM     11  F   UNL     1      30.249 -24.789 -14.656  0.00  0.00    -0.166 F 
ATOM     12  F   UNL     1      31.621 -25.270 -13.047  0.00  0.00    -0.166 F 
ATOM     13  F   UNL     1      30.838 -23.251 -13.237  0.00  0.00    -0.166 F 
ATOM     14  C   UNL     1      31.314 -24.304 -13.958  0.00  0.00    +0.419 C 
ENDBRANCH   3  14
BRANCH   2  16
ATOM     15  C   UNL     1      34.044 -21.694 -18.877  0.00  0.00    +0.058 C 
ATOM     16  C   UNL     1      33.070 -22.198 -18.118  0.00  0.00    +0.005 C 
BRANCH  15  24
ATOM     17  O   UNL     1      36.341 -18.459 -22.061  0.00  0.00    -0.350 OA
ATOM     18  O   UNL     1      32.469 -21.031 -20.444  0.00  0.00    -0.270 OA
ATOM     19  N   UNL     1      34.660 -20.381 -20.861  0.00  0.00    -0.271 N 
ATOM     20  C   UNL     1      34.342 -19.826 -22.177  0.00  0.00    +0.126 C 
ATOM     21  C   UNL     1      36.090 -20.323 -20.530  0.00  0.00    +0.126 C 
ATOM     22  C   UNL     1      34.934 -18.429 -22.316  0.00  0.00    +0.164 C 
ATOM     23  C   UNL     1      36.615 -18.906 -20.730  0.00  0.00    +0.164 C 
ATOM     24  C   UNL     1      33.659 -21.008 -20.125  0.00  0.00    +0.249 C 
ENDBRANCH  15  24
ENDBRANCH   2  16
BRANCH   4  25
ATOM     25  S   UNL     1      34.154 -25.071 -12.923  0.00  0.00    -0.087 S 
BRANCH  25  26
ATOM     26  C   UNL     1      35.868 -24.630 -12.695  0.00  0.00    +0.031 C 
ATOM     27  C   UNL     1      36.872 -25.489 -13.139  0.00  0.00    +0.021 C 
ATOM     28  C   UNL     1      36.199 -23.428 -12.073  0.00  0.00    +0.007 C 
ATOM     29  C   UNL     1      38.211 -25.144 -12.961  0.00  0.00    +0.042 C 
ATOM     30  C   UNL     1      37.539 -23.082 -11.894  0.00  0.00    +0.002 C 
ATOM     31  C   UNL     1      38.545 -23.941 -12.338  0.00  0.00    +0.014 C 
BRANCH  29  32
ATOM     32  N   UNL     1      39.229 -26.010 -13.409  0.00  0.00    -0.357 N 
ATOM     33  H   UNL     1      38.995 -26.873 -13.821  0.00  0.00    +0.142 HD
ATOM     34  H   UNL     1      40.175 -25.753 -13.310  0.00  0.00    +0.142 HD
ENDBRANCH  29  32
ENDBRANCH  25  26
ENDBRANCH   4  25
TORSDOF 7
ENDMDL
