MODEL 1
REMARK VINA RESULT:      -6.0      0.000      0.000
REMARK  Name = 777
REMARK  2 active torsions:
REMARK  status: ('A' for Active; 'I' for Inactive)
REMARK    1  A    between atoms: C_4  and  C_11
REMARK    2  A    between atoms: C_11  and  O_12
REMARK                            x       y       z     vdW  Elec       q    Type
REMARK                         _______ _______ _______ _____ _____    ______ ____
ROOT
ATOM      1  N   UNL     1      32.925 -21.793 -19.092  0.00  0.00    -0.340 NA
ATOM      2  N   UNL     1      35.174 -22.383 -18.461  0.00  0.00    -0.186 NA
ATOM      3  N   UNL     1      32.543 -20.167 -20.777  0.00  0.00    -0.332 N 
ATOM      4  C   UNL     1      34.796 -20.732 -20.172  0.00  0.00    +0.071 C 
ATOM      5  C   UNL     1      33.442 -20.924 -19.985  0.00  0.00    +0.188 C 
ATOM      6  C   UNL     1      35.623 -21.496 -19.374  0.00  0.00    +0.112 C 
ATOM      7  C   UNL     1      33.833 -22.479 -18.374  0.00  0.00    +0.066 C 
ATOM      8  C   UNL     1      33.299 -23.449 -17.376  0.00  0.00    +0.129 C 
ATOM      9  H   UNL     1      31.572 -20.282 -20.665  0.00  0.00    +0.145 HD
ATOM     10  H   UNL     1      32.890 -19.525 -21.437  0.00  0.00    +0.145 HD
ENDROOT
BRANCH   4  11
ATOM     11  C   UNL     1      35.362 -19.775 -21.157  0.00  0.00    +0.169 C 
BRANCH  11  12
ATOM     12  O   UNL     1      35.270 -18.450 -20.643  0.00  0.00    -0.377 OA
ATOM     13  H   UNL     1      34.981 -18.481 -19.718  0.00  0.00    +0.211 HD
ENDBRANCH  11  12
ENDBRANCH   4  11
TORSDOF 2
ENDMDL
MODEL 2
REMARK VINA RESULT:      -5.9      8.958      9.289
REMARK  Name = 777
REMARK  2 active torsions:
REMARK  status: ('A' for Active; 'I' for Inactive)
REMARK    1  A    between atoms: C_4  and  C_11
REMARK    2  A    between atoms: C_11  and  O_12
REMARK                            x       y       z     vdW  Elec       q    Type
REMARK                         _______ _______ _______ _____ _____    ______ ____
ROOT
ATOM      1  N   UNL     1      39.031 -24.372 -12.861  0.00  0.00    -0.340 NA
ATOM      2  N   UNL     1      38.134 -26.396 -13.814  0.00  0.00    -0.186 NA
ATOM      3  N   UNL     1      37.658 -22.965 -11.534  0.00  0.00    -0.332 N 
ATOM      4  C   UNL     1      36.734 -24.973 -12.468  0.00  0.00    +0.071 C 
ATOM      5  C   UNL     1      37.821 -24.137 -12.314  0.00  0.00    +0.188 C 
ATOM      6  C   UNL     1      36.951 -26.098 -13.236  0.00  0.00    +0.112 C 
ATOM      7  C   UNL     1      39.117 -25.503 -13.588  0.00  0.00    +0.066 C 
ATOM      8  C   UNL     1      40.440 -25.796 -14.210  0.00  0.00    +0.129 C 
ATOM      9  H   UNL     1      38.416 -22.350 -11.407  0.00  0.00    +0.145 HD
ATOM     10  H   UNL     1      36.788 -22.765 -11.121  0.00  0.00    +0.145 HD
ENDROOT
BRANCH   4  11
ATOM     11  C   UNL     1      35.403 -24.711 -11.863  0.00  0.00    +0.169 C 
BRANCH  11  12
ATOM     12  O   UNL     1      35.431 -25.051 -10.480  0.00  0.00    -0.377 OA
ATOM     13  H   UNL     1      36.238 -25.553 -10.287  0.00  0.00    +0.211 HD
ENDBRANCH  11  12
ENDBRANCH   4  11
TORSDOF 2
ENDMDL
MODEL 3
REMARK VINA RESULT:      -5.9      0.848      2.083
REMARK  Name = 777
REMARK  2 active torsions:
REMARK  status: ('A' for Active; 'I' for Inactive)
REMARK    1  A    between atoms: C_4  and  C_11
REMARK    2  A    between atoms: C_11  and  O_12
REMARK                            x       y       z     vdW  Elec       q    Type
REMARK                         _______ _______ _______ _____ _____    ______ ____
ROOT
ATOM      1  N   UNL     1      35.038 -22.293 -18.740  0.00  0.00    -0.340 NA
ATOM      2  N   UNL     1      32.744 -21.667 -19.131  0.00  0.00    -0.186 NA
ATOM      3  N   UNL     1      36.793 -21.189 -19.893  0.00  0.00    -0.332 N 
ATOM      4  C   UNL     1      34.519 -20.541 -20.306  0.00  0.00    +0.071 C 
ATOM      5  C   UNL     1      35.409 -21.353 -19.633  0.00  0.00    +0.188 C 
ATOM      6  C   UNL     1      33.186 -20.745 -20.013  0.00  0.00    +0.112 C 
ATOM      7  C   UNL     1      33.711 -22.396 -18.540  0.00  0.00    +0.066 C 
ATOM      8  C   UNL     1      33.262 -23.425 -17.560  0.00  0.00    +0.129 C 
ATOM      9  H   UNL     1      37.451 -21.754 -19.428  0.00  0.00    +0.145 HD
ATOM     10  H   UNL     1      37.095 -20.511 -20.539  0.00  0.00    +0.145 HD
ENDROOT
BRANCH   4  11
ATOM     11  C   UNL     1      34.932 -19.506 -21.289  0.00  0.00    +0.169 C 
BRANCH  11  12
ATOM     12  O   UNL     1      35.733 -18.524 -20.639  0.00  0.00    -0.377 OA
ATOM     13  H   UNL     1      36.242 -18.941 -19.927  0.00  0.00    +0.211 HD
ENDBRANCH  11  12
ENDBRANCH   4  11
TORSDOF 2
ENDMDL
MODEL 4
REMARK VINA RESULT:      -5.8      2.251      4.277
REMARK  Name = 777
REMARK  2 active torsions:
REMARK  status: ('A' for Active; 'I' for Inactive)
REMARK    1  A    between atoms: C_4  and  C_11
REMARK    2  A    between atoms: C_11  and  O_12
REMARK                            x       y       z     vdW  Elec       q    Type
REMARK                         _______ _______ _______ _____ _____    ______ ____
ROOT
ATOM      1  N   UNL     1      35.715 -19.825 -20.456  0.00  0.00    -0.340 NA
ATOM      2  N   UNL     1      33.393 -19.469 -20.994  0.00  0.00    -0.186 NA
ATOM      3  N   UNL     1      36.358 -21.646 -19.078  0.00  0.00    -0.332 N 
ATOM      4  C   UNL     1      34.036 -21.320 -19.594  0.00  0.00    +0.071 C 
ATOM      5  C   UNL     1      35.345 -20.901 -19.732  0.00  0.00    +0.188 C 
ATOM      6  C   UNL     1      33.094 -20.557 -20.253  0.00  0.00    +0.112 C 
ATOM      7  C   UNL     1      34.704 -19.165 -21.051  0.00  0.00    +0.066 C 
ATOM      8  C   UNL     1      35.075 -17.969 -21.861  0.00  0.00    +0.129 C 
ATOM      9  H   UNL     1      37.299 -21.371 -19.158  0.00  0.00    +0.145 HD
ATOM     10  H   UNL     1      36.120 -22.436 -18.542  0.00  0.00    +0.145 HD
ENDROOT
BRANCH   4  11
ATOM     11  C   UNL     1      33.633 -22.506 -18.796  0.00  0.00    +0.169 C 
BRANCH  11  12
ATOM     12  O   UNL     1      34.009 -23.695 -19.484  0.00  0.00    -0.377 OA
ATOM     13  H   UNL     1      34.626 -23.473 -20.199  0.00  0.00    +0.211 HD
ENDBRANCH  11  12
ENDBRANCH   4  11
TORSDOF 2
ENDMDL
MODEL 5
REMARK VINA RESULT:      -5.8      6.741      7.800
REMARK  Name = 777
REMARK  2 active torsions:
REMARK  status: ('A' for Active; 'I' for Inactive)
REMARK    1  A    between atoms: C_4  and  C_11
REMARK    2  A    between atoms: C_11  and  O_12
REMARK                            x       y       z     vdW  Elec       q    Type
REMARK                         _______ _______ _______ _____ _____    ______ ____
ROOT
ATOM      1  N   UNL     1      38.324 -26.608 -14.697  0.00  0.00    -0.340 NA
ATOM      2  N   UNL     1      38.960 -24.284 -14.698  0.00  0.00    -0.186 NA
ATOM      3  N   UNL     1      36.054 -27.227 -15.000  0.00  0.00    -0.332 N 
ATOM      4  C   UNL     1      36.653 -24.902 -15.006  0.00  0.00    +0.071 C 
ATOM      5  C   UNL     1      37.047 -26.221 -14.897  0.00  0.00    +0.188 C 
ATOM      6  C   UNL     1      37.662 -23.968 -14.898  0.00  0.00    +0.112 C 
ATOM      7  C   UNL     1      39.215 -25.603 -14.609  0.00  0.00    +0.066 C 
ATOM      8  C   UNL     1      40.638 -25.992 -14.388  0.00  0.00    +0.129 C 
ATOM      9  H   UNL     1      36.305 -28.175 -14.926  0.00  0.00    +0.145 HD
ATOM     10  H   UNL     1      35.113 -26.976 -15.146  0.00  0.00    +0.145 HD
ENDROOT
BRANCH   4  11
ATOM     11  C   UNL     1      35.246 -24.480 -15.227  0.00  0.00    +0.169 C 
BRANCH  11  12
ATOM     12  O   UNL     1      34.438 -24.927 -14.142  0.00  0.00    -0.377 OA
ATOM     13  H   UNL     1      34.620 -24.385 -13.359  0.00  0.00    +0.211 HD
ENDBRANCH  11  12
ENDBRANCH   4  11
TORSDOF 2
ENDMDL
MODEL 6
REMARK VINA RESULT:      -5.7      2.264      3.813
REMARK  Name = 777
REMARK  2 active torsions:
REMARK  status: ('A' for Active; 'I' for Inactive)
REMARK    1  A    between atoms: C_4  and  C_11
REMARK    2  A    between atoms: C_11  and  O_12
REMARK                            x       y       z     vdW  Elec       q    Type
REMARK                         _______ _______ _______ _____ _____    ______ ____
ROOT
ATOM      1  N   UNL     1      34.349 -19.574 -21.048  0.00  0.00    -0.340 NA
ATOM      2  N   UNL     1      36.614 -19.974 -20.329  0.00  0.00    -0.186 NA
ATOM      3  N   UNL     1      32.578 -20.921 -20.227  0.00  0.00    -0.332 N 
ATOM      4  C   UNL     1      34.823 -21.347 -19.490  0.00  0.00    +0.071 C 
ATOM      5  C   UNL     1      33.958 -20.598 -20.262  0.00  0.00    +0.188 C 
ATOM      6  C   UNL     1      36.152 -20.986 -19.564  0.00  0.00    +0.112 C 
ATOM      7  C   UNL     1      35.672 -19.320 -21.035  0.00  0.00    +0.066 C 
ATOM      8  C   UNL     1      36.143 -18.195 -21.892  0.00  0.00    +0.129 C 
ATOM      9  H   UNL     1      31.938 -20.404 -20.767  0.00  0.00    +0.145 HD
ATOM     10  H   UNL     1      32.261 -21.662 -19.663  0.00  0.00    +0.145 HD
ENDROOT
BRANCH   4  11
ATOM     11  C   UNL     1      34.387 -22.473 -18.625  0.00  0.00    +0.169 C 
BRANCH  11  12
ATOM     12  O   UNL     1      33.952 -23.559 -19.438  0.00  0.00    -0.377 OA
ATOM     13  H   UNL     1      33.990 -23.300 -20.372  0.00  0.00    +0.211 HD
ENDBRANCH  11  12
ENDBRANCH   4  11
TORSDOF 2
ENDMDL
MODEL 7
REMARK VINA RESULT:      -5.6      5.380      7.451
REMARK  Name = 777
REMARK  2 active torsions:
REMARK  status: ('A' for Active; 'I' for Inactive)
REMARK    1  A    between atoms: C_4  and  C_11
REMARK    2  A    between atoms: C_11  and  O_12
REMARK                            x       y       z     vdW  Elec       q    Type
REMARK                         _______ _______ _______ _____ _____    ______ ____
ROOT
ATOM      1  N   UNL     1      33.890 -15.231 -23.973  0.00  0.00    -0.340 NA
ATOM      2  N   UNL     1      33.910 -16.639 -25.929  0.00  0.00    -0.186 NA
ATOM      3  N   UNL     1      34.773 -16.025 -21.919  0.00  0.00    -0.332 N 
ATOM      4  C   UNL     1      34.809 -17.453 -23.849  0.00  0.00    +0.071 C 
ATOM      5  C   UNL     1      34.478 -16.235 -23.290  0.00  0.00    +0.188 C 
ATOM      6  C   UNL     1      34.499 -17.599 -25.185  0.00  0.00    +0.112 C 
ATOM      7  C   UNL     1      33.637 -15.497 -25.269  0.00  0.00    +0.066 C 
ATOM      8  C   UNL     1      32.987 -14.411 -26.057  0.00  0.00    +0.129 C 
ATOM      9  H   UNL     1      34.548 -15.166 -21.494  0.00  0.00    +0.145 HD
ATOM     10  H   UNL     1      35.203 -16.737 -21.394  0.00  0.00    +0.145 HD
ENDROOT
BRANCH   4  11
ATOM     11  C   UNL     1      35.458 -18.554 -23.093  0.00  0.00    +0.169 C 
BRANCH  11  12
ATOM     12  O   UNL     1      36.754 -18.145 -22.669  0.00  0.00    -0.377 OA
ATOM     13  H   UNL     1      37.387 -18.273 -23.393  0.00  0.00    +0.211 HD
ENDBRANCH  11  12
ENDBRANCH   4  11
TORSDOF 2
ENDMDL
MODEL 8
REMARK VINA RESULT:      -5.5      6.063      7.935
REMARK  Name = 777
REMARK  2 active torsions:
REMARK  status: ('A' for Active; 'I' for Inactive)
REMARK    1  A    between atoms: C_4  and  C_11
REMARK    2  A    between atoms: C_11  and  O_12
REMARK                            x       y       z     vdW  Elec       q    Type
REMARK                         _______ _______ _______ _____ _____    ______ ____
ROOT
ATOM      1  N   UNL     1      38.325 -23.586 -15.102  0.00  0.00    -0.340 NA
ATOM      2  N   UNL     1      36.020 -23.891 -15.733  0.00  0.00    -0.186 NA
ATOM      3  N   UNL     1      39.410 -25.187 -13.727  0.00  0.00    -0.332 N 
ATOM      4  C   UNL     1      37.112 -25.520 -14.338  0.00  0.00    +0.071 C 
ATOM      5  C   UNL     1      38.251 -24.744 -14.413  0.00  0.00    +0.188 C 
ATOM      6  C   UNL     1      36.017 -25.039 -15.024  0.00  0.00    +0.112 C 
ATOM      7  C   UNL     1      37.190 -23.224 -15.729  0.00  0.00    +0.066 C 
ATOM      8  C   UNL     1      37.233 -21.949 -16.501  0.00  0.00    +0.129 C 
ATOM      9  H   UNL     1      40.236 -24.654 -13.763  0.00  0.00    +0.145 HD
ATOM     10  H   UNL     1      39.388 -26.027 -13.216  0.00  0.00    +0.145 HD
ENDROOT
BRANCH   4  11
ATOM     11  C   UNL     1      37.035 -26.795 -13.578  0.00  0.00    +0.169 C 
BRANCH  11  12
ATOM     12  O   UNL     1      36.913 -26.515 -12.187  0.00  0.00    -0.377 OA
ATOM     13  H   UNL     1      35.975 -26.445 -11.952  0.00  0.00    +0.211 HD
ENDBRANCH  11  12
ENDBRANCH   4  11
TORSDOF 2
ENDMDL
MODEL 9
REMARK VINA RESULT:      -5.5      6.030      7.392
REMARK  Name = 777
REMARK  2 active torsions:
REMARK  status: ('A' for Active; 'I' for Inactive)
REMARK    1  A    between atoms: C_4  and  C_11
REMARK    2  A    between atoms: C_11  and  O_12
REMARK                            x       y       z     vdW  Elec       q    Type
REMARK                         _______ _______ _______ _____ _____    ______ ____
ROOT
ATOM      1  N   UNL     1      38.861 -24.412 -14.794  0.00  0.00    -0.340 NA
ATOM      2  N   UNL     1      38.267 -26.741 -14.620  0.00  0.00    -0.186 NA
ATOM      3  N   UNL     1      37.179 -22.769 -15.106  0.00  0.00    -0.332 N 
ATOM      4  C   UNL     1      36.553 -25.080 -14.936  0.00  0.00    +0.071 C 
ATOM      5  C   UNL     1      37.551 -24.126 -14.940  0.00  0.00    +0.188 C 
ATOM      6  C   UNL     1      36.974 -26.383 -14.771  0.00  0.00    +0.112 C 
ATOM      7  C   UNL     1      39.145 -25.719 -14.641  0.00  0.00    +0.066 C 
ATOM      8  C   UNL     1      40.584 -26.074 -14.477  0.00  0.00    +0.129 C 
ATOM      9  H   UNL     1      37.868 -22.067 -15.113  0.00  0.00    +0.145 HD
ATOM     10  H   UNL     1      36.231 -22.528 -15.214  0.00  0.00    +0.145 HD
ENDROOT
BRANCH   4  11
ATOM     11  C   UNL     1      35.111 -24.761 -15.096  0.00  0.00    +0.169 C 
BRANCH  11  12
ATOM     12  O   UNL     1      34.902 -24.107 -16.344  0.00  0.00    -0.377 OA
ATOM     13  H   UNL     1      35.579 -24.394 -16.977  0.00  0.00    +0.211 HD
ENDBRANCH  11  12
ENDBRANCH   4  11
TORSDOF 2
ENDMDL
