MODEL 1
REMARK VINA RESULT:      -9.9      0.000      0.000
REMARK  Name = 11987779
REMARK  0 active torsions:
REMARK  status: ('A' for Active; 'I' for Inactive)
REMARK                            x       y       z     vdW  Elec       q    Type
REMARK                         _______ _______ _______ _____ _____    ______ ____
ROOT
ATOM      1  O   UNL     1      36.290 -23.399 -15.953  0.00  0.00    -0.294 OA
ATOM      2  N   UNL     1      32.888 -23.792 -14.991  0.00  0.00    +0.397 N 
ATOM      3  N   UNL     1      32.580 -22.308 -18.386  0.00  0.00    -0.358 N 
ATOM      4  C   UNL     1      32.139 -23.685 -16.272  0.00  0.00    -0.018 C 
ATOM      5  C   UNL     1      30.799 -22.971 -16.034  0.00  0.00    -0.015 C 
ATOM      6  C   UNL     1      32.998 -22.955 -17.257  0.00  0.00    +0.017 A 
ATOM      7  C   UNL     1      32.126 -24.559 -13.996  0.00  0.00    -0.076 C 
ATOM      8  C   UNL     1      29.971 -23.687 -14.970  0.00  0.00    -0.004 C 
ATOM      9  C   UNL     1      30.785 -23.888 -13.699  0.00  0.00    -0.023 C 
ATOM     10  C   UNL     1      34.234 -24.374 -15.167  0.00  0.00    -0.006 C 
ATOM     11  C   UNL     1      34.370 -22.853 -17.188  0.00  0.00    +0.043 A 
ATOM     12  C   UNL     1      35.073 -23.494 -16.094  0.00  0.00    +0.153 C 
ATOM     13  C   UNL     1      34.807 -22.078 -18.296  0.00  0.00    +0.019 A 
ATOM     14  C   UNL     1      33.664 -21.749 -19.032  0.00  0.00    +0.056 A 
ATOM     15  C   UNL     1      36.060 -21.625 -18.758  0.00  0.00    +0.002 C 
ATOM     16  C   UNL     1      33.714 -20.987 -20.204  0.00  0.00    +0.017 C 
ATOM     17  C   UNL     1      36.123 -20.861 -19.928  0.00  0.00    +0.000 C 
ATOM     18  C   UNL     1      34.967 -20.548 -20.640  0.00  0.00    +0.001 C 
ATOM     19  H   UNL     1      33.013 -22.839 -14.648  0.00  0.00    -0.078 HD
ATOM     20  H   UNL     1      31.646 -22.248 -18.692  0.00  0.00    +0.166 HD
ENDROOT
TORSDOF 0
ENDMDL
MODEL 2
REMARK VINA RESULT:      -9.4      7.717     10.449
REMARK  Name = 11987779
REMARK  0 active torsions:
REMARK  status: ('A' for Active; 'I' for Inactive)
REMARK                            x       y       z     vdW  Elec       q    Type
REMARK                         _______ _______ _______ _____ _____    ______ ____
ROOT
ATOM      1  O   UNL     1      33.592 -15.017 -25.789  0.00  0.00    -0.294 OA
ATOM      2  N   UNL     1      32.517 -13.125 -22.975  0.00  0.00    +0.397 N 
ATOM      3  N   UNL     1      34.109 -16.079 -21.375  0.00  0.00    -0.358 N 
ATOM      4  C   UNL     1      33.293 -13.697 -21.841  0.00  0.00    -0.018 C 
ATOM      5  C   UNL     1      32.431 -13.697 -20.568  0.00  0.00    -0.015 C 
ATOM      6  C   UNL     1      33.731 -15.077 -22.223  0.00  0.00    +0.017 A 
ATOM      7  C   UNL     1      32.111 -11.741 -22.692  0.00  0.00    -0.076 C 
ATOM      8  C   UNL     1      31.928 -12.294 -20.239  0.00  0.00    -0.004 C 
ATOM      9  C   UNL     1      31.232 -11.675 -21.442  0.00  0.00    -0.023 C 
ATOM     10  C   UNL     1      33.250 -13.193 -24.255  0.00  0.00    -0.006 C 
ATOM     11  C   UNL     1      33.853 -15.539 -23.514  0.00  0.00    +0.043 A 
ATOM     12  C   UNL     1      33.547 -14.649 -24.617  0.00  0.00    +0.153 C 
ATOM     13  C   UNL     1      34.284 -16.892 -23.456  0.00  0.00    +0.019 A 
ATOM     14  C   UNL     1      34.436 -17.206 -22.101  0.00  0.00    +0.056 A 
ATOM     15  C   UNL     1      34.567 -17.886 -24.415  0.00  0.00    +0.002 C 
ATOM     16  C   UNL     1      34.857 -18.466 -21.662  0.00  0.00    +0.017 C 
ATOM     17  C   UNL     1      34.987 -19.150 -23.988  0.00  0.00    +0.000 C 
ATOM     18  C   UNL     1      35.130 -19.435 -22.631  0.00  0.00    +0.001 C 
ATOM     19  H   UNL     1      31.681 -13.701 -23.073  0.00  0.00    -0.078 HD
ATOM     20  H   UNL     1      34.142 -16.010 -20.394  0.00  0.00    +0.166 HD
ENDROOT
TORSDOF 0
ENDMDL
MODEL 3
REMARK VINA RESULT:      -9.2      1.020      1.333
REMARK  Name = 11987779
REMARK  0 active torsions:
REMARK  status: ('A' for Active; 'I' for Inactive)
REMARK                            x       y       z     vdW  Elec       q    Type
REMARK                         _______ _______ _______ _____ _____    ______ ____
ROOT
ATOM      1  O   UNL     1      36.988 -22.225 -17.240  0.00  0.00    -0.294 OA
ATOM      2  N   UNL     1      33.993 -23.341 -15.679  0.00  0.00    +0.397 N 
ATOM      3  N   UNL     1      32.740 -21.983 -18.904  0.00  0.00    -0.358 N 
ATOM      4  C   UNL     1      33.011 -23.408 -16.794  0.00  0.00    -0.018 C 
ATOM      5  C   UNL     1      31.618 -23.001 -16.287  0.00  0.00    -0.015 C 
ATOM      6  C   UNL     1      33.492 -22.516 -17.896  0.00  0.00    +0.017 A 
ATOM      7  C   UNL     1      33.615 -24.249 -14.587  0.00  0.00    -0.076 C 
ATOM      8  C   UNL     1      31.179 -23.873 -15.114  0.00  0.00    -0.004 C 
ATOM      9  C   UNL     1      32.241 -23.884 -14.024  0.00  0.00    -0.023 C 
ATOM     10  C   UNL     1      35.374 -23.619 -16.121  0.00  0.00    -0.006 C 
ATOM     11  C   UNL     1      34.798 -22.118 -18.078  0.00  0.00    +0.043 A 
ATOM     12  C   UNL     1      35.816 -22.583 -17.157  0.00  0.00    +0.153 C 
ATOM     13  C   UNL     1      34.842 -21.274 -19.221  0.00  0.00    +0.019 A 
ATOM     14  C   UNL     1      33.537 -21.205 -19.720  0.00  0.00    +0.056 A 
ATOM     15  C   UNL     1      35.858 -20.562 -19.890  0.00  0.00    +0.002 C 
ATOM     16  C   UNL     1      33.201 -20.458 -20.854  0.00  0.00    +0.017 C 
ATOM     17  C   UNL     1      35.535 -19.811 -21.025  0.00  0.00    +0.000 C 
ATOM     18  C   UNL     1      34.226 -19.760 -21.499  0.00  0.00    +0.001 C 
ATOM     19  H   UNL     1      33.972 -22.381 -15.332  0.00  0.00    -0.078 HD
ATOM     20  H   UNL     1      31.775 -22.129 -19.030  0.00  0.00    +0.166 HD
ENDROOT
TORSDOF 0
ENDMDL
MODEL 4
REMARK VINA RESULT:      -9.2     10.513     13.738
REMARK  Name = 11987779
REMARK  0 active torsions:
REMARK  status: ('A' for Active; 'I' for Inactive)
REMARK                            x       y       z     vdW  Elec       q    Type
REMARK                         _______ _______ _______ _____ _____    ______ ____
ROOT
ATOM      1  O   UNL     1      30.629 -11.543 -21.078  0.00  0.00    -0.294 OA
ATOM      2  N   UNL     1      32.583  -9.191 -22.895  0.00  0.00    +0.397 N 
ATOM      3  N   UNL     1      34.161 -12.423 -23.839  0.00  0.00    -0.358 N 
ATOM      4  C   UNL     1      33.281 -10.019 -23.916  0.00  0.00    -0.018 C 
ATOM      5  C   UNL     1      34.694  -9.463 -24.158  0.00  0.00    -0.015 C 
ATOM      6  C   UNL     1      33.310 -11.435 -23.431  0.00  0.00    +0.017 A 
ATOM      7  C   UNL     1      32.462  -7.796 -23.339  0.00  0.00    -0.076 C 
ATOM      8  C   UNL     1      34.649  -7.996 -24.576  0.00  0.00    -0.004 C 
ATOM      9  C   UNL     1      33.839  -7.177 -23.581  0.00  0.00    -0.023 C 
ATOM     10  C   UNL     1      31.257  -9.733 -22.536  0.00  0.00    -0.006 C 
ATOM     11  C   UNL     1      32.442 -11.972 -22.506  0.00  0.00    +0.043 A 
ATOM     12  C   UNL     1      31.402 -11.134 -21.940  0.00  0.00    +0.153 C 
ATOM     13  C   UNL     1      32.800 -13.332 -22.309  0.00  0.00    +0.019 A 
ATOM     14  C   UNL     1      33.883 -13.589 -23.157  0.00  0.00    +0.056 A 
ATOM     15  C   UNL     1      32.313 -14.380 -21.500  0.00  0.00    +0.002 C 
ATOM     16  C   UNL     1      34.501 -14.842 -23.232  0.00  0.00    +0.017 C 
ATOM     17  C   UNL     1      32.925 -15.637 -21.566  0.00  0.00    +0.000 C 
ATOM     18  C   UNL     1      34.002 -15.863 -22.419  0.00  0.00    +0.001 C 
ATOM     19  H   UNL     1      33.161  -9.220 -22.054  0.00  0.00    -0.078 HD
ATOM     20  H   UNL     1      34.868 -12.318 -24.516  0.00  0.00    +0.166 HD
ENDROOT
TORSDOF 0
ENDMDL
MODEL 5
REMARK VINA RESULT:      -9.2      8.019     10.899
REMARK  Name = 11987779
REMARK  0 active torsions:
REMARK  status: ('A' for Active; 'I' for Inactive)
REMARK                            x       y       z     vdW  Elec       q    Type
REMARK                         _______ _______ _______ _____ _____    ______ ____
ROOT
ATOM      1  O   UNL     1      33.250 -13.353 -25.151  0.00  0.00    -0.294 OA
ATOM      2  N   UNL     1      34.547 -16.126 -23.339  0.00  0.00    +0.397 N 
ATOM      3  N   UNL     1      32.707 -14.256 -20.705  0.00  0.00    -0.358 N 
ATOM      4  C   UNL     1      33.740 -16.147 -22.090  0.00  0.00    -0.018 C 
ATOM      5  C   UNL     1      34.619 -16.590 -20.909  0.00  0.00    -0.015 C 
ATOM      6  C   UNL     1      33.165 -14.780 -21.881  0.00  0.00    +0.017 A 
ATOM      7  C   UNL     1      35.088 -17.459 -23.641  0.00  0.00    -0.076 C 
ATOM      8  C   UNL     1      35.258 -17.950 -21.174  0.00  0.00    -0.004 C 
ATOM      9  C   UNL     1      35.990 -17.951 -22.509  0.00  0.00    -0.023 C 
ATOM     10  C   UNL     1      33.790 -15.607 -24.496  0.00  0.00    -0.006 C 
ATOM     11  C   UNL     1      32.978 -13.841 -22.871  0.00  0.00    +0.043 A 
ATOM     12  C   UNL     1      33.349 -14.165 -24.234  0.00  0.00    +0.153 C 
ATOM     13  C   UNL     1      32.421 -12.679 -22.272  0.00  0.00    +0.019 A 
ATOM     14  C   UNL     1      32.262 -12.966 -20.912  0.00  0.00    +0.056 A 
ATOM     15  C   UNL     1      32.028 -11.410 -22.743  0.00  0.00    +0.002 C 
ATOM     16  C   UNL     1      31.730 -12.044 -20.003  0.00  0.00    +0.017 C 
ATOM     17  C   UNL     1      31.496 -10.479 -21.844  0.00  0.00    +0.000 C 
ATOM     18  C   UNL     1      31.350 -10.793 -20.495  0.00  0.00    +0.001 C 
ATOM     19  H   UNL     1      35.323 -15.485 -23.172  0.00  0.00    -0.078 HD
ATOM     20  H   UNL     1      32.698 -14.726 -19.840  0.00  0.00    +0.166 HD
ENDROOT
TORSDOF 0
ENDMDL
MODEL 6
REMARK VINA RESULT:      -9.2      2.641      4.285
REMARK  Name = 11987779
REMARK  0 active torsions:
REMARK  status: ('A' for Active; 'I' for Inactive)
REMARK                            x       y       z     vdW  Elec       q    Type
REMARK                         _______ _______ _______ _____ _____    ______ ____
ROOT
ATOM      1  O   UNL     1      32.826 -23.761 -15.577  0.00  0.00    -0.294 OA
ATOM      2  N   UNL     1      35.867 -24.657 -13.964  0.00  0.00    +0.397 N 
ATOM      3  N   UNL     1      37.057 -22.485 -16.737  0.00  0.00    -0.358 N 
ATOM      4  C   UNL     1      36.848 -23.660 -14.471  0.00  0.00    -0.018 C 
ATOM      5  C   UNL     1      38.225 -24.324 -14.640  0.00  0.00    -0.015 C 
ATOM      6  C   UNL     1      36.329 -23.106 -15.762  0.00  0.00    +0.017 A 
ATOM      7  C   UNL     1      36.284 -25.193 -12.661  0.00  0.00    -0.076 C 
ATOM      8  C   UNL     1      38.702 -24.951 -13.332  0.00  0.00    -0.004 C 
ATOM      9  C   UNL     1      37.643 -25.886 -12.765  0.00  0.00    -0.023 C 
ATOM     10  C   UNL     1      34.497 -24.111 -13.880  0.00  0.00    -0.006 C 
ATOM     11  C   UNL     1      35.008 -23.112 -16.150  0.00  0.00    +0.043 A 
ATOM     12  C   UNL     1      34.012 -23.684 -15.266  0.00  0.00    +0.153 C 
ATOM     13  C   UNL     1      34.927 -22.507 -17.434  0.00  0.00    +0.019 A 
ATOM     14  C   UNL     1      36.227 -22.123 -17.779  0.00  0.00    +0.056 A 
ATOM     15  C   UNL     1      33.881 -22.237 -18.340  0.00  0.00    +0.002 C 
ATOM     16  C   UNL     1      36.530 -21.485 -18.987  0.00  0.00    +0.017 C 
ATOM     17  C   UNL     1      34.172 -21.601 -19.552  0.00  0.00    +0.000 C 
ATOM     18  C   UNL     1      35.477 -21.231 -19.869  0.00  0.00    +0.001 C 
ATOM     19  H   UNL     1      35.849 -25.418 -14.644  0.00  0.00    -0.078 HD
ATOM     20  H   UNL     1      38.027 -22.322 -16.704  0.00  0.00    +0.166 HD
ENDROOT
TORSDOF 0
ENDMDL
MODEL 7
REMARK VINA RESULT:      -9.1     10.873     13.492
REMARK  Name = 11987779
REMARK  0 active torsions:
REMARK  status: ('A' for Active; 'I' for Inactive)
REMARK                            x       y       z     vdW  Elec       q    Type
REMARK                         _______ _______ _______ _____ _____    ______ ____
ROOT
ATOM      1  O   UNL     1      34.730 -10.781 -25.506  0.00  0.00    -0.294 OA
ATOM      2  N   UNL     1      33.636 -13.458 -23.435  0.00  0.00    +0.397 N 
ATOM      3  N   UNL     1      31.964 -10.525 -21.878  0.00  0.00    -0.358 N 
ATOM      4  C   UNL     1      32.465 -12.895 -22.710  0.00  0.00    -0.018 C 
ATOM      5  C   UNL     1      32.421 -13.454 -21.279  0.00  0.00    -0.015 C 
ATOM      6  C   UNL     1      32.577 -11.402 -22.728  0.00  0.00    +0.017 A 
ATOM      7  C   UNL     1      33.554 -14.924 -23.513  0.00  0.00    -0.076 C 
ATOM      8  C   UNL     1      32.386 -14.980 -21.280  0.00  0.00    -0.004 C 
ATOM      9  C   UNL     1      33.525 -15.544 -22.116  0.00  0.00    -0.023 C 
ATOM     10  C   UNL     1      33.798 -12.881 -24.785  0.00  0.00    -0.006 C 
ATOM     11  C   UNL     1      33.305 -10.674 -23.643  0.00  0.00    +0.043 A 
ATOM     12  C   UNL     1      34.027 -11.371 -24.690  0.00  0.00    +0.153 C 
ATOM     13  C   UNL     1      33.165  -9.298 -23.318  0.00  0.00    +0.019 A 
ATOM     14  C   UNL     1      32.319  -9.233 -22.205  0.00  0.00    +0.056 A 
ATOM     15  C   UNL     1      33.666  -8.095 -23.856  0.00  0.00    +0.002 C 
ATOM     16  C   UNL     1      31.952  -8.022 -21.607  0.00  0.00    +0.017 C 
ATOM     17  C   UNL     1      33.307  -6.879 -23.265  0.00  0.00    +0.000 C 
ATOM     18  C   UNL     1      32.463  -6.844 -22.157  0.00  0.00    +0.001 C 
ATOM     19  H   UNL     1      34.462 -13.202 -22.894  0.00  0.00    -0.078 HD
ATOM     20  H   UNL     1      31.361 -10.777 -21.142  0.00  0.00    +0.166 HD
ENDROOT
TORSDOF 0
ENDMDL
MODEL 8
REMARK VINA RESULT:      -9.0      2.952      6.257
REMARK  Name = 11987779
REMARK  0 active torsions:
REMARK  status: ('A' for Active; 'I' for Inactive)
REMARK                            x       y       z     vdW  Elec       q    Type
REMARK                         _______ _______ _______ _____ _____    ______ ____
ROOT
ATOM      1  O   UNL     1      32.474 -22.415 -18.286  0.00  0.00    -0.294 OA
ATOM      2  N   UNL     1      34.238 -20.228 -20.467  0.00  0.00    +0.397 N 
ATOM      3  N   UNL     1      36.964 -21.569 -18.323  0.00  0.00    -0.358 N 
ATOM      4  C   UNL     1      35.658 -20.650 -20.325  0.00  0.00    -0.018 C 
ATOM      5  C   UNL     1      36.578 -19.422 -20.417  0.00  0.00    -0.015 C 
ATOM      6  C   UNL     1      35.806 -21.367 -19.019  0.00  0.00    +0.017 A 
ATOM      7  C   UNL     1      34.008 -19.574 -21.763  0.00  0.00    -0.076 C 
ATOM      8  C   UNL     1      36.357 -18.660 -21.721  0.00  0.00    -0.004 C 
ATOM      9  C   UNL     1      34.883 -18.329 -21.909  0.00  0.00    -0.023 C 
ATOM     10  C   UNL     1      33.293 -21.348 -20.283  0.00  0.00    -0.006 C 
ATOM     11  C   UNL     1      34.779 -21.970 -18.328  0.00  0.00    +0.043 A 
ATOM     12  C   UNL     1      33.437 -21.936 -18.878  0.00  0.00    +0.153 C 
ATOM     13  C   UNL     1      35.321 -22.530 -17.140  0.00  0.00    +0.019 A 
ATOM     14  C   UNL     1      36.694 -22.263 -17.161  0.00  0.00    +0.056 A 
ATOM     15  C   UNL     1      34.790 -23.244 -16.046  0.00  0.00    +0.002 C 
ATOM     16  C   UNL     1      37.559 -22.674 -16.141  0.00  0.00    +0.017 C 
ATOM     17  C   UNL     1      35.644 -23.659 -15.019  0.00  0.00    +0.000 C 
ATOM     18  C   UNL     1      37.008 -23.378 -15.067  0.00  0.00    +0.001 C 
ATOM     19  H   UNL     1      34.060 -19.555 -19.721  0.00  0.00    -0.078 HD
ATOM     20  H   UNL     1      37.856 -21.264 -18.606  0.00  0.00    +0.166 HD
ENDROOT
TORSDOF 0
ENDMDL
MODEL 9
REMARK VINA RESULT:      -9.0      2.813      5.293
REMARK  Name = 11987779
REMARK  0 active torsions:
REMARK  status: ('A' for Active; 'I' for Inactive)
REMARK                            x       y       z     vdW  Elec       q    Type
REMARK                         _______ _______ _______ _____ _____    ______ ____
ROOT
ATOM      1  O   UNL     1      34.793 -22.809 -17.272  0.00  0.00    -0.294 OA
ATOM      2  N   UNL     1      36.247 -23.467 -14.094  0.00  0.00    +0.397 N 
ATOM      3  N   UNL     1      32.648 -24.166 -13.473  0.00  0.00    -0.358 N 
ATOM      4  C   UNL     1      35.206 -24.255 -13.380  0.00  0.00    -0.018 C 
ATOM      5  C   UNL     1      35.208 -23.889 -11.887  0.00  0.00    -0.015 C 
ATOM      6  C   UNL     1      33.884 -23.978 -14.025  0.00  0.00    +0.017 A 
ATOM      7  C   UNL     1      37.584 -23.744 -13.551  0.00  0.00    -0.076 C 
ATOM      8  C   UNL     1      36.585 -24.105 -11.265  0.00  0.00    -0.004 C 
ATOM      9  C   UNL     1      37.658 -23.382 -12.068  0.00  0.00    -0.023 C 
ATOM     10  C   UNL     1      36.228 -23.692 -15.553  0.00  0.00    -0.006 C 
ATOM     11  C   UNL     1      33.713 -23.513 -15.310  0.00  0.00    +0.043 A 
ATOM     12  C   UNL     1      34.879 -23.267 -16.136  0.00  0.00    +0.153 C 
ATOM     13  C   UNL     1      32.318 -23.372 -15.542  0.00  0.00    +0.019 A 
ATOM     14  C   UNL     1      31.673 -23.788 -14.373  0.00  0.00    +0.056 A 
ATOM     15  C   UNL     1      31.531 -22.938 -16.629  0.00  0.00    +0.002 C 
ATOM     16  C   UNL     1      30.280 -23.788 -14.239  0.00  0.00    +0.017 C 
ATOM     17  C   UNL     1      30.137 -22.933 -16.507  0.00  0.00    +0.000 C 
ATOM     18  C   UNL     1      29.522 -23.352 -15.329  0.00  0.00    +0.001 C 
ATOM     19  H   UNL     1      36.024 -22.483 -13.936  0.00  0.00    -0.078 HD
ATOM     20  H   UNL     1      32.479 -24.516 -12.569  0.00  0.00    +0.166 HD
ENDROOT
TORSDOF 0
ENDMDL
