MODEL 1
REMARK VINA RESULT:     -10.0      0.000      0.000
REMARK  Name = 11001318
REMARK  3 active torsions:
REMARK  status: ('A' for Active; 'I' for Inactive)
REMARK    1  A    between atoms: C_5  and  C_12
REMARK    2  A    between atoms: C_8  and  C_19
REMARK    3  A    between atoms: C_19  and  O_20
REMARK                            x       y       z     vdW  Elec       q    Type
REMARK                         _______ _______ _______ _____ _____    ______ ____
ROOT
ATOM      1  O   UNL     1      33.664 -18.235 -21.427  0.00  0.00    -0.425 OA
ATOM      2  N   UNL     1      35.828 -17.645 -21.748  0.00  0.00    -0.368 NA
ATOM      3  C   UNL     1      34.451 -19.209 -20.883  0.00  0.00    +0.174 C 
ATOM      4  C   UNL     1      35.775 -18.845 -21.081  0.00  0.00    +0.151 C 
ATOM      5  C   UNL     1      34.562 -17.338 -21.923  0.00  0.00    +0.282 C 
ATOM      6  C   UNL     1      34.037 -20.369 -20.239  0.00  0.00    +0.046 C 
ATOM      7  C   UNL     1      36.788 -19.690 -20.609  0.00  0.00    +0.088 C 
ATOM      8  C   UNL     1      35.060 -21.201 -19.773  0.00  0.00    +0.075 C 
ATOM      9  C   UNL     1      36.410 -20.870 -19.954  0.00  0.00    -0.012 C 
ENDROOT
BRANCH   5  12
ATOM     10 CL   UNL     1      32.090 -12.834 -21.469  0.00  0.00    -0.082 Cl
ATOM     11 CL   UNL     1      33.506 -14.804 -26.289  0.00  0.00    -0.082 Cl
ATOM     12  C   UNL     1      33.985 -16.188 -22.562  0.00  0.00    +0.068 C 
ATOM     13  C   UNL     1      34.020 -16.066 -23.955  0.00  0.00    +0.017 C 
ATOM     14  C   UNL     1      33.386 -15.184 -21.797  0.00  0.00    +0.017 C 
ATOM     15  C   UNL     1      32.826 -14.066 -22.417  0.00  0.00    +0.059 C 
ATOM     16  C   UNL     1      33.461 -14.949 -24.575  0.00  0.00    +0.059 C 
ATOM     17  C   UNL     1      32.863 -13.949 -23.807  0.00  0.00    +0.023 C 
ENDBRANCH   5  12
BRANCH   8  19
ATOM     18  O   UNL     1      33.954 -23.307 -19.523  0.00  0.00    -0.245 OA
ATOM     19  C   UNL     1      34.714 -22.436 -19.088  0.00  0.00    +0.338 C 
BRANCH  19  20
ATOM     20  O   UNL     1      35.327 -22.550 -17.878  0.00  0.00    -0.477 OA
ATOM     21  H   UNL     1      35.310 -23.367 -17.420  0.00  0.00    +0.295 HD
ENDBRANCH  19  20
ENDBRANCH   8  19
TORSDOF 3
ENDMDL
MODEL 2
REMARK VINA RESULT:     -10.0      0.010      2.020
REMARK  Name = 11001318
REMARK  3 active torsions:
REMARK  status: ('A' for Active; 'I' for Inactive)
REMARK    1  A    between atoms: C_5  and  C_12
REMARK    2  A    between atoms: C_8  and  C_19
REMARK    3  A    between atoms: C_19  and  O_20
REMARK                            x       y       z     vdW  Elec       q    Type
REMARK                         _______ _______ _______ _____ _____    ______ ____
ROOT
ATOM      1  O   UNL     1      33.662 -18.232 -21.421  0.00  0.00    -0.425 OA
ATOM      2  N   UNL     1      35.826 -17.642 -21.741  0.00  0.00    -0.368 NA
ATOM      3  C   UNL     1      34.449 -19.208 -20.878  0.00  0.00    +0.174 C 
ATOM      4  C   UNL     1      35.772 -18.842 -21.076  0.00  0.00    +0.151 C 
ATOM      5  C   UNL     1      34.559 -17.334 -21.916  0.00  0.00    +0.282 C 
ATOM      6  C   UNL     1      34.035 -20.368 -20.237  0.00  0.00    +0.046 C 
ATOM      7  C   UNL     1      36.786 -19.689 -20.605  0.00  0.00    +0.088 C 
ATOM      8  C   UNL     1      35.058 -21.202 -19.773  0.00  0.00    +0.075 C 
ATOM      9  C   UNL     1      36.407 -20.870 -19.952  0.00  0.00    -0.012 C 
ENDROOT
BRANCH   5  12
ATOM     10 CL   UNL     1      33.503 -14.791 -26.277  0.00  0.00    -0.082 Cl
ATOM     11 CL   UNL     1      32.089 -12.831 -21.452  0.00  0.00    -0.082 Cl
ATOM     12  C   UNL     1      33.983 -16.183 -22.553  0.00  0.00    +0.068 C 
ATOM     13  C   UNL     1      33.384 -15.180 -21.784  0.00  0.00    +0.017 C 
ATOM     14  C   UNL     1      34.018 -16.058 -23.944  0.00  0.00    +0.017 C 
ATOM     15  C   UNL     1      33.457 -14.940 -24.563  0.00  0.00    +0.059 C 
ATOM     16  C   UNL     1      32.824 -14.063 -22.403  0.00  0.00    +0.059 C 
ATOM     17  C   UNL     1      32.861 -13.942 -23.792  0.00  0.00    +0.023 C 
ENDBRANCH   5  12
BRANCH   8  19
ATOM     18  O   UNL     1      33.949 -23.307 -19.525  0.00  0.00    -0.245 OA
ATOM     19  C   UNL     1      34.712 -22.438 -19.089  0.00  0.00    +0.338 C 
BRANCH  19  20
ATOM     20  O   UNL     1      35.328 -22.555 -17.881  0.00  0.00    -0.477 OA
ATOM     21  H   UNL     1      36.212 -22.862 -17.835  0.00  0.00    +0.295 HD
ENDBRANCH  19  20
ENDBRANCH   8  19
TORSDOF 3
ENDMDL
MODEL 3
REMARK VINA RESULT:      -9.8      0.948      1.050
REMARK  Name = 11001318
REMARK  3 active torsions:
REMARK  status: ('A' for Active; 'I' for Inactive)
REMARK    1  A    between atoms: C_5  and  C_12
REMARK    2  A    between atoms: C_8  and  C_19
REMARK    3  A    between atoms: C_19  and  O_20
REMARK                            x       y       z     vdW  Elec       q    Type
REMARK                         _______ _______ _______ _____ _____    ______ ____
ROOT
ATOM      1  O   UNL     1      33.080 -17.900 -21.144  0.00  0.00    -0.425 OA
ATOM      2  N   UNL     1      35.284 -17.505 -21.492  0.00  0.00    -0.368 NA
ATOM      3  C   UNL     1      33.773 -19.013 -20.760  0.00  0.00    +0.174 C 
ATOM      4  C   UNL     1      35.121 -18.767 -20.975  0.00  0.00    +0.151 C 
ATOM      5  C   UNL     1      34.053 -17.047 -21.569  0.00  0.00    +0.282 C 
ATOM      6  C   UNL     1      33.255 -20.194 -20.244  0.00  0.00    +0.046 C 
ATOM      7  C   UNL     1      36.050 -19.767 -20.656  0.00  0.00    +0.088 C 
ATOM      8  C   UNL     1      34.196 -21.182 -19.931  0.00  0.00    +0.075 C 
ATOM      9  C   UNL     1      35.566 -20.974 -20.133  0.00  0.00    -0.012 C 
ENDROOT
BRANCH   5  12
ATOM     10 CL   UNL     1      31.935 -12.474 -20.476  0.00  0.00    -0.082 Cl
ATOM     11 CL   UNL     1      33.311 -13.815 -25.519  0.00  0.00    -0.082 Cl
ATOM     12  C   UNL     1      33.586 -15.772 -22.036  0.00  0.00    +0.068 C 
ATOM     13  C   UNL     1      33.665 -15.447 -23.393  0.00  0.00    +0.017 C 
ATOM     14  C   UNL     1      33.049 -14.848 -21.136  0.00  0.00    +0.017 C 
ATOM     15  C   UNL     1      32.595 -13.608 -21.589  0.00  0.00    +0.059 C 
ATOM     16  C   UNL     1      33.212 -14.209 -23.846  0.00  0.00    +0.059 C 
ATOM     17  C   UNL     1      32.676 -13.289 -22.944  0.00  0.00    +0.023 C 
ENDBRANCH   5  12
BRANCH   8  19
ATOM     18  O   UNL     1      34.245 -23.553 -19.616  0.00  0.00    -0.245 OA
ATOM     19  C   UNL     1      33.738 -22.450 -19.386  0.00  0.00    +0.338 C 
BRANCH  19  20
ATOM     20  O   UNL     1      32.661 -22.306 -18.566  0.00  0.00    -0.477 OA
ATOM     21  H   UNL     1      31.802 -22.234 -18.931  0.00  0.00    +0.295 HD
ENDBRANCH  19  20
ENDBRANCH   8  19
TORSDOF 3
ENDMDL
MODEL 4
REMARK VINA RESULT:      -9.7      7.539      9.928
REMARK  Name = 11001318
REMARK  3 active torsions:
REMARK  status: ('A' for Active; 'I' for Inactive)
REMARK    1  A    between atoms: C_5  and  C_12
REMARK    2  A    between atoms: C_8  and  C_19
REMARK    3  A    between atoms: C_19  and  O_20
REMARK                            x       y       z     vdW  Elec       q    Type
REMARK                         _______ _______ _______ _____ _____    ______ ____
ROOT
ATOM      1  O   UNL     1      36.095 -24.187 -15.710  0.00  0.00    -0.425 OA
ATOM      2  N   UNL     1      35.037 -24.590 -13.746  0.00  0.00    -0.368 NA
ATOM      3  C   UNL     1      37.012 -24.695 -14.834  0.00  0.00    +0.174 C 
ATOM      4  C   UNL     1      36.361 -24.939 -13.634  0.00  0.00    +0.151 C 
ATOM      5  C   UNL     1      34.942 -24.155 -14.984  0.00  0.00    +0.282 C 
ATOM      6  C   UNL     1      38.360 -24.936 -15.068  0.00  0.00    +0.046 C 
ATOM      7  C   UNL     1      37.093 -25.469 -12.562  0.00  0.00    +0.088 C 
ATOM      8  C   UNL     1      39.076 -25.464 -13.988  0.00  0.00    +0.075 C 
ATOM      9  C   UNL     1      38.457 -25.726 -12.759  0.00  0.00    -0.012 C 
ENDROOT
BRANCH   5  12
ATOM     10 CL   UNL     1      32.997 -21.931 -19.212  0.00  0.00    -0.082 Cl
ATOM     11 CL   UNL     1      29.856 -23.303 -15.044  0.00  0.00    -0.082 Cl
ATOM     12  C   UNL     1      33.793 -23.653 -15.685  0.00  0.00    +0.068 C 
ATOM     13  C   UNL     1      32.527 -23.713 -15.095  0.00  0.00    +0.017 C 
ATOM     14  C   UNL     1      33.934 -23.099 -16.960  0.00  0.00    +0.017 C 
ATOM     15  C   UNL     1      32.818 -22.612 -17.642  0.00  0.00    +0.059 C 
ATOM     16  C   UNL     1      31.412 -23.226 -15.775  0.00  0.00    +0.059 C 
ATOM     17  C   UNL     1      31.557 -22.674 -17.049  0.00  0.00    +0.023 C 
ENDBRANCH   5  12
BRANCH   8  19
ATOM     18  O   UNL     1      41.054 -26.801 -13.833  0.00  0.00    -0.245 OA
ATOM     19  C   UNL     1      40.494 -25.746 -14.148  0.00  0.00    +0.338 C 
BRANCH  19  20
ATOM     20  O   UNL     1      41.174 -24.702 -14.698  0.00  0.00    -0.477 OA
ATOM     21  H   UNL     1      41.672 -24.128 -14.150  0.00  0.00    +0.295 HD
ENDBRANCH  19  20
ENDBRANCH   8  19
TORSDOF 3
ENDMDL
MODEL 5
REMARK VINA RESULT:      -9.7      8.733     10.725
REMARK  Name = 11001318
REMARK  3 active torsions:
REMARK  status: ('A' for Active; 'I' for Inactive)
REMARK    1  A    between atoms: C_5  and  C_12
REMARK    2  A    between atoms: C_8  and  C_19
REMARK    3  A    between atoms: C_19  and  O_20
REMARK                            x       y       z     vdW  Elec       q    Type
REMARK                         _______ _______ _______ _____ _____    ______ ____
ROOT
ATOM      1  O   UNL     1      32.782 -23.224 -15.758  0.00  0.00    -0.425 OA
ATOM      2  N   UNL     1      32.457 -24.765 -14.128  0.00  0.00    -0.368 NA
ATOM      3  C   UNL     1      31.443 -23.486 -15.686  0.00  0.00    +0.174 C 
ATOM      4  C   UNL     1      31.249 -24.429 -14.688  0.00  0.00    +0.151 C 
ATOM      5  C   UNL     1      33.317 -24.027 -14.796  0.00  0.00    +0.282 C 
ATOM      6  C   UNL     1      30.431 -22.928 -16.457  0.00  0.00    +0.046 C 
ATOM      7  C   UNL     1      29.946 -24.869 -14.417  0.00  0.00    +0.088 C 
ATOM      8  C   UNL     1      29.136 -23.377 -16.173  0.00  0.00    +0.075 C 
ATOM      9  C   UNL     1      28.897 -24.329 -15.174  0.00  0.00    -0.012 C 
ENDROOT
BRANCH   5  12
ATOM     10 CL   UNL     1      37.598 -25.603 -12.389  0.00  0.00    -0.082 Cl
ATOM     11 CL   UNL     1      37.770 -21.939 -16.348  0.00  0.00    -0.082 Cl
ATOM     12  C   UNL     1      34.744 -23.944 -14.656  0.00  0.00    +0.068 C 
ATOM     13  C   UNL     1      35.482 -23.082 -15.474  0.00  0.00    +0.017 C 
ATOM     14  C   UNL     1      35.404 -24.722 -13.702  0.00  0.00    +0.017 C 
ATOM     15  C   UNL     1      36.791 -24.642 -13.566  0.00  0.00    +0.059 C 
ATOM     16  C   UNL     1      36.868 -23.002 -15.339  0.00  0.00    +0.059 C 
ATOM     17  C   UNL     1      37.522 -23.781 -14.384  0.00  0.00    +0.023 C 
ENDBRANCH   5  12
BRANCH   8  19
ATOM     18  O   UNL     1      27.609 -21.680 -16.885  0.00  0.00    -0.245 OA
ATOM     19  C   UNL     1      28.018 -22.844 -16.934  0.00  0.00    +0.338 C 
BRANCH  19  20
ATOM     20  O   UNL     1      27.441 -23.780 -17.737  0.00  0.00    -0.477 OA
ATOM     21  H   UNL     1      27.789 -23.942 -18.592  0.00  0.00    +0.295 HD
ENDBRANCH  19  20
ENDBRANCH   8  19
TORSDOF 3
ENDMDL
MODEL 6
REMARK VINA RESULT:      -9.7      8.732     10.803
REMARK  Name = 11001318
REMARK  3 active torsions:
REMARK  status: ('A' for Active; 'I' for Inactive)
REMARK    1  A    between atoms: C_5  and  C_12
REMARK    2  A    between atoms: C_8  and  C_19
REMARK    3  A    between atoms: C_19  and  O_20
REMARK                            x       y       z     vdW  Elec       q    Type
REMARK                         _______ _______ _______ _____ _____    ______ ____
ROOT
ATOM      1  O   UNL     1      32.786 -23.226 -15.762  0.00  0.00    -0.425 OA
ATOM      2  N   UNL     1      32.460 -24.761 -14.127  0.00  0.00    -0.368 NA
ATOM      3  C   UNL     1      31.447 -23.485 -15.689  0.00  0.00    +0.174 C 
ATOM      4  C   UNL     1      31.251 -24.425 -14.688  0.00  0.00    +0.151 C 
ATOM      5  C   UNL     1      33.320 -24.027 -14.798  0.00  0.00    +0.282 C 
ATOM      6  C   UNL     1      30.435 -22.928 -16.461  0.00  0.00    +0.046 C 
ATOM      7  C   UNL     1      29.948 -24.862 -14.414  0.00  0.00    +0.088 C 
ATOM      8  C   UNL     1      29.140 -23.375 -16.176  0.00  0.00    +0.075 C 
ATOM      9  C   UNL     1      28.899 -24.323 -15.173  0.00  0.00    -0.012 C 
ENDROOT
BRANCH   5  12
ATOM     10 CL   UNL     1      37.776 -21.942 -16.348  0.00  0.00    -0.082 Cl
ATOM     11 CL   UNL     1      37.600 -25.612 -12.395  0.00  0.00    -0.082 Cl
ATOM     12  C   UNL     1      34.747 -23.945 -14.658  0.00  0.00    +0.068 C 
ATOM     13  C   UNL     1      35.407 -24.727 -13.706  0.00  0.00    +0.017 C 
ATOM     14  C   UNL     1      35.486 -23.084 -15.475  0.00  0.00    +0.017 C 
ATOM     15  C   UNL     1      36.872 -23.003 -15.340  0.00  0.00    +0.059 C 
ATOM     16  C   UNL     1      36.793 -24.647 -13.569  0.00  0.00    +0.059 C 
ATOM     17  C   UNL     1      37.526 -23.786 -14.387  0.00  0.00    +0.023 C 
ENDBRANCH   5  12
BRANCH   8  19
ATOM     18  O   UNL     1      27.610 -21.679 -16.888  0.00  0.00    -0.245 OA
ATOM     19  C   UNL     1      28.022 -22.843 -16.938  0.00  0.00    +0.338 C 
BRANCH  19  20
ATOM     20  O   UNL     1      27.449 -23.778 -17.744  0.00  0.00    -0.477 OA
ATOM     21  H   UNL     1      26.516 -23.827 -17.814  0.00  0.00    +0.295 HD
ENDBRANCH  19  20
ENDBRANCH   8  19
TORSDOF 3
ENDMDL
MODEL 7
REMARK VINA RESULT:      -9.7      7.548      9.772
REMARK  Name = 11001318
REMARK  3 active torsions:
REMARK  status: ('A' for Active; 'I' for Inactive)
REMARK    1  A    between atoms: C_5  and  C_12
REMARK    2  A    between atoms: C_8  and  C_19
REMARK    3  A    between atoms: C_19  and  O_20
REMARK                            x       y       z     vdW  Elec       q    Type
REMARK                         _______ _______ _______ _____ _____    ______ ____
ROOT
ATOM      1  O   UNL     1      36.113 -24.194 -15.707  0.00  0.00    -0.425 OA
ATOM      2  N   UNL     1      35.063 -24.560 -13.732  0.00  0.00    -0.368 NA
ATOM      3  C   UNL     1      37.031 -24.697 -14.828  0.00  0.00    +0.174 C 
ATOM      4  C   UNL     1      36.384 -24.919 -13.621  0.00  0.00    +0.151 C 
ATOM      5  C   UNL     1      34.965 -24.142 -14.975  0.00  0.00    +0.282 C 
ATOM      6  C   UNL     1      38.375 -24.952 -15.066  0.00  0.00    +0.046 C 
ATOM      7  C   UNL     1      37.118 -25.438 -12.546  0.00  0.00    +0.088 C 
ATOM      8  C   UNL     1      39.094 -25.470 -13.982  0.00  0.00    +0.075 C 
ATOM      9  C   UNL     1      38.479 -25.709 -12.746  0.00  0.00    -0.012 C 
ENDROOT
BRANCH   5  12
ATOM     10 CL   UNL     1      29.889 -23.225 -15.012  0.00  0.00    -0.082 Cl
ATOM     11 CL   UNL     1      33.012 -21.992 -19.237  0.00  0.00    -0.082 Cl
ATOM     12  C   UNL     1      33.816 -23.641 -15.677  0.00  0.00    +0.068 C 
ATOM     13  C   UNL     1      33.953 -23.120 -16.967  0.00  0.00    +0.017 C 
ATOM     14  C   UNL     1      32.556 -23.672 -15.076  0.00  0.00    +0.017 C 
ATOM     15  C   UNL     1      31.440 -23.184 -15.757  0.00  0.00    +0.059 C 
ATOM     16  C   UNL     1      32.838 -22.632 -17.649  0.00  0.00    +0.059 C 
ATOM     17  C   UNL     1      31.581 -22.665 -17.044  0.00  0.00    +0.023 C 
ENDBRANCH   5  12
BRANCH   8  19
ATOM     18  O   UNL     1      41.060 -26.825 -13.827  0.00  0.00    -0.245 OA
ATOM     19  C   UNL     1      40.508 -25.766 -14.145  0.00  0.00    +0.338 C 
BRANCH  19  20
ATOM     20  O   UNL     1      41.196 -24.731 -14.702  0.00  0.00    -0.477 OA
ATOM     21  H   UNL     1      42.105 -24.829 -14.904  0.00  0.00    +0.295 HD
ENDBRANCH  19  20
ENDBRANCH   8  19
TORSDOF 3
ENDMDL
MODEL 8
REMARK VINA RESULT:      -9.4      5.560      8.629
REMARK  Name = 11001318
REMARK  3 active torsions:
REMARK  status: ('A' for Active; 'I' for Inactive)
REMARK    1  A    between atoms: C_5  and  C_12
REMARK    2  A    between atoms: C_8  and  C_19
REMARK    3  A    between atoms: C_19  and  O_20
REMARK                            x       y       z     vdW  Elec       q    Type
REMARK                         _______ _______ _______ _____ _____    ______ ____
ROOT
ATOM      1  O   UNL     1      32.369 -21.667 -18.508  0.00  0.00    -0.425 OA
ATOM      2  N   UNL     1      34.107 -22.853 -17.664  0.00  0.00    -0.368 NA
ATOM      3  C   UNL     1      33.488 -21.339 -19.219  0.00  0.00    +0.174 C 
ATOM      4  C   UNL     1      34.549 -22.066 -18.700  0.00  0.00    +0.151 C 
ATOM      5  C   UNL     1      32.823 -22.575 -17.599  0.00  0.00    +0.282 C 
ATOM      6  C   UNL     1      33.584 -20.444 -20.277  0.00  0.00    +0.046 C 
ATOM      7  C   UNL     1      35.822 -21.905 -19.265  0.00  0.00    +0.088 C 
ATOM      8  C   UNL     1      34.861 -20.294 -20.830  0.00  0.00    +0.075 C 
ATOM      9  C   UNL     1      35.959 -21.010 -20.335  0.00  0.00    -0.012 C 
ENDROOT
BRANCH   5  12
ATOM     10 CL   UNL     1      27.835 -23.040 -16.372  0.00  0.00    -0.082 Cl
ATOM     11 CL   UNL     1      31.705 -25.293 -13.361  0.00  0.00    -0.082 Cl
ATOM     12  C   UNL     1      31.825 -23.095 -16.706  0.00  0.00    +0.068 C 
ATOM     13  C   UNL     1      32.203 -23.854 -15.594  0.00  0.00    +0.017 C 
ATOM     14  C   UNL     1      30.471 -22.845 -16.942  0.00  0.00    +0.017 C 
ATOM     15  C   UNL     1      29.501 -23.351 -16.076  0.00  0.00    +0.059 C 
ATOM     16  C   UNL     1      31.234 -24.360 -14.728  0.00  0.00    +0.059 C 
ATOM     17  C   UNL     1      29.883 -24.108 -14.968  0.00  0.00    +0.023 C 
ENDBRANCH   5  12
BRANCH   8  19
ATOM     18  O   UNL     1      34.361 -19.342 -22.967  0.00  0.00    -0.245 OA
ATOM     19  C   UNL     1      35.049 -19.376 -21.942  0.00  0.00    +0.338 C 
BRANCH  19  20
ATOM     20  O   UNL     1      36.092 -18.524 -21.742  0.00  0.00    -0.477 OA
ATOM     21  H   UNL     1      36.076 -17.926 -21.020  0.00  0.00    +0.295 HD
ENDBRANCH  19  20
ENDBRANCH   8  19
TORSDOF 3
ENDMDL
MODEL 9
REMARK VINA RESULT:      -9.4      5.562      8.594
REMARK  Name = 11001318
REMARK  3 active torsions:
REMARK  status: ('A' for Active; 'I' for Inactive)
REMARK    1  A    between atoms: C_5  and  C_12
REMARK    2  A    between atoms: C_8  and  C_19
REMARK    3  A    between atoms: C_19  and  O_20
REMARK                            x       y       z     vdW  Elec       q    Type
REMARK                         _______ _______ _______ _____ _____    ______ ____
ROOT
ATOM      1  O   UNL     1      32.363 -21.670 -18.507  0.00  0.00    -0.425 OA
ATOM      2  N   UNL     1      34.102 -22.853 -17.664  0.00  0.00    -0.368 NA
ATOM      3  C   UNL     1      33.481 -21.342 -19.220  0.00  0.00    +0.174 C 
ATOM      4  C   UNL     1      34.543 -22.068 -18.701  0.00  0.00    +0.151 C 
ATOM      5  C   UNL     1      32.818 -22.576 -17.597  0.00  0.00    +0.282 C 
ATOM      6  C   UNL     1      33.575 -20.447 -20.279  0.00  0.00    +0.046 C 
ATOM      7  C   UNL     1      35.815 -21.907 -19.268  0.00  0.00    +0.088 C 
ATOM      8  C   UNL     1      34.851 -20.298 -20.833  0.00  0.00    +0.075 C 
ATOM      9  C   UNL     1      35.950 -21.012 -20.339  0.00  0.00    -0.012 C 
ENDROOT
BRANCH   5  12
ATOM     10 CL   UNL     1      31.705 -25.291 -13.355  0.00  0.00    -0.082 Cl
ATOM     11 CL   UNL     1      27.832 -23.041 -16.365  0.00  0.00    -0.082 Cl
ATOM     12  C   UNL     1      31.822 -23.096 -16.703  0.00  0.00    +0.068 C 
ATOM     13  C   UNL     1      30.467 -22.847 -16.938  0.00  0.00    +0.017 C 
ATOM     14  C   UNL     1      32.200 -23.854 -15.592  0.00  0.00    +0.017 C 
ATOM     15  C   UNL     1      31.233 -24.358 -14.722  0.00  0.00    +0.059 C 
ATOM     16  C   UNL     1      29.499 -23.350 -16.069  0.00  0.00    +0.059 C 
ATOM     17  C   UNL     1      29.882 -24.107 -14.961  0.00  0.00    +0.023 C 
ENDBRANCH   5  12
BRANCH   8  19
ATOM     18  O   UNL     1      34.364 -19.364 -22.981  0.00  0.00    -0.245 OA
ATOM     19  C   UNL     1      35.038 -19.381 -21.947  0.00  0.00    +0.338 C 
BRANCH  19  20
ATOM     20  O   UNL     1      36.062 -18.508 -21.736  0.00  0.00    -0.477 OA
ATOM     21  H   UNL     1      36.404 -18.008 -22.450  0.00  0.00    +0.295 HD
ENDBRANCH  19  20
ENDBRANCH   8  19
TORSDOF 3
ENDMDL
