MODEL 1
REMARK VINA RESULT:      -8.6      0.000      0.000
REMARK  Name = 25134250
REMARK  9 active torsions:
REMARK  status: ('A' for Active; 'I' for Inactive)
REMARK    1  A    between atoms: N_1  and  C_17
REMARK    2  A    between atoms: C_2  and  N_9
REMARK    3  A    between atoms: C_10  and  C_12
REMARK    4  A    between atoms: C_12  and  C_13
REMARK    5  A    between atoms: C_13  and  C_14
REMARK    6  A    between atoms: C_14  and  S_15
REMARK    7  A    between atoms: C_17  and  C_18
REMARK    8  A    between atoms: C_19  and  O_24
REMARK    9  A    between atoms: C_20  and  O_26
REMARK                            x       y       z     vdW  Elec       q    Type
REMARK                         _______ _______ _______ _____ _____    ______ ____
ROOT
ATOM      1  N   UNL     1      33.465 -14.163 -22.441  0.00  0.00    +0.390 N 
ATOM      2  C   UNL     1      34.928 -16.538 -21.511  0.00  0.00    +0.067 C 
ATOM      3  C   UNL     1      34.492 -15.414 -20.567  0.00  0.00    -0.003 C 
ATOM      4  C   UNL     1      35.040 -16.007 -22.942  0.00  0.00    -0.003 C 
ATOM      5  C   UNL     1      33.251 -14.677 -21.082  0.00  0.00    -0.075 C 
ATOM      6  C   UNL     1      33.781 -15.250 -23.377  0.00  0.00    -0.075 C 
ATOM      7  H   UNL     1      34.265 -13.531 -22.414  0.00  0.00    -0.079 HD
ENDROOT
BRANCH   2   9
ATOM      8  O   UNL     1      35.533 -19.239 -20.654  0.00  0.00    -0.275 OA
ATOM      9  N   UNL     1      34.019 -17.660 -21.440  0.00  0.00    -0.306 N 
ATOM     10  C   UNL     1      34.403 -18.924 -21.014  0.00  0.00    +0.222 C 
ATOM     11  H   UNL     1      33.083 -17.521 -21.708  0.00  0.00    +0.149 HD
BRANCH  10  12
ATOM     12  C   UNL     1      33.235 -19.898 -21.039  0.00  0.00    +0.086 C 
BRANCH  12  13
ATOM     13  C   UNL     1      33.049 -20.615 -19.701  0.00  0.00    +0.021 C 
BRANCH  13  14
ATOM     14  C   UNL     1      33.837 -21.920 -19.582  0.00  0.00    +0.054 C 
BRANCH  14  15
ATOM     15  S   UNL     1      33.437 -22.864 -18.083  0.00  0.00    -0.168 S 
ATOM     16  H   UNL     1      32.723 -22.080 -17.231  0.00  0.00    +0.102 HD
ENDBRANCH  14  15
ENDBRANCH  13  14
ENDBRANCH  12  13
ENDBRANCH  10  12
ENDBRANCH   2   9
BRANCH   1  17
ATOM     17  C   UNL     1      32.292 -13.419 -22.898  0.00  0.00    -0.044 C 
BRANCH  17  18
ATOM     18  C   UNL     1      32.548 -11.935 -22.932  0.00  0.00    +0.025 C 
ATOM     19  C   UNL     1      33.442 -11.402 -23.860  0.00  0.00    +0.136 C 
ATOM     20  C   UNL     1      31.889 -11.094 -22.034  0.00  0.00    +0.136 C 
ATOM     21  C   UNL     1      33.679 -10.027 -23.890  0.00  0.00    +0.037 C 
ATOM     22  C   UNL     1      32.126  -9.720 -22.065  0.00  0.00    +0.037 C 
ATOM     23  C   UNL     1      33.020  -9.187 -22.994  0.00  0.00    +0.006 C 
BRANCH  19  24
ATOM     24  O   UNL     1      34.094 -12.208 -24.744  0.00  0.00    -0.472 OA
ATOM     25  C   UNL     1      33.725 -12.096 -26.117  0.00  0.00    +0.252 C 
ENDBRANCH  19  24
BRANCH  20  26
ATOM     26  O   UNL     1      31.012 -11.597 -21.120  0.00  0.00    -0.472 OA
ATOM     27  C   UNL     1      31.234 -11.253 -19.754  0.00  0.00    +0.252 C 
ENDBRANCH  20  26
ENDBRANCH  17  18
ENDBRANCH   1  17
TORSDOF 9
ENDMDL
MODEL 2
REMARK VINA RESULT:      -8.6      0.070      2.610
REMARK  Name = 25134250
REMARK  9 active torsions:
REMARK  status: ('A' for Active; 'I' for Inactive)
REMARK    1  A    between atoms: N_1  and  C_17
REMARK    2  A    between atoms: C_2  and  N_9
REMARK    3  A    between atoms: C_10  and  C_12
REMARK    4  A    between atoms: C_12  and  C_13
REMARK    5  A    between atoms: C_13  and  C_14
REMARK    6  A    between atoms: C_14  and  S_15
REMARK    7  A    between atoms: C_17  and  C_18
REMARK    8  A    between atoms: C_19  and  O_24
REMARK    9  A    between atoms: C_20  and  O_26
REMARK                            x       y       z     vdW  Elec       q    Type
REMARK                         _______ _______ _______ _____ _____    ______ ____
ROOT
ATOM      1  N   UNL     1      33.461 -14.173 -22.441  0.00  0.00    +0.390 N 
ATOM      2  C   UNL     1      34.914 -16.551 -21.504  0.00  0.00    +0.067 C 
ATOM      3  C   UNL     1      34.480 -15.423 -20.564  0.00  0.00    -0.003 C 
ATOM      4  C   UNL     1      35.029 -16.023 -22.936  0.00  0.00    -0.003 C 
ATOM      5  C   UNL     1      33.243 -14.683 -21.082  0.00  0.00    -0.075 C 
ATOM      6  C   UNL     1      33.774 -15.263 -23.375  0.00  0.00    -0.075 C 
ATOM      7  H   UNL     1      34.263 -13.543 -22.415  0.00  0.00    -0.079 HD
ENDROOT
BRANCH   2   9
ATOM      8  O   UNL     1      35.495 -19.238 -20.589  0.00  0.00    -0.275 OA
ATOM      9  N   UNL     1      34.001 -17.669 -21.432  0.00  0.00    -0.306 N 
ATOM     10  C   UNL     1      34.372 -18.927 -20.977  0.00  0.00    +0.222 C 
ATOM     11  H   UNL     1      33.070 -17.532 -21.720  0.00  0.00    +0.149 HD
BRANCH  10  12
ATOM     12  C   UNL     1      33.203 -19.898 -21.008  0.00  0.00    +0.086 C 
BRANCH  12  13
ATOM     13  C   UNL     1      33.031 -20.643 -19.683  0.00  0.00    +0.021 C 
BRANCH  13  14
ATOM     14  C   UNL     1      33.821 -21.949 -19.599  0.00  0.00    +0.054 C 
BRANCH  14  15
ATOM     15  S   UNL     1      33.462 -22.908 -18.098  0.00  0.00    -0.168 S 
ATOM     16  H   UNL     1      32.495 -23.826 -18.368  0.00  0.00    +0.102 HD
ENDBRANCH  14  15
ENDBRANCH  13  14
ENDBRANCH  12  13
ENDBRANCH  10  12
ENDBRANCH   2   9
BRANCH   1  17
ATOM     17  C   UNL     1      32.291 -13.425 -22.901  0.00  0.00    -0.044 C 
BRANCH  17  18
ATOM     18  C   UNL     1      32.556 -11.944 -22.949  0.00  0.00    +0.025 C 
ATOM     19  C   UNL     1      31.910 -11.090 -22.055  0.00  0.00    +0.136 C 
ATOM     20  C   UNL     1      33.447 -11.425 -23.889  0.00  0.00    +0.136 C 
ATOM     21  C   UNL     1      32.155  -9.717 -22.100  0.00  0.00    +0.037 C 
ATOM     22  C   UNL     1      33.692 -10.052 -23.934  0.00  0.00    +0.037 C 
ATOM     23  C   UNL     1      33.046  -9.199 -23.038  0.00  0.00    +0.006 C 
BRANCH  19  24
ATOM     24  O   UNL     1      31.037 -11.579 -21.130  0.00  0.00    -0.472 OA
ATOM     25  C   UNL     1      31.418 -11.475 -19.760  0.00  0.00    +0.252 C 
ENDBRANCH  19  24
BRANCH  20  26
ATOM     26  O   UNL     1      34.086 -12.243 -24.772  0.00  0.00    -0.472 OA
ATOM     27  C   UNL     1      33.765 -12.084 -26.151  0.00  0.00    +0.252 C 
ENDBRANCH  20  26
ENDBRANCH  17  18
ENDBRANCH   1  17
TORSDOF 9
ENDMDL
MODEL 3
REMARK VINA RESULT:      -8.3      2.401      3.748
REMARK  Name = 25134250
REMARK  9 active torsions:
REMARK  status: ('A' for Active; 'I' for Inactive)
REMARK    1  A    between atoms: N_1  and  C_17
REMARK    2  A    between atoms: C_2  and  N_9
REMARK    3  A    between atoms: C_10  and  C_12
REMARK    4  A    between atoms: C_12  and  C_13
REMARK    5  A    between atoms: C_13  and  C_14
REMARK    6  A    between atoms: C_14  and  S_15
REMARK    7  A    between atoms: C_17  and  C_18
REMARK    8  A    between atoms: C_19  and  O_24
REMARK    9  A    between atoms: C_20  and  O_26
REMARK                            x       y       z     vdW  Elec       q    Type
REMARK                         _______ _______ _______ _____ _____    ______ ____
ROOT
ATOM      1  N   UNL     1      33.106 -13.515 -22.066  0.00  0.00    +0.390 N 
ATOM      2  C   UNL     1      34.122 -15.861 -20.613  0.00  0.00    +0.067 C 
ATOM      3  C   UNL     1      32.765 -15.223 -20.306  0.00  0.00    -0.003 C 
ATOM      4  C   UNL     1      35.045 -14.836 -21.275  0.00  0.00    -0.003 C 
ATOM      5  C   UNL     1      32.172 -14.512 -21.527  0.00  0.00    -0.075 C 
ATOM      6  C   UNL     1      34.376 -14.137 -22.463  0.00  0.00    -0.075 C 
ATOM      7  H   UNL     1      33.305 -12.841 -21.327  0.00  0.00    -0.079 HD
ENDROOT
BRANCH   2   9
ATOM      8  O   UNL     1      35.745 -18.262 -20.574  0.00  0.00    -0.275 OA
ATOM      9  N   UNL     1      33.970 -17.036 -21.441  0.00  0.00    -0.306 N 
ATOM     10  C   UNL     1      34.801 -18.145 -21.350  0.00  0.00    +0.222 C 
ATOM     11  H   UNL     1      33.241 -17.051 -22.103  0.00  0.00    +0.149 HD
BRANCH  10  12
ATOM     12  C   UNL     1      34.396 -19.226 -22.338  0.00  0.00    +0.086 C 
BRANCH  12  13
ATOM     13  C   UNL     1      35.179 -19.137 -23.650  0.00  0.00    +0.021 C 
BRANCH  13  14
ATOM     14  C   UNL     1      34.355 -18.616 -24.828  0.00  0.00    +0.054 C 
BRANCH  14  15
ATOM     15  S   UNL     1      34.619 -16.849 -25.159  0.00  0.00    -0.168 S 
ATOM     16  H   UNL     1      35.625 -16.702 -26.063  0.00  0.00    +0.102 HD
ENDBRANCH  14  15
ENDBRANCH  13  14
ENDBRANCH  12  13
ENDBRANCH  10  12
ENDBRANCH   2   9
BRANCH   1  17
ATOM     17  C   UNL     1      32.506 -12.809 -23.197  0.00  0.00    -0.044 C 
BRANCH  17  18
ATOM     18  C   UNL     1      32.674 -11.318 -23.081  0.00  0.00    +0.025 C 
ATOM     19  C   UNL     1      31.896 -10.596 -22.175  0.00  0.00    +0.136 C 
ATOM     20  C   UNL     1      33.608 -10.657 -23.879  0.00  0.00    +0.136 C 
ATOM     21  C   UNL     1      32.052  -9.214 -22.068  0.00  0.00    +0.037 C 
ATOM     22  C   UNL     1      33.764  -9.275 -23.772  0.00  0.00    +0.037 C 
ATOM     23  C   UNL     1      32.986  -8.554 -22.866  0.00  0.00    +0.006 C 
BRANCH  19  24
ATOM     24  O   UNL     1      30.979 -11.224 -21.387  0.00  0.00    -0.472 OA
ATOM     25  C   UNL     1      31.175 -11.147 -19.977  0.00  0.00    +0.252 C 
ENDBRANCH  19  24
BRANCH  20  26
ATOM     26  O   UNL     1      34.377 -11.345 -24.770  0.00  0.00    -0.472 OA
ATOM     27  C   UNL     1      35.144 -10.575 -25.693  0.00  0.00    +0.252 C 
ENDBRANCH  20  26
ENDBRANCH  17  18
ENDBRANCH   1  17
TORSDOF 9
ENDMDL
MODEL 4
REMARK VINA RESULT:      -8.3      2.424      2.740
REMARK  Name = 25134250
REMARK  9 active torsions:
REMARK  status: ('A' for Active; 'I' for Inactive)
REMARK    1  A    between atoms: N_1  and  C_17
REMARK    2  A    between atoms: C_2  and  N_9
REMARK    3  A    between atoms: C_10  and  C_12
REMARK    4  A    between atoms: C_12  and  C_13
REMARK    5  A    between atoms: C_13  and  C_14
REMARK    6  A    between atoms: C_14  and  S_15
REMARK    7  A    between atoms: C_17  and  C_18
REMARK    8  A    between atoms: C_19  and  O_24
REMARK    9  A    between atoms: C_20  and  O_26
REMARK                            x       y       z     vdW  Elec       q    Type
REMARK                         _______ _______ _______ _____ _____    ______ ____
ROOT
ATOM      1  N   UNL     1      33.068 -13.510 -22.032  0.00  0.00    +0.390 N 
ATOM      2  C   UNL     1      34.199 -15.856 -20.667  0.00  0.00    +0.067 C 
ATOM      3  C   UNL     1      32.838 -15.262 -20.297  0.00  0.00    -0.003 C 
ATOM      4  C   UNL     1      35.069 -14.793 -21.340  0.00  0.00    -0.003 C 
ATOM      5  C   UNL     1      32.181 -14.543 -21.480  0.00  0.00    -0.075 C 
ATOM      6  C   UNL     1      34.338 -14.089 -22.488  0.00  0.00    -0.075 C 
ATOM      7  H   UNL     1      33.276 -12.845 -21.286  0.00  0.00    -0.079 HD
ENDROOT
BRANCH   2   9
ATOM      8  O   UNL     1      35.735 -18.311 -20.573  0.00  0.00    -0.275 OA
ATOM      9  N   UNL     1      34.047 -17.018 -21.513  0.00  0.00    -0.306 N 
ATOM     10  C   UNL     1      34.835 -18.155 -21.393  0.00  0.00    +0.222 C 
ATOM     11  H   UNL     1      33.352 -17.003 -22.209  0.00  0.00    +0.149 HD
BRANCH  10  12
ATOM     12  C   UNL     1      34.443 -19.214 -22.411  0.00  0.00    +0.086 C 
BRANCH  12  13
ATOM     13  C   UNL     1      35.183 -19.045 -23.739  0.00  0.00    +0.021 C 
BRANCH  13  14
ATOM     14  C   UNL     1      34.303 -18.528 -24.877  0.00  0.00    +0.054 C 
BRANCH  14  15
ATOM     15  S   UNL     1      34.504 -16.749 -25.185  0.00  0.00    -0.168 S 
ATOM     16  H   UNL     1      33.292 -16.198 -25.467  0.00  0.00    +0.102 HD
ENDBRANCH  14  15
ENDBRANCH  13  14
ENDBRANCH  12  13
ENDBRANCH  10  12
ENDBRANCH   2   9
BRANCH   1  17
ATOM     17  C   UNL     1      32.408 -12.799 -23.125  0.00  0.00    -0.044 C 
BRANCH  17  18
ATOM     18  C   UNL     1      32.568 -11.307 -23.001  0.00  0.00    +0.025 C 
ATOM     19  C   UNL     1      33.450 -10.627 -23.842  0.00  0.00    +0.136 C 
ATOM     20  C   UNL     1      31.834 -10.604 -22.045  0.00  0.00    +0.136 C 
ATOM     21  C   UNL     1      33.598  -9.245 -23.726  0.00  0.00    +0.037 C 
ATOM     22  C   UNL     1      31.983  -9.222 -21.930  0.00  0.00    +0.037 C 
ATOM     23  C   UNL     1      32.865  -8.542 -22.771  0.00  0.00    +0.006 C 
BRANCH  19  24
ATOM     24  O   UNL     1      34.174 -11.297 -24.782  0.00  0.00    -0.472 OA
ATOM     25  C   UNL     1      35.169 -10.554 -25.483  0.00  0.00    +0.252 C 
ENDBRANCH  19  24
BRANCH  20  26
ATOM     26  O   UNL     1      30.969 -11.251 -21.214  0.00  0.00    -0.472 OA
ATOM     27  C   UNL     1      31.259 -11.211 -19.819  0.00  0.00    +0.252 C 
ENDBRANCH  20  26
ENDBRANCH  17  18
ENDBRANCH   1  17
TORSDOF 9
ENDMDL
MODEL 5
REMARK VINA RESULT:      -7.9      3.566      5.628
REMARK  Name = 25134250
REMARK  9 active torsions:
REMARK  status: ('A' for Active; 'I' for Inactive)
REMARK    1  A    between atoms: N_1  and  C_17
REMARK    2  A    between atoms: C_2  and  N_9
REMARK    3  A    between atoms: C_10  and  C_12
REMARK    4  A    between atoms: C_12  and  C_13
REMARK    5  A    between atoms: C_13  and  C_14
REMARK    6  A    between atoms: C_14  and  S_15
REMARK    7  A    between atoms: C_17  and  C_18
REMARK    8  A    between atoms: C_19  and  O_24
REMARK    9  A    between atoms: C_20  and  O_26
REMARK                            x       y       z     vdW  Elec       q    Type
REMARK                         _______ _______ _______ _____ _____    ______ ____
ROOT
ATOM      1  N   UNL     1      32.155  -8.971 -21.215  0.00  0.00    +0.390 N 
ATOM      2  C   UNL     1      31.070 -11.658 -20.720  0.00  0.00    +0.067 C 
ATOM      3  C   UNL     1      31.199 -11.065 -22.125  0.00  0.00    -0.003 C 
ATOM      4  C   UNL     1      31.002 -10.535 -19.682  0.00  0.00    -0.003 C 
ATOM      5  C   UNL     1      32.327 -10.033 -22.215  0.00  0.00    -0.075 C 
ATOM      6  C   UNL     1      32.137  -9.520 -19.853  0.00  0.00    -0.075 C 
ATOM      7  H   UNL     1      31.254  -8.524 -21.384  0.00  0.00    -0.079 HD
ENDROOT
BRANCH   2   9
ATOM      8  O   UNL     1      31.896 -13.954 -22.282  0.00  0.00    -0.275 OA
ATOM      9  N   UNL     1      32.158 -12.566 -20.436  0.00  0.00    -0.306 N 
ATOM     10  C   UNL     1      32.480 -13.645 -21.248  0.00  0.00    +0.222 C 
ATOM     11  H   UNL     1      32.696 -12.413 -19.627  0.00  0.00    +0.149 HD
BRANCH  10  12
ATOM     12  C   UNL     1      33.671 -14.416 -20.702  0.00  0.00    +0.086 C 
BRANCH  12  13
ATOM     13  C   UNL     1      33.605 -15.906 -21.043  0.00  0.00    +0.021 C 
BRANCH  13  14
ATOM     14  C   UNL     1      34.811 -16.415 -21.832  0.00  0.00    +0.054 C 
BRANCH  14  15
ATOM     15  S   UNL     1      34.760 -15.962 -23.591  0.00  0.00    -0.168 S 
ATOM     16  H   UNL     1      34.079 -14.793 -23.737  0.00  0.00    +0.102 HD
ENDBRANCH  14  15
ENDBRANCH  13  14
ENDBRANCH  12  13
ENDBRANCH  10  12
ENDBRANCH   2   9
BRANCH   1  17
ATOM     17  C   UNL     1      33.210  -7.967 -21.347  0.00  0.00    -0.044 C 
BRANCH  17  18
ATOM     18  C   UNL     1      33.073  -7.174 -22.620  0.00  0.00    +0.025 C 
ATOM     19  C   UNL     1      34.019  -7.315 -23.635  0.00  0.00    +0.136 C 
ATOM     20  C   UNL     1      32.000  -6.298 -22.782  0.00  0.00    +0.136 C 
ATOM     21  C   UNL     1      33.892  -6.579 -24.814  0.00  0.00    +0.037 C 
ATOM     22  C   UNL     1      31.873  -5.562 -23.961  0.00  0.00    +0.037 C 
ATOM     23  C   UNL     1      32.819  -5.704 -24.977  0.00  0.00    +0.006 C 
BRANCH  19  24
ATOM     24  O   UNL     1      35.074  -8.166 -23.494  0.00  0.00    -0.472 OA
ATOM     25  C   UNL     1      35.089  -9.322 -24.328  0.00  0.00    +0.252 C 
ENDBRANCH  19  24
BRANCH  20  26
ATOM     26  O   UNL     1      31.067  -6.146 -21.801  0.00  0.00    -0.472 OA
ATOM     27  C   UNL     1      30.316  -4.934 -21.804  0.00  0.00    +0.252 C 
ENDBRANCH  20  26
ENDBRANCH  17  18
ENDBRANCH   1  17
TORSDOF 9
ENDMDL
MODEL 6
REMARK VINA RESULT:      -7.9      3.509      6.037
REMARK  Name = 25134250
REMARK  9 active torsions:
REMARK  status: ('A' for Active; 'I' for Inactive)
REMARK    1  A    between atoms: N_1  and  C_17
REMARK    2  A    between atoms: C_2  and  N_9
REMARK    3  A    between atoms: C_10  and  C_12
REMARK    4  A    between atoms: C_12  and  C_13
REMARK    5  A    between atoms: C_13  and  C_14
REMARK    6  A    between atoms: C_14  and  S_15
REMARK    7  A    between atoms: C_17  and  C_18
REMARK    8  A    between atoms: C_19  and  O_24
REMARK    9  A    between atoms: C_20  and  O_26
REMARK                            x       y       z     vdW  Elec       q    Type
REMARK                         _______ _______ _______ _____ _____    ______ ____
ROOT
ATOM      1  N   UNL     1      32.113  -8.981 -21.188  0.00  0.00    +0.390 N 
ATOM      2  C   UNL     1      31.088 -11.702 -20.754  0.00  0.00    +0.067 C 
ATOM      3  C   UNL     1      31.210 -11.077 -22.147  0.00  0.00    -0.003 C 
ATOM      4  C   UNL     1      30.989 -10.604 -19.694  0.00  0.00    -0.003 C 
ATOM      5  C   UNL     1      32.315 -10.018 -22.209  0.00  0.00    -0.075 C 
ATOM      6  C   UNL     1      32.101  -9.559 -19.838  0.00  0.00    -0.075 C 
ATOM      7  H   UNL     1      31.203  -8.552 -21.353  0.00  0.00    -0.079 HD
ENDROOT
BRANCH   2   9
ATOM      8  O   UNL     1      31.883 -14.036 -22.278  0.00  0.00    -0.275 OA
ATOM      9  N   UNL     1      32.195 -12.591 -20.483  0.00  0.00    -0.306 N 
ATOM     10  C   UNL     1      32.500 -13.690 -21.274  0.00  0.00    +0.222 C 
ATOM     11  H   UNL     1      32.761 -12.408 -19.699  0.00  0.00    +0.149 HD
BRANCH  10  12
ATOM     12  C   UNL     1      33.718 -14.433 -20.750  0.00  0.00    +0.086 C 
BRANCH  12  13
ATOM     13  C   UNL     1      33.572 -15.951 -20.875  0.00  0.00    +0.021 C 
BRANCH  13  14
ATOM     14  C   UNL     1      34.685 -16.616 -21.685  0.00  0.00    +0.054 C 
BRANCH  14  15
ATOM     15  S   UNL     1      34.815 -15.978 -23.381  0.00  0.00    -0.168 S 
ATOM     16  H   UNL     1      36.113 -15.674 -23.652  0.00  0.00    +0.102 HD
ENDBRANCH  14  15
ENDBRANCH  13  14
ENDBRANCH  12  13
ENDBRANCH  10  12
ENDBRANCH   2   9
BRANCH   1  17
ATOM     17  C   UNL     1      33.145  -7.951 -21.294  0.00  0.00    -0.044 C 
BRANCH  17  18
ATOM     18  C   UNL     1      33.022  -7.163 -22.571  0.00  0.00    +0.025 C 
ATOM     19  C   UNL     1      31.959  -6.277 -22.745  0.00  0.00    +0.136 C 
ATOM     20  C   UNL     1      33.973  -7.318 -23.580  0.00  0.00    +0.136 C 
ATOM     21  C   UNL     1      31.845  -5.548 -23.929  0.00  0.00    +0.037 C 
ATOM     22  C   UNL     1      33.859  -6.589 -24.764  0.00  0.00    +0.037 C 
ATOM     23  C   UNL     1      32.795  -5.703 -24.937  0.00  0.00    +0.006 C 
BRANCH  19  24
ATOM     24  O   UNL     1      31.021  -6.112 -21.770  0.00  0.00    -0.472 OA
ATOM     25  C   UNL     1      30.294  -4.885 -21.771  0.00  0.00    +0.252 C 
ENDBRANCH  19  24
BRANCH  20  26
ATOM     26  O   UNL     1      35.018  -8.179 -23.429  0.00  0.00    -0.472 OA
ATOM     27  C   UNL     1      35.092  -9.275 -24.338  0.00  0.00    +0.252 C 
ENDBRANCH  20  26
ENDBRANCH  17  18
ENDBRANCH   1  17
TORSDOF 9
ENDMDL
MODEL 7
REMARK VINA RESULT:      -7.6      3.325      5.611
REMARK  Name = 25134250
REMARK  9 active torsions:
REMARK  status: ('A' for Active; 'I' for Inactive)
REMARK    1  A    between atoms: N_1  and  C_17
REMARK    2  A    between atoms: C_2  and  N_9
REMARK    3  A    between atoms: C_10  and  C_12
REMARK    4  A    between atoms: C_12  and  C_13
REMARK    5  A    between atoms: C_13  and  C_14
REMARK    6  A    between atoms: C_14  and  S_15
REMARK    7  A    between atoms: C_17  and  C_18
REMARK    8  A    between atoms: C_19  and  O_24
REMARK    9  A    between atoms: C_20  and  O_26
REMARK                            x       y       z     vdW  Elec       q    Type
REMARK                         _______ _______ _______ _____ _____    ______ ____
ROOT
ATOM      1  N   UNL     1      33.990  -8.804 -23.972  0.00  0.00    +0.390 N 
ATOM      2  C   UNL     1      33.827 -11.609 -24.837  0.00  0.00    +0.067 C 
ATOM      3  C   UNL     1      34.937 -10.663 -25.304  0.00  0.00    -0.003 C 
ATOM      4  C   UNL     1      32.599 -10.804 -24.410  0.00  0.00    -0.003 C 
ATOM      5  C   UNL     1      35.214  -9.551 -24.287  0.00  0.00    -0.075 C 
ATOM      6  C   UNL     1      32.954  -9.687 -23.423  0.00  0.00    -0.075 C 
ATOM      7  H   UNL     1      33.634  -8.406 -24.841  0.00  0.00    -0.079 HD
ENDROOT
BRANCH   2   9
ATOM      8  O   UNL     1      33.045 -14.350 -24.317  0.00  0.00    -0.275 OA
ATOM      9  N   UNL     1      34.289 -12.464 -23.768  0.00  0.00    -0.306 N 
ATOM     10  C   UNL     1      33.854 -13.772 -23.598  0.00  0.00    +0.222 C 
ATOM     11  H   UNL     1      34.942 -12.103 -23.128  0.00  0.00    +0.149 HD
BRANCH  10  12
ATOM     12  C   UNL     1      34.515 -14.427 -22.395  0.00  0.00    +0.086 C 
BRANCH  12  13
ATOM     13  C   UNL     1      34.782 -15.917 -22.618  0.00  0.00    +0.021 C 
BRANCH  13  14
ATOM     14  C   UNL     1      34.639 -16.767 -21.356  0.00  0.00    +0.054 C 
BRANCH  14  15
ATOM     15  S   UNL     1      35.644 -18.279 -21.394  0.00  0.00    -0.168 S 
ATOM     16  H   UNL     1      36.460 -18.308 -20.306  0.00  0.00    +0.102 HD
ENDBRANCH  14  15
ENDBRANCH  13  14
ENDBRANCH  12  13
ENDBRANCH  10  12
ENDBRANCH   2   9
BRANCH   1  17
ATOM     17  C   UNL     1      34.281  -7.714 -23.041  0.00  0.00    -0.044 C 
BRANCH  17  18
ATOM     18  C   UNL     1      33.067  -6.864 -22.776  0.00  0.00    +0.025 C 
ATOM     19  C   UNL     1      32.535  -6.071 -23.792  0.00  0.00    +0.136 C 
ATOM     20  C   UNL     1      32.474  -6.870 -21.513  0.00  0.00    +0.136 C 
ATOM     21  C   UNL     1      31.410  -5.283 -23.546  0.00  0.00    +0.037 C 
ATOM     22  C   UNL     1      31.349  -6.082 -21.267  0.00  0.00    +0.037 C 
ATOM     23  C   UNL     1      30.818  -5.289 -22.284  0.00  0.00    +0.006 C 
BRANCH  19  24
ATOM     24  O   UNL     1      33.100  -6.053 -25.032  0.00  0.00    -0.472 OA
ATOM     25  C   UNL     1      32.757  -4.962 -25.885  0.00  0.00    +0.252 C 
ENDBRANCH  19  24
BRANCH  20  26
ATOM     26  O   UNL     1      32.980  -7.638 -20.507  0.00  0.00    -0.472 OA
ATOM     27  C   UNL     1      32.129  -8.650 -19.975  0.00  0.00    +0.252 C 
ENDBRANCH  20  26
ENDBRANCH  17  18
ENDBRANCH   1  17
TORSDOF 9
ENDMDL
MODEL 8
REMARK VINA RESULT:      -7.6      3.326      6.040
REMARK  Name = 25134250
REMARK  9 active torsions:
REMARK  status: ('A' for Active; 'I' for Inactive)
REMARK    1  A    between atoms: N_1  and  C_17
REMARK    2  A    between atoms: C_2  and  N_9
REMARK    3  A    between atoms: C_10  and  C_12
REMARK    4  A    between atoms: C_12  and  C_13
REMARK    5  A    between atoms: C_13  and  C_14
REMARK    6  A    between atoms: C_14  and  S_15
REMARK    7  A    between atoms: C_17  and  C_18
REMARK    8  A    between atoms: C_19  and  O_24
REMARK    9  A    between atoms: C_20  and  O_26
REMARK                            x       y       z     vdW  Elec       q    Type
REMARK                         _______ _______ _______ _____ _____    ______ ____
ROOT
ATOM      1  N   UNL     1      33.989  -8.803 -24.008  0.00  0.00    +0.390 N 
ATOM      2  C   UNL     1      33.825 -11.619 -24.836  0.00  0.00    +0.067 C 
ATOM      3  C   UNL     1      34.933 -10.679 -25.319  0.00  0.00    -0.003 C 
ATOM      4  C   UNL     1      32.597 -10.809 -24.415  0.00  0.00    -0.003 C 
ATOM      5  C   UNL     1      35.213  -9.554 -24.317  0.00  0.00    -0.075 C 
ATOM      6  C   UNL     1      32.955  -9.679 -23.444  0.00  0.00    -0.075 C 
ATOM      7  H   UNL     1      33.630  -8.416 -24.881  0.00  0.00    -0.079 HD
ENDROOT
BRANCH   2   9
ATOM      8  O   UNL     1      33.019 -14.341 -24.257  0.00  0.00    -0.275 OA
ATOM      9  N   UNL     1      34.290 -12.460 -23.757  0.00  0.00    -0.306 N 
ATOM     10  C   UNL     1      33.844 -13.760 -23.558  0.00  0.00    +0.222 C 
ATOM     11  H   UNL     1      34.956 -12.094 -23.132  0.00  0.00    +0.149 HD
BRANCH  10  12
ATOM     12  C   UNL     1      34.512 -14.400 -22.352  0.00  0.00    +0.086 C 
BRANCH  12  13
ATOM     13  C   UNL     1      34.738 -15.901 -22.542  0.00  0.00    +0.021 C 
BRANCH  13  14
ATOM     14  C   UNL     1      34.793 -16.690 -21.234  0.00  0.00    +0.054 C 
BRANCH  14  15
ATOM     15  S   UNL     1      35.520 -18.344 -21.425  0.00  0.00    -0.168 S 
ATOM     16  H   UNL     1      34.999 -18.942 -22.530  0.00  0.00    +0.102 HD
ENDBRANCH  14  15
ENDBRANCH  13  14
ENDBRANCH  12  13
ENDBRANCH  10  12
ENDBRANCH   2   9
BRANCH   1  17
ATOM     17  C   UNL     1      34.282  -7.701 -23.092  0.00  0.00    -0.044 C 
BRANCH  17  18
ATOM     18  C   UNL     1      33.065  -6.858 -22.821  0.00  0.00    +0.025 C 
ATOM     19  C   UNL     1      32.480  -6.863 -21.555  0.00  0.00    +0.136 C 
ATOM     20  C   UNL     1      32.523  -6.071 -23.838  0.00  0.00    +0.136 C 
ATOM     21  C   UNL     1      31.351  -6.081 -21.305  0.00  0.00    +0.037 C 
ATOM     22  C   UNL     1      31.395  -5.289 -23.588  0.00  0.00    +0.037 C 
ATOM     23  C   UNL     1      30.810  -5.294 -22.321  0.00  0.00    +0.006 C 
BRANCH  19  24
ATOM     24  O   UNL     1      32.996  -7.625 -20.551  0.00  0.00    -0.472 OA
ATOM     25  C   UNL     1      32.136  -8.607 -19.975  0.00  0.00    +0.252 C 
ENDBRANCH  19  24
BRANCH  20  26
ATOM     26  O   UNL     1      33.080  -6.053 -25.081  0.00  0.00    -0.472 OA
ATOM     27  C   UNL     1      32.766  -4.942 -25.916  0.00  0.00    +0.252 C 
ENDBRANCH  20  26
ENDBRANCH  17  18
ENDBRANCH   1  17
TORSDOF 9
ENDMDL
MODEL 9
REMARK VINA RESULT:      -7.6      2.739      4.358
REMARK  Name = 25134250
REMARK  9 active torsions:
REMARK  status: ('A' for Active; 'I' for Inactive)
REMARK    1  A    between atoms: N_1  and  C_17
REMARK    2  A    between atoms: C_2  and  N_9
REMARK    3  A    between atoms: C_10  and  C_12
REMARK    4  A    between atoms: C_12  and  C_13
REMARK    5  A    between atoms: C_13  and  C_14
REMARK    6  A    between atoms: C_14  and  S_15
REMARK    7  A    between atoms: C_17  and  C_18
REMARK    8  A    between atoms: C_19  and  O_24
REMARK    9  A    between atoms: C_20  and  O_26
REMARK                            x       y       z     vdW  Elec       q    Type
REMARK                         _______ _______ _______ _____ _____    ______ ____
ROOT
ATOM      1  N   UNL     1      34.586 -17.628 -22.097  0.00  0.00    +0.390 N 
ATOM      2  C   UNL     1      34.545 -20.379 -21.061  0.00  0.00    +0.067 C 
ATOM      3  C   UNL     1      35.315 -19.983 -22.324  0.00  0.00    -0.003 C 
ATOM      4  C   UNL     1      33.413 -19.382 -20.804  0.00  0.00    -0.003 C 
ATOM      5  C   UNL     1      35.741 -18.512 -22.302  0.00  0.00    -0.075 C 
ATOM      6  C   UNL     1      33.903 -17.931 -20.833  0.00  0.00    -0.075 C 
ATOM      7  H   UNL     1      33.927 -17.793 -22.857  0.00  0.00    -0.079 HD
ENDROOT
BRANCH   2   9
ATOM      8  O   UNL     1      34.999 -22.690 -19.373  0.00  0.00    -0.275 OA
ATOM      9  N   UNL     1      35.428 -20.472 -19.920  0.00  0.00    -0.306 N 
ATOM     10  C   UNL     1      35.580 -21.628 -19.168  0.00  0.00    +0.222 C 
ATOM     11  H   UNL     1      35.946 -19.676 -19.664  0.00  0.00    +0.149 HD
BRANCH  10  12
ATOM     12  C   UNL     1      36.578 -21.430 -18.038  0.00  0.00    +0.086 C 
BRANCH  12  13
ATOM     13  C   UNL     1      36.300 -22.353 -16.849  0.00  0.00    +0.021 C 
BRANCH  13  14
ATOM     14  C   UNL     1      37.503 -22.556 -15.929  0.00  0.00    +0.054 C 
BRANCH  14  15
ATOM     15  S   UNL     1      37.403 -24.080 -14.945  0.00  0.00    -0.168 S 
ATOM     16  H   UNL     1      38.501 -24.178 -14.148  0.00  0.00    +0.102 HD
ENDBRANCH  14  15
ENDBRANCH  13  14
ENDBRANCH  12  13
ENDBRANCH  10  12
ENDBRANCH   2   9
BRANCH   1  17
ATOM     17  C   UNL     1      35.002 -16.226 -22.130  0.00  0.00    -0.044 C 
BRANCH  17  18
ATOM     18  C   UNL     1      34.207 -15.429 -23.131  0.00  0.00    +0.025 C 
ATOM     19  C   UNL     1      34.244 -15.771 -24.482  0.00  0.00    +0.136 C 
ATOM     20  C   UNL     1      33.434 -14.349 -22.704  0.00  0.00    +0.136 C 
ATOM     21  C   UNL     1      33.507 -15.032 -25.409  0.00  0.00    +0.037 C 
ATOM     22  C   UNL     1      32.697 -13.610 -23.631  0.00  0.00    +0.037 C 
ATOM     23  C   UNL     1      32.734 -13.952 -24.983  0.00  0.00    +0.006 C 
BRANCH  19  24
ATOM     24  O   UNL     1      34.993 -16.823 -24.917  0.00  0.00    -0.472 OA
ATOM     25  C   UNL     1      34.289 -17.947 -25.442  0.00  0.00    +0.252 C 
ENDBRANCH  19  24
BRANCH  20  26
ATOM     26  O   UNL     1      33.386 -14.000 -21.388  0.00  0.00    -0.472 OA
ATOM     27  C   UNL     1      32.310 -13.158 -20.980  0.00  0.00    +0.252 C 
ENDBRANCH  20  26
ENDBRANCH  17  18
ENDBRANCH   1  17
TORSDOF 9
ENDMDL
