MODEL 1
REMARK VINA RESULT:      -7.9      0.000      0.000
REMARK  Name = 3325
REMARK  10 active torsions:
REMARK  status: ('A' for Active; 'I' for Inactive)
REMARK    1  A    between atoms: S_1  and  C_2
REMARK    2  A    between atoms: S_1  and  C_15
REMARK    3  A    between atoms: C_2  and  C_3
REMARK    4  A    between atoms: C_3  and  C_6
REMARK    5  A    between atoms: N_4  and  C_6
REMARK    6  A    between atoms: N_4  and  S_9
REMARK    7  A    between atoms: S_9  and  N_12
REMARK    8  A    between atoms: C_15  and  C_18
REMARK    9  A    between atoms: C_20  and  N_21
REMARK   10  A    between atoms: N_21  and  C_24
REMARK                            x       y       z     vdW  Elec       q    Type
REMARK                         _______ _______ _______ _____ _____    ______ ____
ROOT
ATOM      1  S   UNL     1      34.737 -24.288 -12.816  0.00  0.00    -0.133 S 
ENDROOT
BRANCH   1   2
ATOM      2  C   UNL     1      36.380 -24.927 -12.369  0.00  0.00    +0.066 C 
BRANCH   2   3
ATOM      3  C   UNL     1      37.458 -24.489 -13.355  0.00  0.00    +0.074 C 
BRANCH   3   5
ATOM      4  N   UNL     1      37.328 -26.000 -15.294  0.00  0.00    -0.387 N 
ATOM      5  C   UNL     1      38.024 -25.658 -14.157  0.00  0.00    +0.122 C 
ATOM      6  H   UNL     1      37.639 -26.744 -15.856  0.00  0.00    +0.157 HD
ATOM      7  H   UNL     1      36.518 -25.498 -15.544  0.00  0.00    +0.157 HD
BRANCH   5   8
ATOM      8  N   UNL     1      39.106 -26.202 -13.684  0.00  0.00    -0.074 NA
BRANCH   8   9
ATOM      9  S   UNL     1      40.569 -25.894 -14.342  0.00  0.00    +0.127 S 
ATOM     10  O   UNL     1      41.451 -27.017 -14.069  0.00  0.00    -0.137 OA
ATOM     11  O   UNL     1      40.984 -24.555 -13.953  0.00  0.00    -0.137 OA
BRANCH   9  12
ATOM     12  N   UNL     1      40.348 -25.856 -16.050  0.00  0.00    -0.189 NA
ATOM     13  H   UNL     1      40.884 -26.611 -16.478  0.00  0.00    +0.146 HD
ATOM     14  H   UNL     1      40.673 -24.960 -16.415  0.00  0.00    +0.146 HD
ENDBRANCH   9  12
ENDBRANCH   8   9
ENDBRANCH   5   8
ENDBRANCH   3   5
ENDBRANCH   2   3
ENDBRANCH   1   2
BRANCH   1  15
ATOM     15  C   UNL     1      35.227 -23.281 -14.233  0.00  0.00    +0.113 C 
BRANCH  15  18
ATOM     16  S   UNL     1      32.022 -23.334 -16.596  0.00  0.00    -0.055 S 
ATOM     17  N   UNL     1      34.607 -23.278 -16.608  0.00  0.00    -0.384 NA
ATOM     18  C   UNL     1      34.184 -23.296 -15.302  0.00  0.00    +0.111 C 
ATOM     19  C   UNL     1      32.832 -23.327 -15.084  0.00  0.00    +0.121 C 
ATOM     20  C   UNL     1      33.546 -23.295 -17.384  0.00  0.00    +0.243 C 
BRANCH  20  21
ATOM     21  N   UNL     1      33.555 -23.285 -18.741  0.00  0.00    -0.178 NA
BRANCH  21  24
ATOM     22  N   UNL     1      35.045 -21.502 -19.409  0.00  0.00    -0.370 N 
ATOM     23  N   UNL     1      32.844 -21.457 -20.005  0.00  0.00    -0.370 N 
ATOM     24  C   UNL     1      33.829 -22.150 -19.341  0.00  0.00    +0.196 C 
ATOM     25  H   UNL     1      35.837 -21.893 -18.974  0.00  0.00    +0.159 HD
ATOM     26  H   UNL     1      35.121 -20.648 -19.894  0.00  0.00    +0.159 HD
ATOM     27  H   UNL     1      31.926 -21.812 -20.032  0.00  0.00    +0.159 HD
ATOM     28  H   UNL     1      33.057 -20.607 -20.451  0.00  0.00    +0.159 HD
ENDBRANCH  21  24
ENDBRANCH  20  21
ENDBRANCH  15  18
ENDBRANCH   1  15
TORSDOF 10
ENDMDL
MODEL 2
REMARK VINA RESULT:      -7.8      5.558      9.120
REMARK  Name = 3325
REMARK  10 active torsions:
REMARK  status: ('A' for Active; 'I' for Inactive)
REMARK    1  A    between atoms: S_1  and  C_2
REMARK    2  A    between atoms: S_1  and  C_15
REMARK    3  A    between atoms: C_2  and  C_3
REMARK    4  A    between atoms: C_3  and  C_6
REMARK    5  A    between atoms: N_4  and  C_6
REMARK    6  A    between atoms: N_4  and  S_9
REMARK    7  A    between atoms: S_9  and  N_12
REMARK    8  A    between atoms: C_15  and  C_18
REMARK    9  A    between atoms: C_20  and  N_21
REMARK   10  A    between atoms: N_21  and  C_24
REMARK                            x       y       z     vdW  Elec       q    Type
REMARK                         _______ _______ _______ _____ _____    ______ ____
ROOT
ATOM      1  S   UNL     1      32.902 -23.831 -14.311  0.00  0.00    -0.133 S 
ENDROOT
BRANCH   1   2
ATOM      2  C   UNL     1      31.777 -23.315 -15.644  0.00  0.00    +0.066 C 
BRANCH   2   3
ATOM      3  C   UNL     1      30.605 -22.490 -15.124  0.00  0.00    +0.074 C 
BRANCH   3   5
ATOM      4  N   UNL     1      28.880 -24.216 -15.442  0.00  0.00    -0.387 N 
ATOM      5  C   UNL     1      29.272 -22.928 -15.726  0.00  0.00    +0.122 C 
ATOM      6  H   UNL     1      28.031 -24.562 -15.798  0.00  0.00    +0.157 HD
ATOM      7  H   UNL     1      29.450 -24.791 -14.881  0.00  0.00    +0.157 HD
BRANCH   5   8
ATOM      8  N   UNL     1      28.647 -22.037 -16.436  0.00  0.00    -0.074 NA
BRANCH   8   9
ATOM      9  S   UNL     1      27.104 -22.268 -16.922  0.00  0.00    +0.127 S 
ATOM     10  O   UNL     1      26.264 -22.427 -15.747  0.00  0.00    -0.137 OA
ATOM     11  O   UNL     1      27.087 -23.295 -17.951  0.00  0.00    -0.137 OA
BRANCH   9  12
ATOM     12  N   UNL     1      26.600 -20.809 -17.684  0.00  0.00    -0.189 NA
ATOM     13  H   UNL     1      25.741 -20.979 -18.208  0.00  0.00    +0.146 HD
ATOM     14  H   UNL     1      27.328 -20.488 -18.322  0.00  0.00    +0.146 HD
ENDBRANCH   9  12
ENDBRANCH   8   9
ENDBRANCH   5   8
ENDBRANCH   3   5
ENDBRANCH   2   3
ENDBRANCH   1   2
BRANCH   1  15
ATOM     15  C   UNL     1      34.386 -24.089 -15.308  0.00  0.00    +0.113 C 
BRANCH  15  18
ATOM     16  S   UNL     1      37.001 -25.529 -12.673  0.00  0.00    -0.055 S 
ATOM     17  N   UNL     1      36.419 -25.458 -15.192  0.00  0.00    -0.384 NA
ATOM     18  C   UNL     1      35.476 -24.728 -14.512  0.00  0.00    +0.111 C 
ATOM     19  C   UNL     1      35.612 -24.645 -13.152  0.00  0.00    +0.121 C 
ATOM     20  C   UNL     1      37.280 -25.932 -14.318  0.00  0.00    +0.243 C 
BRANCH  20  21
ATOM     21  N   UNL     1      38.359 -26.704 -14.605  0.00  0.00    -0.178 NA
BRANCH  21  24
ATOM     22  N   UNL     1      40.749 -26.544 -14.279  0.00  0.00    -0.370 N 
ATOM     23  N   UNL     1      39.616 -24.894 -15.371  0.00  0.00    -0.370 N 
ATOM     24  C   UNL     1      39.521 -26.107 -14.729  0.00  0.00    +0.196 C 
ATOM     25  H   UNL     1      40.822 -27.401 -13.800  0.00  0.00    +0.159 HD
ATOM     26  H   UNL     1      41.554 -25.999 -14.435  0.00  0.00    +0.159 HD
ATOM     27  H   UNL     1      38.809 -24.469 -15.742  0.00  0.00    +0.159 HD
ATOM     28  H   UNL     1      40.490 -24.452 -15.459  0.00  0.00    +0.159 HD
ENDBRANCH  21  24
ENDBRANCH  20  21
ENDBRANCH  15  18
ENDBRANCH   1  15
TORSDOF 10
ENDMDL
MODEL 3
REMARK VINA RESULT:      -7.7      2.665      3.348
REMARK  Name = 3325
REMARK  10 active torsions:
REMARK  status: ('A' for Active; 'I' for Inactive)
REMARK    1  A    between atoms: S_1  and  C_2
REMARK    2  A    between atoms: S_1  and  C_15
REMARK    3  A    between atoms: C_2  and  C_3
REMARK    4  A    between atoms: C_3  and  C_6
REMARK    5  A    between atoms: N_4  and  C_6
REMARK    6  A    between atoms: N_4  and  S_9
REMARK    7  A    between atoms: S_9  and  N_12
REMARK    8  A    between atoms: C_15  and  C_18
REMARK    9  A    between atoms: C_20  and  N_21
REMARK   10  A    between atoms: N_21  and  C_24
REMARK                            x       y       z     vdW  Elec       q    Type
REMARK                         _______ _______ _______ _____ _____    ______ ____
ROOT
ATOM      1  S   UNL     1      36.829 -23.418 -15.402  0.00  0.00    -0.133 S 
ENDROOT
BRANCH   1   2
ATOM      2  C   UNL     1      37.914 -24.848 -15.109  0.00  0.00    +0.066 C 
BRANCH   2   3
ATOM      3  C   UNL     1      38.534 -24.828 -13.716  0.00  0.00    +0.074 C 
BRANCH   3   5
ATOM      4  N   UNL     1      37.139 -26.769 -13.130  0.00  0.00    -0.387 N 
ATOM      5  C   UNL     1      37.692 -25.587 -12.693  0.00  0.00    +0.122 C 
ATOM      6  H   UNL     1      36.585 -27.307 -12.520  0.00  0.00    +0.157 HD
ATOM      7  H   UNL     1      37.299 -27.076 -14.052  0.00  0.00    +0.157 HD
BRANCH   5   8
ATOM      8  N   UNL     1      37.592 -25.039 -11.519  0.00  0.00    -0.074 NA
BRANCH   8   9
ATOM      9  S   UNL     1      36.305 -24.116 -11.119  0.00  0.00    +0.127 S 
ATOM     10  O   UNL     1      36.394 -22.854 -11.836  0.00  0.00    -0.137 OA
ATOM     11  O   UNL     1      36.171 -24.101  -9.671  0.00  0.00    -0.137 OA
BRANCH   9  12
ATOM     12  N   UNL     1      34.908 -24.920 -11.726  0.00  0.00    -0.189 NA
ATOM     13  H   UNL     1      34.254 -25.089 -10.962  0.00  0.00    +0.146 HD
ATOM     14  H   UNL     1      35.182 -25.811 -12.141  0.00  0.00    +0.146 HD
ENDBRANCH   9  12
ENDBRANCH   8   9
ENDBRANCH   5   8
ENDBRANCH   3   5
ENDBRANCH   2   3
ENDBRANCH   1   2
BRANCH   1  15
ATOM     15  C   UNL     1      35.255 -24.195 -14.973  0.00  0.00    +0.113 C 
BRANCH  15  18
ATOM     16  S   UNL     1      31.944 -22.951 -16.801  0.00  0.00    -0.055 S 
ATOM     17  N   UNL     1      34.440 -23.506 -17.183  0.00  0.00    -0.384 NA
ATOM     18  C   UNL     1      34.150 -23.720 -15.858  0.00  0.00    +0.111 C 
ATOM     19  C   UNL     1      32.864 -23.479 -15.454  0.00  0.00    +0.121 C 
ATOM     20  C   UNL     1      33.345 -23.095 -17.782  0.00  0.00    +0.243 C 
BRANCH  20  21
ATOM     21  N   UNL     1      33.230 -22.779 -19.097  0.00  0.00    -0.178 NA
BRANCH  21  24
ATOM     22  N   UNL     1      32.762 -20.528 -19.845  0.00  0.00    -0.370 N 
ATOM     23  N   UNL     1      34.911 -21.214 -19.512  0.00  0.00    -0.370 N 
ATOM     24  C   UNL     1      33.582 -21.570 -19.467  0.00  0.00    +0.196 C 
ATOM     25  H   UNL     1      31.785 -20.650 -19.857  0.00  0.00    +0.159 HD
ATOM     26  H   UNL     1      33.152 -19.662 -20.103  0.00  0.00    +0.159 HD
ATOM     27  H   UNL     1      35.603 -21.869 -19.265  0.00  0.00    +0.159 HD
ATOM     28  H   UNL     1      35.167 -20.306 -19.790  0.00  0.00    +0.159 HD
ENDBRANCH  21  24
ENDBRANCH  20  21
ENDBRANCH  15  18
ENDBRANCH   1  15
TORSDOF 10
ENDMDL
MODEL 4
REMARK VINA RESULT:      -7.7      2.425      3.182
REMARK  Name = 3325
REMARK  10 active torsions:
REMARK  status: ('A' for Active; 'I' for Inactive)
REMARK    1  A    between atoms: S_1  and  C_2
REMARK    2  A    between atoms: S_1  and  C_15
REMARK    3  A    between atoms: C_2  and  C_3
REMARK    4  A    between atoms: C_3  and  C_6
REMARK    5  A    between atoms: N_4  and  C_6
REMARK    6  A    between atoms: N_4  and  S_9
REMARK    7  A    between atoms: S_9  and  N_12
REMARK    8  A    between atoms: C_15  and  C_18
REMARK    9  A    between atoms: C_20  and  N_21
REMARK   10  A    between atoms: N_21  and  C_24
REMARK                            x       y       z     vdW  Elec       q    Type
REMARK                         _______ _______ _______ _____ _____    ______ ____
ROOT
ATOM      1  S   UNL     1      36.026 -22.715 -15.909  0.00  0.00    -0.133 S 
ENDROOT
BRANCH   1   2
ATOM      2  C   UNL     1      37.512 -23.508 -15.224  0.00  0.00    +0.066 C 
BRANCH   2   3
ATOM      3  C   UNL     1      37.172 -24.570 -14.183  0.00  0.00    +0.074 C 
BRANCH   3   5
ATOM      4  N   UNL     1      37.283 -26.696 -15.418  0.00  0.00    -0.387 N 
ATOM      5  C   UNL     1      37.868 -25.900 -14.460  0.00  0.00    +0.122 C 
ATOM      6  H   UNL     1      37.681 -27.567 -15.645  0.00  0.00    +0.157 HD
ATOM      7  H   UNL     1      36.466 -26.394 -15.877  0.00  0.00    +0.157 HD
BRANCH   5   8
ATOM      8  N   UNL     1      38.942 -26.137 -13.767  0.00  0.00    -0.074 NA
BRANCH   8   9
ATOM      9  S   UNL     1      40.430 -25.875 -14.389  0.00  0.00    +0.127 S 
ATOM     10  O   UNL     1      41.256 -27.043 -14.132  0.00  0.00    -0.137 OA
ATOM     11  O   UNL     1      40.895 -24.567 -13.956  0.00  0.00    -0.137 OA
BRANCH   9  12
ATOM     12  N   UNL     1      40.244 -25.781 -16.099  0.00  0.00    -0.189 NA
ATOM     13  H   UNL     1      41.069 -26.174 -16.553  0.00  0.00    +0.146 HD
ATOM     14  H   UNL     1      40.136 -24.806 -16.376  0.00  0.00    +0.146 HD
ENDBRANCH   9  12
ENDBRANCH   8   9
ENDBRANCH   5   8
ENDBRANCH   3   5
ENDBRANCH   2   3
ENDBRANCH   1   2
BRANCH   1  15
ATOM     15  C   UNL     1      36.751 -22.083 -17.438  0.00  0.00    +0.113 C 
BRANCH  15  18
ATOM     16  S   UNL     1      33.580 -21.587 -19.795  0.00  0.00    -0.055 S 
ATOM     17  N   UNL     1      36.012 -20.804 -19.399  0.00  0.00    -0.384 NA
ATOM     18  C   UNL     1      35.699 -21.736 -18.441  0.00  0.00    +0.111 C 
ATOM     19  C   UNL     1      34.441 -22.276 -18.482  0.00  0.00    +0.121 C 
ATOM     20  C   UNL     1      34.962 -20.644 -20.174  0.00  0.00    +0.243 C 
BRANCH  20  21
ATOM     21  N   UNL     1      34.882 -19.804 -21.237  0.00  0.00    -0.178 NA
BRANCH  21  24
ATOM     22  N   UNL     1      35.217 -17.460 -20.748  0.00  0.00    -0.370 N 
ATOM     23  N   UNL     1      36.898 -18.707 -21.654  0.00  0.00    -0.370 N 
ATOM     24  C   UNL     1      35.599 -18.705 -21.202  0.00  0.00    +0.196 C 
ATOM     25  H   UNL     1      34.308 -17.321 -20.397  0.00  0.00    +0.159 HD
ATOM     26  H   UNL     1      35.854 -16.709 -20.776  0.00  0.00    +0.159 HD
ATOM     27  H   UNL     1      37.296 -19.536 -22.006  0.00  0.00    +0.159 HD
ATOM     28  H   UNL     1      37.430 -17.880 -21.625  0.00  0.00    +0.159 HD
ENDBRANCH  21  24
ENDBRANCH  20  21
ENDBRANCH  15  18
ENDBRANCH   1  15
TORSDOF 10
ENDMDL
MODEL 5
REMARK VINA RESULT:      -7.6      3.410      4.548
REMARK  Name = 3325
REMARK  10 active torsions:
REMARK  status: ('A' for Active; 'I' for Inactive)
REMARK    1  A    between atoms: S_1  and  C_2
REMARK    2  A    between atoms: S_1  and  C_15
REMARK    3  A    between atoms: C_2  and  C_3
REMARK    4  A    between atoms: C_3  and  C_6
REMARK    5  A    between atoms: N_4  and  C_6
REMARK    6  A    between atoms: N_4  and  S_9
REMARK    7  A    between atoms: S_9  and  N_12
REMARK    8  A    between atoms: C_15  and  C_18
REMARK    9  A    between atoms: C_20  and  N_21
REMARK   10  A    between atoms: N_21  and  C_24
REMARK                            x       y       z     vdW  Elec       q    Type
REMARK                         _______ _______ _______ _____ _____    ______ ____
ROOT
ATOM      1  S   UNL     1      36.789 -21.631 -17.910  0.00  0.00    -0.133 S 
ENDROOT
BRANCH   1   2
ATOM      2  C   UNL     1      36.933 -22.504 -16.321  0.00  0.00    +0.066 C 
BRANCH   2   3
ATOM      3  C   UNL     1      35.618 -23.146 -15.893  0.00  0.00    +0.074 C 
BRANCH   3   5
ATOM      4  N   UNL     1      34.694 -25.004 -14.570  0.00  0.00    -0.387 N 
ATOM      5  C   UNL     1      35.829 -24.428 -15.091  0.00  0.00    +0.122 C 
ATOM      6  H   UNL     1      34.760 -25.832 -14.043  0.00  0.00    +0.157 HD
ATOM      7  H   UNL     1      33.815 -24.588 -14.725  0.00  0.00    +0.157 HD
BRANCH   5   8
ATOM      8  N   UNL     1      37.058 -24.841 -14.991  0.00  0.00    -0.074 NA
BRANCH   8   9
ATOM      9  S   UNL     1      37.413 -26.432 -14.890  0.00  0.00    +0.127 S 
ATOM     10  O   UNL     1      38.855 -26.584 -14.794  0.00  0.00    -0.137 OA
ATOM     11  O   UNL     1      36.693 -27.139 -15.939  0.00  0.00    -0.137 OA
BRANCH   9  12
ATOM     12  N   UNL     1      36.765 -26.993 -13.396  0.00  0.00    -0.189 NA
ATOM     13  H   UNL     1      37.471 -26.903 -12.665  0.00  0.00    +0.146 HD
ATOM     14  H   UNL     1      36.494 -27.972 -13.489  0.00  0.00    +0.146 HD
ENDBRANCH   9  12
ENDBRANCH   8   9
ENDBRANCH   5   8
ENDBRANCH   3   5
ENDBRANCH   2   3
ENDBRANCH   1   2
BRANCH   1  15
ATOM     15  C   UNL     1      35.156 -22.234 -18.390  0.00  0.00    +0.113 C 
BRANCH  15  18
ATOM     16  S   UNL     1      32.924 -20.046 -20.857  0.00  0.00    -0.055 S 
ATOM     17  N   UNL     1      35.357 -20.740 -20.327  0.00  0.00    -0.384 NA
ATOM     18  C   UNL     1      34.528 -21.354 -19.422  0.00  0.00    +0.111 C 
ATOM     19  C   UNL     1      33.186 -21.110 -19.538  0.00  0.00    +0.121 C 
ATOM     20  C   UNL     1      34.616 -20.019 -21.139  0.00  0.00    +0.243 C 
BRANCH  20  21
ATOM     21  N   UNL     1      35.073 -19.263 -22.170  0.00  0.00    -0.178 NA
BRANCH  21  24
ATOM     22  N   UNL     1      35.348 -17.356 -20.711  0.00  0.00    -0.370 N 
ATOM     23  N   UNL     1      35.660 -17.148 -22.960  0.00  0.00    -0.370 N 
ATOM     24  C   UNL     1      35.340 -18.001 -21.929  0.00  0.00    +0.196 C 
ATOM     25  H   UNL     1      35.136 -17.853 -19.888  0.00  0.00    +0.159 HD
ATOM     26  H   UNL     1      35.566 -16.397 -20.662  0.00  0.00    +0.159 HD
ATOM     27  H   UNL     1      35.690 -17.484 -23.885  0.00  0.00    +0.159 HD
ATOM     28  H   UNL     1      35.859 -16.203 -22.772  0.00  0.00    +0.159 HD
ENDBRANCH  21  24
ENDBRANCH  20  21
ENDBRANCH  15  18
ENDBRANCH   1  15
TORSDOF 10
ENDMDL
MODEL 6
REMARK VINA RESULT:      -7.5      5.653      8.853
REMARK  Name = 3325
REMARK  10 active torsions:
REMARK  status: ('A' for Active; 'I' for Inactive)
REMARK    1  A    between atoms: S_1  and  C_2
REMARK    2  A    between atoms: S_1  and  C_15
REMARK    3  A    between atoms: C_2  and  C_3
REMARK    4  A    between atoms: C_3  and  C_6
REMARK    5  A    between atoms: N_4  and  C_6
REMARK    6  A    between atoms: N_4  and  S_9
REMARK    7  A    between atoms: S_9  and  N_12
REMARK    8  A    between atoms: C_15  and  C_18
REMARK    9  A    between atoms: C_20  and  N_21
REMARK   10  A    between atoms: N_21  and  C_24
REMARK                            x       y       z     vdW  Elec       q    Type
REMARK                         _______ _______ _______ _____ _____    ______ ____
ROOT
ATOM      1  S   UNL     1      32.859 -24.322 -13.973  0.00  0.00    -0.133 S 
ENDROOT
BRANCH   1   2
ATOM      2  C   UNL     1      31.248 -23.493 -13.814  0.00  0.00    +0.066 C 
BRANCH   2   3
ATOM      3  C   UNL     1      30.880 -22.700 -15.063  0.00  0.00    +0.074 C 
BRANCH   3   5
ATOM      4  N   UNL     1      28.994 -24.271 -15.232  0.00  0.00    -0.387 N 
ATOM      5  C   UNL     1      29.479 -23.029 -15.570  0.00  0.00    +0.122 C 
ATOM      6  H   UNL     1      28.096 -24.546 -15.527  0.00  0.00    +0.157 HD
ATOM      7  H   UNL     1      29.546 -24.885 -14.694  0.00  0.00    +0.157 HD
BRANCH   5   8
ATOM      8  N   UNL     1      28.890 -22.099 -16.262  0.00  0.00    -0.074 NA
BRANCH   8   9
ATOM      9  S   UNL     1      27.388 -22.313 -16.868  0.00  0.00    +0.127 S 
ATOM     10  O   UNL     1      27.344 -23.588 -17.566  0.00  0.00    -0.137 OA
ATOM     11  O   UNL     1      26.992 -21.104 -17.573  0.00  0.00    -0.137 OA
BRANCH   9  12
ATOM     12  N   UNL     1      26.325 -22.460 -15.522  0.00  0.00    -0.189 NA
ATOM     13  H   UNL     1      25.473 -21.929 -15.702  0.00  0.00    +0.146 HD
ATOM     14  H   UNL     1      26.782 -22.095 -14.686  0.00  0.00    +0.146 HD
ENDBRANCH   9  12
ENDBRANCH   8   9
ENDBRANCH   5   8
ENDBRANCH   3   5
ENDBRANCH   2   3
ENDBRANCH   1   2
BRANCH   1  15
ATOM     15  C   UNL     1      33.505 -23.370 -15.365  0.00  0.00    +0.113 C 
BRANCH  15  18
ATOM     16  S   UNL     1      37.421 -22.792 -15.801  0.00  0.00    -0.055 S 
ATOM     17  N   UNL     1      35.640 -23.859 -14.259  0.00  0.00    -0.384 NA
ATOM     18  C   UNL     1      34.995 -23.276 -15.321  0.00  0.00    +0.111 C 
ATOM     19  C   UNL     1      35.774 -22.652 -16.259  0.00  0.00    +0.121 C 
ATOM     20  C   UNL     1      36.933 -23.665 -14.407  0.00  0.00    +0.243 C 
BRANCH  20  21
ATOM     21  N   UNL     1      37.901 -24.094 -13.558  0.00  0.00    -0.178 NA
BRANCH  21  24
ATOM     22  N   UNL     1      36.968 -26.257 -13.014  0.00  0.00    -0.370 N 
ATOM     23  N   UNL     1      39.203 -26.023 -13.398  0.00  0.00    -0.370 N 
ATOM     24  C   UNL     1      37.987 -25.384 -13.332  0.00  0.00    +0.196 C 
ATOM     25  H   UNL     1      36.044 -25.927 -12.935  0.00  0.00    +0.159 HD
ATOM     26  H   UNL     1      37.164 -27.210 -12.866  0.00  0.00    +0.159 HD
ATOM     27  H   UNL     1      40.016 -25.512 -13.617  0.00  0.00    +0.159 HD
ATOM     28  H   UNL     1      39.260 -26.990 -13.227  0.00  0.00    +0.159 HD
ENDBRANCH  21  24
ENDBRANCH  20  21
ENDBRANCH  15  18
ENDBRANCH   1  15
TORSDOF 10
ENDMDL
MODEL 7
REMARK VINA RESULT:      -7.4      5.796      8.166
REMARK  Name = 3325
REMARK  10 active torsions:
REMARK  status: ('A' for Active; 'I' for Inactive)
REMARK    1  A    between atoms: S_1  and  C_2
REMARK    2  A    between atoms: S_1  and  C_15
REMARK    3  A    between atoms: C_2  and  C_3
REMARK    4  A    between atoms: C_3  and  C_6
REMARK    5  A    between atoms: N_4  and  C_6
REMARK    6  A    between atoms: N_4  and  S_9
REMARK    7  A    between atoms: S_9  and  N_12
REMARK    8  A    between atoms: C_15  and  C_18
REMARK    9  A    between atoms: C_20  and  N_21
REMARK   10  A    between atoms: N_21  and  C_24
REMARK                            x       y       z     vdW  Elec       q    Type
REMARK                         _______ _______ _______ _____ _____    ______ ____
ROOT
ATOM      1  S   UNL     1      33.031 -23.125 -14.660  0.00  0.00    -0.133 S 
ENDROOT
BRANCH   1   2
ATOM      2  C   UNL     1      31.797 -23.829 -15.796  0.00  0.00    +0.066 C 
BRANCH   2   3
ATOM      3  C   UNL     1      30.936 -22.755 -16.453  0.00  0.00    +0.074 C 
BRANCH   3   5
ATOM      4  N   UNL     1      29.101 -24.140 -15.576  0.00  0.00    -0.387 N 
ATOM      5  C   UNL     1      29.448 -22.952 -16.179  0.00  0.00    +0.122 C 
ATOM      6  H   UNL     1      28.158 -24.330 -15.371  0.00  0.00    +0.157 HD
ATOM      7  H   UNL     1      29.798 -24.798 -15.348  0.00  0.00    +0.157 HD
BRANCH   5   8
ATOM      8  N   UNL     1      28.668 -21.977 -16.539  0.00  0.00    -0.074 NA
BRANCH   8   9
ATOM      9  S   UNL     1      27.124 -22.250 -16.997  0.00  0.00    +0.127 S 
ATOM     10  O   UNL     1      26.312 -22.449 -15.808  0.00  0.00    -0.137 OA
ATOM     11  O   UNL     1      27.117 -23.265 -18.039  0.00  0.00    -0.137 OA
BRANCH   9  12
ATOM     12  N   UNL     1      26.559 -20.798 -17.732  0.00  0.00    -0.189 NA
ATOM     13  H   UNL     1      27.312 -20.378 -18.278  0.00  0.00    +0.146 HD
ATOM     14  H   UNL     1      26.259 -20.145 -17.009  0.00  0.00    +0.146 HD
ENDBRANCH   9  12
ENDBRANCH   8   9
ENDBRANCH   5   8
ENDBRANCH   3   5
ENDBRANCH   2   3
ENDBRANCH   1   2
BRANCH   1  15
ATOM     15  C   UNL     1      34.495 -23.946 -15.326  0.00  0.00    +0.113 C 
BRANCH  15  18
ATOM     16  S   UNL     1      36.702 -21.619 -17.686  0.00  0.00    -0.055 S 
ATOM     17  N   UNL     1      34.549 -23.048 -17.610  0.00  0.00    -0.384 NA
ATOM     18  C   UNL     1      35.155 -23.118 -16.380  0.00  0.00    +0.111 C 
ATOM     19  C   UNL     1      36.322 -22.420 -16.219  0.00  0.00    +0.121 C 
ATOM     20  C   UNL     1      35.281 -22.279 -18.385  0.00  0.00    +0.243 C 
BRANCH  20  21
ATOM     21  N   UNL     1      35.009 -21.967 -19.678  0.00  0.00    -0.178 NA
BRANCH  21  24
ATOM     22  N   UNL     1      34.637 -19.706 -20.448  0.00  0.00    -0.370 N 
ATOM     23  N   UNL     1      32.916 -20.939 -19.599  0.00  0.00    -0.370 N 
ATOM     24  C   UNL     1      34.257 -20.916 -19.907  0.00  0.00    +0.196 C 
ATOM     25  H   UNL     1      35.573 -19.557 -20.713  0.00  0.00    +0.159 HD
ATOM     26  H   UNL     1      33.972 -18.990 -20.569  0.00  0.00    +0.159 HD
ATOM     27  H   UNL     1      32.516 -21.747 -19.205  0.00  0.00    +0.159 HD
ATOM     28  H   UNL     1      32.359 -20.147 -19.773  0.00  0.00    +0.159 HD
ENDBRANCH  21  24
ENDBRANCH  20  21
ENDBRANCH  15  18
ENDBRANCH   1  15
TORSDOF 10
ENDMDL
MODEL 8
REMARK VINA RESULT:      -7.4      5.486      8.811
REMARK  Name = 3325
REMARK  10 active torsions:
REMARK  status: ('A' for Active; 'I' for Inactive)
REMARK    1  A    between atoms: S_1  and  C_2
REMARK    2  A    between atoms: S_1  and  C_15
REMARK    3  A    between atoms: C_2  and  C_3
REMARK    4  A    between atoms: C_3  and  C_6
REMARK    5  A    between atoms: N_4  and  C_6
REMARK    6  A    between atoms: N_4  and  S_9
REMARK    7  A    between atoms: S_9  and  N_12
REMARK    8  A    between atoms: C_15  and  C_18
REMARK    9  A    between atoms: C_20  and  N_21
REMARK   10  A    between atoms: N_21  and  C_24
REMARK                            x       y       z     vdW  Elec       q    Type
REMARK                         _______ _______ _______ _____ _____    ______ ____
ROOT
ATOM      1  S   UNL     1      34.130 -23.165 -15.329  0.00  0.00    -0.133 S 
ENDROOT
BRANCH   1   2
ATOM      2  C   UNL     1      32.496 -23.631 -15.978  0.00  0.00    +0.066 C 
BRANCH   2   3
ATOM      3  C   UNL     1      31.375 -22.787 -15.381  0.00  0.00    +0.074 C 
BRANCH   3   5
ATOM      4  N   UNL     1      29.646 -24.529 -15.553  0.00  0.00    -0.387 N 
ATOM      5  C   UNL     1      29.994 -23.233 -15.855  0.00  0.00    +0.122 C 
ATOM      6  H   UNL     1      28.769 -24.880 -15.830  0.00  0.00    +0.157 HD
ATOM      7  H   UNL     1      30.274 -25.105 -15.059  0.00  0.00    +0.157 HD
BRANCH   5   8
ATOM      8  N   UNL     1      29.293 -22.339 -16.487  0.00  0.00    -0.074 NA
BRANCH   8   9
ATOM      9  S   UNL     1      27.691 -22.539 -16.738  0.00  0.00    +0.127 S 
ATOM     10  O   UNL     1      27.202 -21.432 -17.543  0.00  0.00    -0.137 OA
ATOM     11  O   UNL     1      27.051 -22.826 -15.464  0.00  0.00    -0.137 OA
BRANCH   9  12
ATOM     12  N   UNL     1      27.511 -23.955 -17.700  0.00  0.00    -0.189 NA
ATOM     13  H   UNL     1      26.533 -24.059 -17.973  0.00  0.00    +0.146 HD
ATOM     14  H   UNL     1      27.801 -24.772 -17.162  0.00  0.00    +0.146 HD
ENDBRANCH   9  12
ENDBRANCH   8   9
ENDBRANCH   5   8
ENDBRANCH   3   5
ENDBRANCH   2   3
ENDBRANCH   1   2
BRANCH   1  15
ATOM     15  C   UNL     1      34.130 -24.207 -13.853  0.00  0.00    +0.113 C 
BRANCH  15  18
ATOM     16  S   UNL     1      37.611 -23.996 -11.930  0.00  0.00    -0.055 S 
ATOM     17  N   UNL     1      36.304 -25.337 -13.713  0.00  0.00    -0.384 NA
ATOM     18  C   UNL     1      35.498 -24.321 -13.264  0.00  0.00    +0.111 C 
ATOM     19  C   UNL     1      36.016 -23.490 -12.306  0.00  0.00    +0.121 C 
ATOM     20  C   UNL     1      37.452 -25.264 -13.075  0.00  0.00    +0.243 C 
BRANCH  20  21
ATOM     21  N   UNL     1      38.509 -26.098 -13.245  0.00  0.00    -0.178 NA
BRANCH  21  24
ATOM     22  N   UNL     1      40.611 -26.325 -14.417  0.00  0.00    -0.370 N 
ATOM     23  N   UNL     1      38.949 -25.015 -15.264  0.00  0.00    -0.370 N 
ATOM     24  C   UNL     1      39.331 -25.847 -14.237  0.00  0.00    +0.196 C 
ATOM     25  H   UNL     1      41.008 -26.933 -13.751  0.00  0.00    +0.159 HD
ATOM     26  H   UNL     1      41.130 -26.059 -15.210  0.00  0.00    +0.159 HD
ATOM     27  H   UNL     1      38.054 -24.604 -15.258  0.00  0.00    +0.159 HD
ATOM     28  H   UNL     1      39.570 -24.830 -16.004  0.00  0.00    +0.159 HD
ENDBRANCH  21  24
ENDBRANCH  20  21
ENDBRANCH  15  18
ENDBRANCH   1  15
TORSDOF 10
ENDMDL
MODEL 9
REMARK VINA RESULT:      -7.3      6.958      9.634
REMARK  Name = 3325
REMARK  10 active torsions:
REMARK  status: ('A' for Active; 'I' for Inactive)
REMARK    1  A    between atoms: S_1  and  C_2
REMARK    2  A    between atoms: S_1  and  C_15
REMARK    3  A    between atoms: C_2  and  C_3
REMARK    4  A    between atoms: C_3  and  C_6
REMARK    5  A    between atoms: N_4  and  C_6
REMARK    6  A    between atoms: N_4  and  S_9
REMARK    7  A    between atoms: S_9  and  N_12
REMARK    8  A    between atoms: C_15  and  C_18
REMARK    9  A    between atoms: C_20  and  N_21
REMARK   10  A    between atoms: N_21  and  C_24
REMARK                            x       y       z     vdW  Elec       q    Type
REMARK                         _______ _______ _______ _____ _____    ______ ____
ROOT
ATOM      1  S   UNL     1      35.742 -17.980 -22.278  0.00  0.00    -0.133 S 
ENDROOT
BRANCH   1   2
ATOM      2  C   UNL     1      34.616 -19.408 -22.232  0.00  0.00    +0.066 C 
BRANCH   2   3
ATOM      3  C   UNL     1      33.862 -19.507 -20.910  0.00  0.00    +0.074 C 
BRANCH   3   5
ATOM      4  N   UNL     1      35.595 -21.101 -20.195  0.00  0.00    -0.387 N 
ATOM      5  C   UNL     1      34.274 -20.729 -20.095  0.00  0.00    +0.122 C 
ATOM      6  H   UNL     1      35.926 -21.880 -19.695  0.00  0.00    +0.157 HD
ATOM      7  H   UNL     1      36.209 -20.585 -20.768  0.00  0.00    +0.157 HD
BRANCH   5   8
ATOM      8  N   UNL     1      33.335 -21.285 -19.388  0.00  0.00    -0.074 NA
BRANCH   8   9
ATOM      9  S   UNL     1      33.566 -22.727 -18.654  0.00  0.00    +0.127 S 
ATOM     10  O   UNL     1      33.927 -23.711 -19.661  0.00  0.00    -0.137 OA
ATOM     11  O   UNL     1      32.436 -22.991 -17.777  0.00  0.00    -0.137 OA
BRANCH   9  12
ATOM     12  N   UNL     1      34.942 -22.551 -17.633  0.00  0.00    -0.189 NA
ATOM     13  H   UNL     1      34.938 -21.619 -17.216  0.00  0.00    +0.146 HD
ATOM     14  H   UNL     1      35.792 -22.673 -18.184  0.00  0.00    +0.146 HD
ENDBRANCH   9  12
ENDBRANCH   8   9
ENDBRANCH   5   8
ENDBRANCH   3   5
ENDBRANCH   2   3
ENDBRANCH   1   2
BRANCH   1  15
ATOM     15  C   UNL     1      34.968 -16.997 -20.975  0.00  0.00    +0.113 C 
BRANCH  15  18
ATOM     16  S   UNL     1      32.560 -13.961 -21.889  0.00  0.00    -0.055 S 
ATOM     17  N   UNL     1      34.325 -15.576 -22.869  0.00  0.00    -0.384 NA
ATOM     18  C   UNL     1      34.156 -15.879 -21.541  0.00  0.00    +0.111 C 
ATOM     19  C   UNL     1      33.253 -15.126 -20.839  0.00  0.00    +0.121 C 
ATOM     20  C   UNL     1      33.528 -14.573 -23.167  0.00  0.00    +0.243 C 
BRANCH  20  21
ATOM     21  N   UNL     1      33.409 -13.989 -24.386  0.00  0.00    -0.178 NA
BRANCH  21  24
ATOM     22  N   UNL     1      33.760 -15.998 -25.683  0.00  0.00    -0.370 N 
ATOM     23  N   UNL     1      32.309 -14.393 -26.403  0.00  0.00    -0.370 N 
ATOM     24  C   UNL     1      33.193 -14.770 -25.418  0.00  0.00    +0.196 C 
ATOM     25  H   UNL     1      34.412 -16.385 -25.055  0.00  0.00    +0.159 HD
ATOM     26  H   UNL     1      33.513 -16.489 -26.500  0.00  0.00    +0.159 HD
ATOM     27  H   UNL     1      31.834 -13.534 -26.335  0.00  0.00    +0.159 HD
ATOM     28  H   UNL     1      32.152 -14.983 -27.174  0.00  0.00    +0.159 HD
ENDBRANCH  21  24
ENDBRANCH  20  21
ENDBRANCH  15  18
ENDBRANCH   1  15
TORSDOF 10
ENDMDL
