MODEL 1
REMARK VINA RESULT:      -8.2      0.000      0.000
REMARK  Name = 1331
REMARK  8 active torsions:
REMARK  status: ('A' for Active; 'I' for Inactive)
REMARK    1  A    between atoms: C_1  and  C_7
REMARK    2  A    between atoms: C_2  and  C_16
REMARK    3  A    between atoms: C_7  and  C_8
REMARK    4  A    between atoms: C_8  and  S_9
REMARK    5  A    between atoms: S_9  and  C_12
REMARK    6  A    between atoms: C_16  and  C_17
REMARK    7  A    between atoms: C_17  and  S_18
REMARK    8  A    between atoms: S_18  and  C_21
REMARK                            x       y       z     vdW  Elec       q    Type
REMARK                         _______ _______ _______ _____ _____    ______ ____
ROOT
ATOM      1  C   UNL     1      34.656 -20.203 -20.630  0.00  0.00    -0.022 C 
ATOM      2  C   UNL     1      34.173 -21.850 -18.930  0.00  0.00    -0.022 C 
ATOM      3  C   UNL     1      33.732 -20.955 -19.906  0.00  0.00    -0.008 C 
ATOM      4  C   UNL     1      36.021 -20.344 -20.378  0.00  0.00    -0.004 C 
ATOM      5  C   UNL     1      35.538 -21.990 -18.679  0.00  0.00    -0.004 C 
ATOM      6  C   UNL     1      36.461 -21.238 -19.403  0.00  0.00    -0.001 C 
ENDROOT
BRANCH   1   7
ATOM      7  C   UNL     1      34.186 -19.247 -21.673  0.00  0.00    +0.038 C 
BRANCH   7   8
ATOM      8  C   UNL     1      35.247 -18.841 -22.710  0.00  0.00    +0.070 C 
BRANCH   8   9
ATOM      9  S   UNL     1      34.571 -18.741 -24.396  0.00  0.00    -0.081 S 
BRANCH   9  12
ATOM     10  N   UNL     1      35.415 -16.324 -23.777  0.00  0.00    -0.338 N 
ATOM     11  N   UNL     1      34.317 -16.527 -25.858  0.00  0.00    -0.280 NA
ATOM     12  C   UNL     1      34.767 -17.028 -24.752  0.00  0.00    +0.145 C 
ATOM     13  H   UNL     1      35.726 -16.782 -22.963  0.00  0.00    +0.144 HD
ATOM     14  H   UNL     1      35.572 -15.358 -23.888  0.00  0.00    +0.144 HD
ATOM     15  H   UNL     1      33.859 -17.105 -26.510  0.00  0.00    +0.189 HD
ENDBRANCH   9  12
ENDBRANCH   8   9
ENDBRANCH   7   8
ENDBRANCH   1   7
BRANCH   2  16
ATOM     16  C   UNL     1      33.185 -22.655 -18.156  0.00  0.00    +0.038 C 
BRANCH  16  17
ATOM     17  C   UNL     1      33.735 -23.305 -16.876  0.00  0.00    +0.070 C 
BRANCH  17  18
ATOM     18  S   UNL     1      32.477 -23.446 -15.569  0.00  0.00    -0.081 S 
BRANCH  18  21
ATOM     19  N   UNL     1      34.642 -23.233 -14.086  0.00  0.00    -0.338 N 
ATOM     20  N   UNL     1      33.051 -24.820 -13.358  0.00  0.00    -0.280 NA
ATOM     21  C   UNL     1      33.459 -23.911 -14.185  0.00  0.00    +0.145 C 
ATOM     22  H   UNL     1      34.878 -22.555 -14.758  0.00  0.00    +0.144 HD
ATOM     23  H   UNL     1      35.257 -23.424 -13.341  0.00  0.00    +0.144 HD
ATOM     24  H   UNL     1      32.182 -25.261 -13.502  0.00  0.00    +0.189 HD
ENDBRANCH  18  21
ENDBRANCH  17  18
ENDBRANCH  16  17
ENDBRANCH   2  16
TORSDOF 8
ENDMDL
MODEL 2
REMARK VINA RESULT:      -8.2      0.266      9.021
REMARK  Name = 1331
REMARK  8 active torsions:
REMARK  status: ('A' for Active; 'I' for Inactive)
REMARK    1  A    between atoms: C_1  and  C_7
REMARK    2  A    between atoms: C_2  and  C_16
REMARK    3  A    between atoms: C_7  and  C_8
REMARK    4  A    between atoms: C_8  and  S_9
REMARK    5  A    between atoms: S_9  and  C_12
REMARK    6  A    between atoms: C_16  and  C_17
REMARK    7  A    between atoms: C_17  and  S_18
REMARK    8  A    between atoms: S_18  and  C_21
REMARK                            x       y       z     vdW  Elec       q    Type
REMARK                         _______ _______ _______ _____ _____    ______ ____
ROOT
ATOM      1  C   UNL     1      34.075 -22.007 -18.804  0.00  0.00    -0.022 C 
ATOM      2  C   UNL     1      34.520 -20.362 -20.517  0.00  0.00    -0.022 C 
ATOM      3  C   UNL     1      33.613 -21.132 -19.787  0.00  0.00    -0.008 C 
ATOM      4  C   UNL     1      35.442 -22.113 -18.552  0.00  0.00    -0.004 C 
ATOM      5  C   UNL     1      35.887 -20.468 -20.263  0.00  0.00    -0.004 C 
ATOM      6  C   UNL     1      36.349 -21.344 -19.281  0.00  0.00    -0.001 C 
ENDROOT
BRANCH   1   7
ATOM      7  C   UNL     1      33.107 -22.830 -18.024  0.00  0.00    +0.038 C 
BRANCH   7   8
ATOM      8  C   UNL     1      33.632 -23.347 -16.674  0.00  0.00    +0.070 C 
BRANCH   8   9
ATOM      9  S   UNL     1      32.357 -23.326 -15.377  0.00  0.00    -0.081 S 
BRANCH   9  12
ATOM     10  N   UNL     1      34.423 -23.458 -13.749  0.00  0.00    -0.338 N 
ATOM     11  N   UNL     1      32.716 -25.046 -13.373  0.00  0.00    -0.280 NA
ATOM     12  C   UNL     1      33.221 -24.046 -14.022  0.00  0.00    +0.145 C 
ATOM     13  H   UNL     1      34.736 -22.699 -14.294  0.00  0.00    +0.144 HD
ATOM     14  H   UNL     1      34.978 -23.793 -13.007  0.00  0.00    +0.144 HD
ATOM     15  H   UNL     1      31.841 -25.413 -13.635  0.00  0.00    +0.189 HD
ENDBRANCH   9  12
ENDBRANCH   8   9
ENDBRANCH   7   8
ENDBRANCH   1   7
BRANCH   2  16
ATOM     16  C   UNL     1      34.026 -19.425 -21.567  0.00  0.00    +0.038 C 
BRANCH  16  17
ATOM     17  C   UNL     1      35.122 -18.789 -22.438  0.00  0.00    +0.070 C 
BRANCH  17  18
ATOM     18  S   UNL     1      34.727 -18.856 -24.213  0.00  0.00    -0.081 S 
BRANCH  18  21
ATOM     19  N   UNL     1      35.438 -16.370 -23.713  0.00  0.00    -0.338 N 
ATOM     20  N   UNL     1      34.425 -16.746 -25.813  0.00  0.00    -0.280 NA
ATOM     21  C   UNL     1      34.856 -17.160 -24.666  0.00  0.00    +0.145 C 
ATOM     22  H   UNL     1      35.740 -16.764 -22.864  0.00  0.00    +0.144 HD
ATOM     23  H   UNL     1      35.555 -15.407 -23.879  0.00  0.00    +0.144 HD
ATOM     24  H   UNL     1      34.017 -17.383 -26.444  0.00  0.00    +0.189 HD
ENDBRANCH  18  21
ENDBRANCH  17  18
ENDBRANCH  16  17
ENDBRANCH   2  16
TORSDOF 8
ENDMDL
MODEL 3
REMARK VINA RESULT:      -8.1      2.781      3.451
REMARK  Name = 1331
REMARK  8 active torsions:
REMARK  status: ('A' for Active; 'I' for Inactive)
REMARK    1  A    between atoms: C_1  and  C_7
REMARK    2  A    between atoms: C_2  and  C_16
REMARK    3  A    between atoms: C_7  and  C_8
REMARK    4  A    between atoms: C_8  and  S_9
REMARK    5  A    between atoms: S_9  and  C_12
REMARK    6  A    between atoms: C_16  and  C_17
REMARK    7  A    between atoms: C_17  and  S_18
REMARK    8  A    between atoms: S_18  and  C_21
REMARK                            x       y       z     vdW  Elec       q    Type
REMARK                         _______ _______ _______ _____ _____    ______ ____
ROOT
ATOM      1  C   UNL     1      35.323 -21.481 -19.275  0.00  0.00    -0.022 C 
ATOM      2  C   UNL     1      35.927 -22.441 -17.142  0.00  0.00    -0.022 C 
ATOM      3  C   UNL     1      36.266 -21.692 -18.270  0.00  0.00    -0.008 C 
ATOM      4  C   UNL     1      34.041 -22.017 -19.153  0.00  0.00    -0.004 C 
ATOM      5  C   UNL     1      34.645 -22.977 -17.021  0.00  0.00    -0.004 C 
ATOM      6  C   UNL     1      33.702 -22.765 -18.026  0.00  0.00    -0.001 C 
ENDROOT
BRANCH   1   7
ATOM      7  C   UNL     1      35.685 -20.682 -20.481  0.00  0.00    +0.038 C 
BRANCH   7   8
ATOM      8  C   UNL     1      34.566 -19.772 -21.017  0.00  0.00    +0.070 C 
BRANCH   8   9
ATOM      9  S   UNL     1      34.980 -19.037 -22.630  0.00  0.00    -0.081 S 
BRANCH   9  12
ATOM     10  N   UNL     1      35.151 -17.103 -20.851  0.00  0.00    -0.338 N 
ATOM     11  N   UNL     1      35.570 -16.479 -23.090  0.00  0.00    -0.280 NA
ATOM     12  C   UNL     1      35.270 -17.358 -22.187  0.00  0.00    +0.145 C 
ATOM     13  H   UNL     1      34.919 -17.831 -20.229  0.00  0.00    +0.144 HD
ATOM     14  H   UNL     1      35.298 -16.191 -20.508  0.00  0.00    +0.144 HD
ATOM     15  H   UNL     1      35.636 -16.746 -24.035  0.00  0.00    +0.189 HD
ENDBRANCH   9  12
ENDBRANCH   8   9
ENDBRANCH   7   8
ENDBRANCH   1   7
BRANCH   2  16
ATOM     16  C   UNL     1      36.936 -22.667 -16.067  0.00  0.00    +0.038 C 
BRANCH  16  17
ATOM     17  C   UNL     1      36.594 -23.796 -15.082  0.00  0.00    +0.070 C 
BRANCH  17  18
ATOM     18  S   UNL     1      37.997 -24.918 -14.794  0.00  0.00    -0.081 S 
BRANCH  18  21
ATOM     19  N   UNL     1      37.048 -27.072 -13.613  0.00  0.00    -0.338 N 
ATOM     20  N   UNL     1      36.821 -27.005 -15.962  0.00  0.00    -0.280 NA
ATOM     21  C   UNL     1      37.205 -26.490 -14.840  0.00  0.00    +0.145 C 
ATOM     22  H   UNL     1      37.369 -26.612 -12.804  0.00  0.00    +0.144 HD
ATOM     23  H   UNL     1      36.612 -27.951 -13.538  0.00  0.00    +0.144 HD
ATOM     24  H   UNL     1      36.972 -26.518 -16.805  0.00  0.00    +0.189 HD
ENDBRANCH  18  21
ENDBRANCH  17  18
ENDBRANCH  16  17
ENDBRANCH   2  16
TORSDOF 8
ENDMDL
MODEL 4
REMARK VINA RESULT:      -8.1      2.129      2.749
REMARK  Name = 1331
REMARK  8 active torsions:
REMARK  status: ('A' for Active; 'I' for Inactive)
REMARK    1  A    between atoms: C_1  and  C_7
REMARK    2  A    between atoms: C_2  and  C_16
REMARK    3  A    between atoms: C_7  and  C_8
REMARK    4  A    between atoms: C_8  and  S_9
REMARK    5  A    between atoms: S_9  and  C_12
REMARK    6  A    between atoms: C_16  and  C_17
REMARK    7  A    between atoms: C_17  and  S_18
REMARK    8  A    between atoms: S_18  and  C_21
REMARK                            x       y       z     vdW  Elec       q    Type
REMARK                         _______ _______ _______ _____ _____    ______ ____
ROOT
ATOM      1  C   UNL     1      35.110 -18.975 -21.480  0.00  0.00    -0.022 C 
ATOM      2  C   UNL     1      35.425 -20.789 -19.915  0.00  0.00    -0.022 C 
ATOM      3  C   UNL     1      35.958 -19.792 -20.733  0.00  0.00    -0.008 C 
ATOM      4  C   UNL     1      33.728 -19.156 -21.409  0.00  0.00    -0.004 C 
ATOM      5  C   UNL     1      34.044 -20.969 -19.846  0.00  0.00    -0.004 C 
ATOM      6  C   UNL     1      33.195 -20.152 -20.592  0.00  0.00    -0.001 C 
ENDROOT
BRANCH   1   7
ATOM      7  C   UNL     1      35.679 -17.909 -22.353  0.00  0.00    +0.038 C 
BRANCH   7   8
ATOM      8  C   UNL     1      34.640 -16.987 -23.014  0.00  0.00    +0.070 C 
BRANCH   8   9
ATOM      9  S   UNL     1      34.595 -17.171 -24.823  0.00  0.00    -0.081 S 
BRANCH   9  12
ATOM     10  N   UNL     1      33.440 -14.869 -24.274  0.00  0.00    -0.338 N 
ATOM     11  N   UNL     1      33.378 -15.535 -26.539  0.00  0.00    -0.280 NA
ATOM     12  C   UNL     1      33.714 -15.725 -25.303  0.00  0.00    +0.145 C 
ATOM     13  H   UNL     1      33.731 -15.089 -23.359  0.00  0.00    +0.144 HD
ATOM     14  H   UNL     1      32.951 -14.032 -24.447  0.00  0.00    +0.144 HD
ATOM     15  H   UNL     1      33.614 -16.203 -27.222  0.00  0.00    +0.189 HD
ENDBRANCH   9  12
ENDBRANCH   8   9
ENDBRANCH   7   8
ENDBRANCH   1   7
BRANCH   2  16
ATOM     16  C   UNL     1      36.333 -21.663 -19.117  0.00  0.00    +0.038 C 
BRANCH  16  17
ATOM     17  C   UNL     1      35.822 -22.020 -17.712  0.00  0.00    +0.070 C 
BRANCH  17  18
ATOM     18  S   UNL     1      37.171 -22.197 -16.504  0.00  0.00    -0.081 S 
BRANCH  18  21
ATOM     19  N   UNL     1      35.542 -22.931 -14.568  0.00  0.00    -0.338 N 
ATOM     20  N   UNL     1      36.927 -24.631 -15.445  0.00  0.00    -0.280 NA
ATOM     21  C   UNL     1      36.507 -23.408 -15.412  0.00  0.00    +0.145 C 
ATOM     22  H   UNL     1      35.279 -21.983 -14.607  0.00  0.00    +0.144 HD
ATOM     23  H   UNL     1      35.111 -23.536 -13.923  0.00  0.00    +0.144 HD
ATOM     24  H   UNL     1      37.628 -24.894 -16.086  0.00  0.00    +0.189 HD
ENDBRANCH  18  21
ENDBRANCH  17  18
ENDBRANCH  16  17
ENDBRANCH   2  16
TORSDOF 8
ENDMDL
MODEL 5
REMARK VINA RESULT:      -7.9      3.183      9.656
REMARK  Name = 1331
REMARK  8 active torsions:
REMARK  status: ('A' for Active; 'I' for Inactive)
REMARK    1  A    between atoms: C_1  and  C_7
REMARK    2  A    between atoms: C_2  and  C_16
REMARK    3  A    between atoms: C_7  and  C_8
REMARK    4  A    between atoms: C_8  and  S_9
REMARK    5  A    between atoms: S_9  and  C_12
REMARK    6  A    between atoms: C_16  and  C_17
REMARK    7  A    between atoms: C_17  and  S_18
REMARK    8  A    between atoms: S_18  and  C_21
REMARK                            x       y       z     vdW  Elec       q    Type
REMARK                         _______ _______ _______ _____ _____    ______ ____
ROOT
ATOM      1  C   UNL     1      35.251 -18.617 -22.297  0.00  0.00    -0.022 C 
ATOM      2  C   UNL     1      34.775 -16.547 -23.449  0.00  0.00    -0.022 C 
ATOM      3  C   UNL     1      35.160 -17.226 -22.292  0.00  0.00    -0.008 C 
ATOM      4  C   UNL     1      34.957 -19.331 -23.459  0.00  0.00    -0.004 C 
ATOM      5  C   UNL     1      34.482 -17.262 -24.611  0.00  0.00    -0.004 C 
ATOM      6  C   UNL     1      34.572 -18.653 -24.615  0.00  0.00    -0.001 C 
ENDROOT
BRANCH   1   7
ATOM      7  C   UNL     1      35.661 -19.342 -21.060  0.00  0.00    +0.038 C 
BRANCH   7   8
ATOM      8  C   UNL     1      34.579 -20.247 -20.447  0.00  0.00    +0.070 C 
BRANCH   8   9
ATOM      9  S   UNL     1      35.279 -21.716 -19.633  0.00  0.00    -0.081 S 
BRANCH   9  12
ATOM     10  N   UNL     1      32.712 -21.721 -19.041  0.00  0.00    -0.338 N 
ATOM     11  N   UNL     1      33.865 -23.740 -18.630  0.00  0.00    -0.280 NA
ATOM     12  C   UNL     1      33.827 -22.510 -19.033  0.00  0.00    +0.145 C 
ATOM     13  H   UNL     1      32.769 -20.792 -19.364  0.00  0.00    +0.144 HD
ATOM     14  H   UNL     1      31.852 -22.080 -18.724  0.00  0.00    +0.144 HD
ATOM     15  H   UNL     1      34.712 -24.241 -18.657  0.00  0.00    +0.189 HD
ENDBRANCH   9  12
ENDBRANCH   8   9
ENDBRANCH   7   8
ENDBRANCH   1   7
BRANCH   2  16
ATOM     16  C   UNL     1      34.679 -15.059 -23.444  0.00  0.00    +0.038 C 
BRANCH  16  17
ATOM     17  C   UNL     1      33.309 -14.495 -23.856  0.00  0.00    +0.070 C 
BRANCH  17  18
ATOM     18  S   UNL     1      33.450 -13.105 -25.021  0.00  0.00    -0.081 S 
BRANCH  18  21
ATOM     19  N   UNL     1      32.382 -15.007 -26.495  0.00  0.00    -0.338 N 
ATOM     20  N   UNL     1      33.756 -13.468 -27.644  0.00  0.00    -0.280 NA
ATOM     21  C   UNL     1      33.198 -13.913 -26.564  0.00  0.00    +0.145 C 
ATOM     22  H   UNL     1      31.995 -15.280 -25.632  0.00  0.00    +0.144 HD
ATOM     23  H   UNL     1      32.180 -15.522 -27.309  0.00  0.00    +0.144 HD
ATOM     24  H   UNL     1      34.333 -12.670 -27.607  0.00  0.00    +0.189 HD
ENDBRANCH  18  21
ENDBRANCH  17  18
ENDBRANCH  16  17
ENDBRANCH   2  16
TORSDOF 8
ENDMDL
MODEL 6
REMARK VINA RESULT:      -7.9      2.776      9.106
REMARK  Name = 1331
REMARK  8 active torsions:
REMARK  status: ('A' for Active; 'I' for Inactive)
REMARK    1  A    between atoms: C_1  and  C_7
REMARK    2  A    between atoms: C_2  and  C_16
REMARK    3  A    between atoms: C_7  and  C_8
REMARK    4  A    between atoms: C_8  and  S_9
REMARK    5  A    between atoms: S_9  and  C_12
REMARK    6  A    between atoms: C_16  and  C_17
REMARK    7  A    between atoms: C_17  and  S_18
REMARK    8  A    between atoms: S_18  and  C_21
REMARK                            x       y       z     vdW  Elec       q    Type
REMARK                         _______ _______ _______ _____ _____    ______ ____
ROOT
ATOM      1  C   UNL     1      35.668 -22.444 -17.220  0.00  0.00    -0.022 C 
ATOM      2  C   UNL     1      35.217 -21.489 -19.393  0.00  0.00    -0.022 C 
ATOM      3  C   UNL     1      36.095 -21.721 -18.333  0.00  0.00    -0.008 C 
ATOM      4  C   UNL     1      34.364 -22.936 -17.167  0.00  0.00    -0.004 C 
ATOM      5  C   UNL     1      33.914 -21.982 -19.339  0.00  0.00    -0.004 C 
ATOM      6  C   UNL     1      33.487 -22.706 -18.226  0.00  0.00    -0.001 C 
ENDROOT
BRANCH   1   7
ATOM      7  C   UNL     1      36.605 -22.691 -16.087  0.00  0.00    +0.038 C 
BRANCH   7   8
ATOM      8  C   UNL     1      36.272 -23.921 -15.224  0.00  0.00    +0.070 C 
BRANCH   8   9
ATOM      9  S   UNL     1      37.754 -24.870 -14.765  0.00  0.00    -0.081 S 
BRANCH   9  12
ATOM     10  N   UNL     1      37.004 -27.121 -13.622  0.00  0.00    -0.338 N 
ATOM     11  N   UNL     1      36.884 -27.076 -15.980  0.00  0.00    -0.280 NA
ATOM     12  C   UNL     1      37.151 -26.522 -14.841  0.00  0.00    +0.145 C 
ATOM     13  H   UNL     1      37.232 -26.628 -12.801  0.00  0.00    +0.144 HD
ATOM     14  H   UNL     1      36.671 -28.046 -13.565  0.00  0.00    +0.144 HD
ATOM     15  H   UNL     1      37.018 -26.574 -16.816  0.00  0.00    +0.189 HD
ENDBRANCH   9  12
ENDBRANCH   8   9
ENDBRANCH   7   8
ENDBRANCH   1   7
BRANCH   2  16
ATOM     16  C   UNL     1      35.674 -20.716 -20.583  0.00  0.00    +0.038 C 
BRANCH  16  17
ATOM     17  C   UNL     1      34.828 -19.476 -20.917  0.00  0.00    +0.070 C 
BRANCH  17  18
ATOM     18  S   UNL     1      35.812 -18.142 -21.667  0.00  0.00    -0.081 S 
BRANCH  18  21
ATOM     19  N   UNL     1      35.321 -17.019 -23.998  0.00  0.00    -0.338 N 
ATOM     20  N   UNL     1      34.912 -19.341 -23.871  0.00  0.00    -0.280 NA
ATOM     21  C   UNL     1      35.286 -18.220 -23.345  0.00  0.00    +0.145 C 
ATOM     22  H   UNL     1      35.620 -16.209 -23.524  0.00  0.00    +0.144 HD
ATOM     23  H   UNL     1      35.047 -16.964 -24.942  0.00  0.00    +0.144 HD
ATOM     24  H   UNL     1      34.917 -20.164 -23.330  0.00  0.00    +0.189 HD
ENDBRANCH  18  21
ENDBRANCH  17  18
ENDBRANCH  16  17
ENDBRANCH   2  16
TORSDOF 8
ENDMDL
MODEL 7
REMARK VINA RESULT:      -7.8      3.123      5.052
REMARK  Name = 1331
REMARK  8 active torsions:
REMARK  status: ('A' for Active; 'I' for Inactive)
REMARK    1  A    between atoms: C_1  and  C_7
REMARK    2  A    between atoms: C_2  and  C_16
REMARK    3  A    between atoms: C_7  and  C_8
REMARK    4  A    between atoms: C_8  and  S_9
REMARK    5  A    between atoms: S_9  and  C_12
REMARK    6  A    between atoms: C_16  and  C_17
REMARK    7  A    between atoms: C_17  and  S_18
REMARK    8  A    between atoms: S_18  and  C_21
REMARK                            x       y       z     vdW  Elec       q    Type
REMARK                         _______ _______ _______ _____ _____    ______ ____
ROOT
ATOM      1  C   UNL     1      34.721 -16.288 -23.298  0.00  0.00    -0.022 C 
ATOM      2  C   UNL     1      35.237 -18.383 -22.209  0.00  0.00    -0.022 C 
ATOM      3  C   UNL     1      35.077 -16.997 -22.151  0.00  0.00    -0.008 C 
ATOM      4  C   UNL     1      34.525 -16.964 -24.502  0.00  0.00    -0.004 C 
ATOM      5  C   UNL     1      35.041 -19.057 -23.414  0.00  0.00    -0.004 C 
ATOM      6  C   UNL     1      34.684 -18.348 -24.560  0.00  0.00    -0.001 C 
ENDROOT
BRANCH   1   7
ATOM      7  C   UNL     1      34.550 -14.808 -23.236  0.00  0.00    +0.038 C 
BRANCH   7   8
ATOM      8  C   UNL     1      33.222 -14.283 -23.807  0.00  0.00    +0.070 C 
BRANCH   8   9
ATOM      9  S   UNL     1      33.466 -12.963 -25.035  0.00  0.00    -0.081 S 
BRANCH   9  12
ATOM     10  N   UNL     1      32.323 -14.878 -26.434  0.00  0.00    -0.338 N 
ATOM     11  N   UNL     1      33.782 -13.461 -27.634  0.00  0.00    -0.280 NA
ATOM     12  C   UNL     1      33.190 -13.829 -26.542  0.00  0.00    +0.145 C 
ATOM     13  H   UNL     1      31.914 -15.092 -25.564  0.00  0.00    +0.144 HD
ATOM     14  H   UNL     1      32.106 -15.422 -27.227  0.00  0.00    +0.144 HD
ATOM     15  H   UNL     1      34.395 -12.691 -27.626  0.00  0.00    +0.189 HD
ENDBRANCH   9  12
ENDBRANCH   8   9
ENDBRANCH   7   8
ENDBRANCH   1   7
BRANCH   2  16
ATOM     16  C   UNL     1      35.618 -19.141 -20.982  0.00  0.00    +0.038 C 
BRANCH  16  17
ATOM     17  C   UNL     1      34.642 -20.258 -20.579  0.00  0.00    +0.070 C 
BRANCH  17  18
ATOM     18  S   UNL     1      35.455 -21.588 -19.641  0.00  0.00    -0.081 S 
BRANCH  18  21
ATOM     19  N   UNL     1      32.869 -21.967 -19.322  0.00  0.00    -0.338 N 
ATOM     20  N   UNL     1      34.269 -23.117 -17.807  0.00  0.00    -0.280 NA
ATOM     21  C   UNL     1      34.086 -22.319 -18.810  0.00  0.00    +0.145 C 
ATOM     22  H   UNL     1      32.816 -21.353 -20.090  0.00  0.00    +0.144 HD
ATOM     23  H   UNL     1      32.045 -22.329 -18.924  0.00  0.00    +0.144 HD
ATOM     24  H   UNL     1      35.183 -23.319 -17.500  0.00  0.00    +0.189 HD
ENDBRANCH  18  21
ENDBRANCH  17  18
ENDBRANCH  16  17
ENDBRANCH   2  16
TORSDOF 8
ENDMDL
MODEL 8
REMARK VINA RESULT:      -7.7      6.047      7.745
REMARK  Name = 1331
REMARK  8 active torsions:
REMARK  status: ('A' for Active; 'I' for Inactive)
REMARK    1  A    between atoms: C_1  and  C_7
REMARK    2  A    between atoms: C_2  and  C_16
REMARK    3  A    between atoms: C_7  and  C_8
REMARK    4  A    between atoms: C_8  and  S_9
REMARK    5  A    between atoms: S_9  and  C_12
REMARK    6  A    between atoms: C_16  and  C_17
REMARK    7  A    between atoms: C_17  and  S_18
REMARK    8  A    between atoms: S_18  and  C_21
REMARK                            x       y       z     vdW  Elec       q    Type
REMARK                         _______ _______ _______ _____ _____    ______ ____
ROOT
ATOM      1  C   UNL     1      36.424 -22.281 -16.870  0.00  0.00    -0.022 C 
ATOM      2  C   UNL     1      34.175 -22.660 -17.668  0.00  0.00    -0.022 C 
ATOM      3  C   UNL     1      35.132 -22.760 -16.657  0.00  0.00    -0.008 C 
ATOM      4  C   UNL     1      36.760 -21.702 -18.094  0.00  0.00    -0.004 C 
ATOM      5  C   UNL     1      34.512 -22.081 -18.892  0.00  0.00    -0.004 C 
ATOM      6  C   UNL     1      35.804 -21.602 -19.105  0.00  0.00    -0.001 C 
ENDROOT
BRANCH   1   7
ATOM      7  C   UNL     1      37.446 -22.388 -15.790  0.00  0.00    +0.038 C 
BRANCH   7   8
ATOM      8  C   UNL     1      37.594 -23.789 -15.172  0.00  0.00    +0.070 C 
BRANCH   8   9
ATOM      9  S   UNL     1      37.142 -23.822 -13.410  0.00  0.00    -0.081 S 
BRANCH   9  12
ATOM     10  N   UNL     1      36.402 -26.172 -14.339  0.00  0.00    -0.338 N 
ATOM     11  N   UNL     1      36.747 -26.054 -12.006  0.00  0.00    -0.280 NA
ATOM     12  C   UNL     1      36.728 -25.519 -13.185  0.00  0.00    +0.145 C 
ATOM     13  H   UNL     1      36.411 -25.691 -15.198  0.00  0.00    +0.144 HD
ATOM     14  H   UNL     1      36.156 -27.126 -14.313  0.00  0.00    +0.144 HD
ATOM     15  H   UNL     1      36.994 -25.511 -11.223  0.00  0.00    +0.189 HD
ENDBRANCH   9  12
ENDBRANCH   8   9
ENDBRANCH   7   8
ENDBRANCH   1   7
BRANCH   2  16
ATOM     16  C   UNL     1      32.793 -23.172 -17.441  0.00  0.00    +0.038 C 
BRANCH  16  17
ATOM     17  C   UNL     1      32.470 -23.547 -15.985  0.00  0.00    +0.070 C 
BRANCH  17  18
ATOM     18  S   UNL     1      30.688 -23.783 -15.705  0.00  0.00    -0.081 S 
BRANCH  18  21
ATOM     19  N   UNL     1      29.474 -25.643 -14.290  0.00  0.00    -0.338 N 
ATOM     20  N   UNL     1      31.774 -25.350 -13.842  0.00  0.00    -0.280 NA
ATOM     21  C   UNL     1      30.690 -25.047 -14.479  0.00  0.00    +0.145 C 
ATOM     22  H   UNL     1      28.696 -25.353 -14.817  0.00  0.00    +0.144 HD
ATOM     23  H   UNL     1      29.379 -26.363 -13.626  0.00  0.00    +0.144 HD
ATOM     24  H   UNL     1      32.611 -24.870 -14.039  0.00  0.00    +0.189 HD
ENDBRANCH  18  21
ENDBRANCH  17  18
ENDBRANCH  16  17
ENDBRANCH   2  16
TORSDOF 8
ENDMDL
MODEL 9
REMARK VINA RESULT:      -7.6      3.747      5.667
REMARK  Name = 1331
REMARK  8 active torsions:
REMARK  status: ('A' for Active; 'I' for Inactive)
REMARK    1  A    between atoms: C_1  and  C_7
REMARK    2  A    between atoms: C_2  and  C_16
REMARK    3  A    between atoms: C_7  and  C_8
REMARK    4  A    between atoms: C_8  and  S_9
REMARK    5  A    between atoms: S_9  and  C_12
REMARK    6  A    between atoms: C_16  and  C_17
REMARK    7  A    between atoms: C_17  and  S_18
REMARK    8  A    between atoms: S_18  and  C_21
REMARK                            x       y       z     vdW  Elec       q    Type
REMARK                         _______ _______ _______ _____ _____    ______ ____
ROOT
ATOM      1  C   UNL     1      34.277 -16.312 -23.904  0.00  0.00    -0.022 C 
ATOM      2  C   UNL     1      35.007 -18.148 -22.514  0.00  0.00    -0.022 C 
ATOM      3  C   UNL     1      34.642 -16.808 -22.654  0.00  0.00    -0.008 C 
ATOM      4  C   UNL     1      34.277 -17.155 -25.016  0.00  0.00    -0.004 C 
ATOM      5  C   UNL     1      35.007 -18.990 -23.626  0.00  0.00    -0.004 C 
ATOM      6  C   UNL     1      34.641 -18.493 -24.877  0.00  0.00    -0.001 C 
ENDROOT
BRANCH   1   7
ATOM      7  C   UNL     1      33.887 -14.880 -24.054  0.00  0.00    +0.038 C 
BRANCH   7   8
ATOM      8  C   UNL     1      34.051 -14.026 -22.785  0.00  0.00    +0.070 C 
BRANCH   8   9
ATOM      9  S   UNL     1      32.485 -13.807 -21.886  0.00  0.00    -0.081 S 
BRANCH   9  12
ATOM     10  N   UNL     1      30.865 -11.732 -21.805  0.00  0.00    -0.338 N 
ATOM     11  N   UNL     1      32.809 -11.467 -23.119  0.00  0.00    -0.280 NA
ATOM     12  C   UNL     1      32.045 -12.164 -22.341  0.00  0.00    +0.145 C 
ATOM     13  H   UNL     1      30.342 -12.328 -21.221  0.00  0.00    +0.144 HD
ATOM     14  H   UNL     1      30.538 -10.824 -22.002  0.00  0.00    +0.144 HD
ATOM     15  H   UNL     1      33.646 -11.854 -23.465  0.00  0.00    +0.189 HD
ENDBRANCH   9  12
ENDBRANCH   8   9
ENDBRANCH   7   8
ENDBRANCH   1   7
BRANCH   2  16
ATOM     16  C   UNL     1      35.398 -18.678 -21.176  0.00  0.00    +0.038 C 
BRANCH  16  17
ATOM     17  C   UNL     1      35.131 -20.178 -20.968  0.00  0.00    +0.070 C 
BRANCH  17  18
ATOM     18  S   UNL     1      33.488 -20.501 -20.255  0.00  0.00    -0.081 S 
BRANCH  18  21
ATOM     19  N   UNL     1      32.730 -22.348 -18.539  0.00  0.00    -0.338 N 
ATOM     20  N   UNL     1      34.996 -22.428 -19.199  0.00  0.00    -0.280 NA
ATOM     21  C   UNL     1      33.815 -21.901 -19.240  0.00  0.00    +0.145 C 
ATOM     22  H   UNL     1      31.864 -21.890 -18.627  0.00  0.00    +0.144 HD
ATOM     23  H   UNL     1      32.816 -23.129 -17.946  0.00  0.00    +0.144 HD
ATOM     24  H   UNL     1      35.726 -22.044 -19.737  0.00  0.00    +0.189 HD
ENDBRANCH  18  21
ENDBRANCH  17  18
ENDBRANCH  16  17
ENDBRANCH   2  16
TORSDOF 8
ENDMDL
