MODEL 1
REMARK VINA RESULT:     -10.4      0.000      0.000
REMARK  Name = 25011731
REMARK  3 active torsions:
REMARK  status: ('A' for Active; 'I' for Inactive)
REMARK    1  A    between atoms: N_1  and  C_24
REMARK    2  A    between atoms: N_2  and  C_15
REMARK    3  A    between atoms: C_21  and  N_28
REMARK                            x       y       z     vdW  Elec       q    Type
REMARK                         _______ _______ _______ _____ _____    ______ ____
ROOT
ATOM      1  N   UNL     1      32.457 -21.807 -18.468  0.00  0.00    -0.247 N 
ATOM      2  N   UNL     1      34.100 -24.806 -15.208  0.00  0.00    -0.284 N 
ATOM      3  N   UNL     1      33.293 -23.293 -16.860  0.00  0.00    -0.322 NA
ATOM      4  N   UNL     1      30.955 -22.713 -16.915  0.00  0.00    -0.170 NA
ATOM      5  C   UNL     1      32.224 -22.646 -17.360  0.00  0.00    +0.150 C 
ATOM      6  C   UNL     1      33.034 -24.086 -15.800  0.00  0.00    +0.198 C 
ATOM      7  C   UNL     1      31.779 -24.243 -15.247  0.00  0.00    +0.070 C 
ATOM      8  C   UNL     1      30.767 -23.525 -15.853  0.00  0.00    +0.116 C 
ATOM      9  H   UNL     1      31.647 -21.355 -18.799  0.00  0.00    +0.165 HD
ATOM     10  H   UNL     1      33.825 -25.659 -14.800  0.00  0.00    +0.155 HD
ENDROOT
BRANCH   2  15
ATOM     11 CL   UNL     1      34.911 -21.870 -15.018  0.00  0.00    -0.081 Cl
ATOM     12  O   UNL     1      36.089 -26.902 -15.144  0.00  0.00    -0.433 OA
ATOM     13  O   UNL     1      38.457 -26.502 -14.946  0.00  0.00    -0.435 OA
ATOM     14  C   UNL     1      36.385 -25.575 -15.065  0.00  0.00    +0.191 C 
ATOM     15  C   UNL     1      35.474 -24.539 -15.090  0.00  0.00    +0.098 C 
ATOM     16  C   UNL     1      37.738 -25.347 -14.951  0.00  0.00    +0.178 C 
ATOM     17  C   UNL     1      35.971 -23.237 -14.995  0.00  0.00    +0.074 C 
ATOM     18  C   UNL     1      38.254 -24.071 -14.856  0.00  0.00    +0.041 C 
ATOM     19  C   UNL     1      37.408 -27.482 -15.070  0.00  0.00    +0.429 C 
ATOM     20  C   UNL     1      37.352 -23.004 -14.878  0.00  0.00    +0.016 C 
ENDBRANCH   2  15
BRANCH   1  24
ATOM     21  C   UNL     1      34.767 -20.116 -20.820  0.00  0.00    +0.049 C 
ATOM     22  C   UNL     1      33.612 -20.430 -20.102  0.00  0.00    +0.030 C 
ATOM     23  C   UNL     1      35.930 -20.859 -20.629  0.00  0.00    +0.015 C 
ATOM     24  C   UNL     1      33.623 -21.489 -19.195  0.00  0.00    +0.059 C 
ATOM     25  C   UNL     1      35.941 -21.918 -19.721  0.00  0.00    +0.003 C 
ATOM     26  C   UNL     1      34.788 -22.233 -19.004  0.00  0.00    +0.015 C 
BRANCH  21  28
ATOM     27  O   UNL     1      35.013 -16.958 -23.586  0.00  0.00    -0.350 OA
ATOM     28  N   UNL     1      34.757 -19.054 -21.731  0.00  0.00    -0.303 N 
ATOM     29  C   UNL     1      35.072 -17.696 -21.275  0.00  0.00    +0.123 C 
ATOM     30  C   UNL     1      35.097 -19.339 -23.132  0.00  0.00    +0.123 C 
ATOM     31  C   UNL     1      34.529 -16.678 -22.273  0.00  0.00    +0.164 C 
ATOM     32  C   UNL     1      34.552 -18.234 -24.029  0.00  0.00    +0.164 C 
ENDBRANCH  21  28
ENDBRANCH   1  24
TORSDOF 3
ENDMDL
MODEL 2
REMARK VINA RESULT:     -10.2      2.155      2.649
REMARK  Name = 25011731
REMARK  3 active torsions:
REMARK  status: ('A' for Active; 'I' for Inactive)
REMARK    1  A    between atoms: N_1  and  C_24
REMARK    2  A    between atoms: N_2  and  C_15
REMARK    3  A    between atoms: C_21  and  N_28
REMARK                            x       y       z     vdW  Elec       q    Type
REMARK                         _______ _______ _______ _____ _____    ______ ____
ROOT
ATOM      1  N   UNL     1      33.241 -22.442 -17.262  0.00  0.00    -0.247 N 
ATOM      2  N   UNL     1      34.876 -25.445 -14.002  0.00  0.00    -0.284 N 
ATOM      3  N   UNL     1      34.073 -23.929 -15.654  0.00  0.00    -0.322 NA
ATOM      4  N   UNL     1      31.719 -23.432 -15.781  0.00  0.00    -0.170 NA
ATOM      5  C   UNL     1      32.999 -23.310 -16.179  0.00  0.00    +0.150 C 
ATOM      6  C   UNL     1      33.806 -24.752 -14.618  0.00  0.00    +0.198 C 
ATOM      7  C   UNL     1      32.538 -24.964 -14.114  0.00  0.00    +0.070 C 
ATOM      8  C   UNL     1      31.523 -24.270 -14.741  0.00  0.00    +0.116 C 
ATOM      9  H   UNL     1      32.427 -22.013 -17.613  0.00  0.00    +0.165 HD
ATOM     10  H   UNL     1      34.618 -26.316 -13.621  0.00  0.00    +0.155 HD
ENDROOT
BRANCH   2  15
ATOM     11 CL   UNL     1      36.848 -26.851 -15.858  0.00  0.00    -0.081 Cl
ATOM     12  O   UNL     1      35.797 -23.571 -12.005  0.00  0.00    -0.433 OA
ATOM     13  O   UNL     1      38.113 -22.999 -11.664  0.00  0.00    -0.435 OA
ATOM     14  C   UNL     1      36.624 -24.231 -12.861  0.00  0.00    +0.191 C 
ATOM     15  C   UNL     1      36.235 -25.132 -13.830  0.00  0.00    +0.098 C 
ATOM     16  C   UNL     1      37.947 -23.904 -12.666  0.00  0.00    +0.178 C 
ATOM     17  C   UNL     1      37.233 -25.710 -14.618  0.00  0.00    +0.074 C 
ATOM     18  C   UNL     1      38.952 -24.460 -13.430  0.00  0.00    +0.041 C 
ATOM     19  C   UNL     1      36.748 -22.794 -11.248  0.00  0.00    +0.429 C 
ATOM     20  C   UNL     1      38.584 -25.376 -14.419  0.00  0.00    +0.016 C 
ENDBRANCH   2  15
BRANCH   1  24
ATOM     21  C   UNL     1      35.512 -20.882 -19.739  0.00  0.00    +0.049 C 
ATOM     22  C   UNL     1      34.346 -21.252 -19.069  0.00  0.00    +0.030 C 
ATOM     23  C   UNL     1      36.751 -21.328 -19.280  0.00  0.00    +0.015 C 
ATOM     24  C   UNL     1      34.419 -22.068 -17.941  0.00  0.00    +0.059 C 
ATOM     25  C   UNL     1      36.825 -22.145 -18.151  0.00  0.00    +0.003 C 
ATOM     26  C   UNL     1      35.659 -22.514 -17.482  0.00  0.00    +0.015 C 
BRANCH  21  28
ATOM     27  O   UNL     1      35.232 -18.208 -22.972  0.00  0.00    -0.350 OA
ATOM     28  N   UNL     1      35.440 -20.064 -20.871  0.00  0.00    -0.303 N 
ATOM     29  C   UNL     1      34.142 -19.804 -21.505  0.00  0.00    +0.123 C 
ATOM     30  C   UNL     1      36.433 -18.990 -21.014  0.00  0.00    +0.123 C 
ATOM     31  C   UNL     1      34.354 -19.333 -22.940  0.00  0.00    +0.164 C 
ATOM     32  C   UNL     1      36.522 -18.564 -22.475  0.00  0.00    +0.164 C 
ENDBRANCH  21  28
ENDBRANCH   1  24
TORSDOF 3
ENDMDL
MODEL 3
REMARK VINA RESULT:     -10.0      9.769     14.438
REMARK  Name = 25011731
REMARK  3 active torsions:
REMARK  status: ('A' for Active; 'I' for Inactive)
REMARK    1  A    between atoms: N_1  and  C_24
REMARK    2  A    between atoms: N_2  and  C_15
REMARK    3  A    between atoms: C_21  and  N_28
REMARK                            x       y       z     vdW  Elec       q    Type
REMARK                         _______ _______ _______ _____ _____    ______ ____
ROOT
ATOM      1  N   UNL     1      32.661  -7.681 -21.023  0.00  0.00    -0.247 N 
ATOM      2  N   UNL     1      31.654 -12.267 -21.543  0.00  0.00    -0.284 N 
ATOM      3  N   UNL     1      32.169  -9.955 -21.303  0.00  0.00    -0.322 NA
ATOM      4  N   UNL     1      31.714  -8.836 -19.217  0.00  0.00    -0.170 NA
ATOM      5  C   UNL     1      32.156  -8.883 -20.489  0.00  0.00    +0.150 C 
ATOM      6  C   UNL     1      31.680 -11.089 -20.759  0.00  0.00    +0.198 C 
ATOM      7  C   UNL     1      31.196 -11.174 -19.469  0.00  0.00    +0.070 C 
ATOM      8  C   UNL     1      31.239 -10.005 -18.737  0.00  0.00    +0.116 C 
ATOM      9  H   UNL     1      32.632  -6.925 -20.392  0.00  0.00    +0.165 HD
ATOM     10  H   UNL     1      30.919 -12.881 -21.314  0.00  0.00    +0.155 HD
ENDROOT
BRANCH   2  15
ATOM     11 CL   UNL     1      32.141 -10.340 -23.859  0.00  0.00    -0.081 Cl
ATOM     12  O   UNL     1      32.838 -14.904 -21.533  0.00  0.00    -0.433 OA
ATOM     13  O   UNL     1      34.249 -15.751 -23.294  0.00  0.00    -0.435 OA
ATOM     14  C   UNL     1      33.015 -13.999 -22.534  0.00  0.00    +0.191 C 
ATOM     15  C   UNL     1      32.474 -12.731 -22.586  0.00  0.00    +0.098 C 
ATOM     16  C   UNL     1      33.821 -14.483 -23.540  0.00  0.00    +0.178 C 
ATOM     17  C   UNL     1      32.772 -11.943 -23.700  0.00  0.00    +0.074 C 
ATOM     18  C   UNL     1      34.130 -13.726 -24.651  0.00  0.00    +0.041 C 
ATOM     19  C   UNL     1      33.621 -16.012 -22.022  0.00  0.00    +0.429 C 
ATOM     20  C   UNL     1      33.595 -12.437 -24.727  0.00  0.00    +0.016 C 
ENDBRANCH   2  15
BRANCH   1  24
ATOM     21  C   UNL     1      33.144  -6.015 -24.298  0.00  0.00    +0.049 C 
ATOM     22  C   UNL     1      32.611  -6.343 -23.050  0.00  0.00    +0.030 C 
ATOM     23  C   UNL     1      34.265  -6.693 -24.776  0.00  0.00    +0.015 C 
ATOM     24  C   UNL     1      33.199  -7.349 -22.284  0.00  0.00    +0.059 C 
ATOM     25  C   UNL     1      34.854  -7.698 -24.009  0.00  0.00    +0.003 C 
ATOM     26  C   UNL     1      34.321  -8.026 -22.763  0.00  0.00    +0.015 C 
BRANCH  21  28
ATOM     27  O   UNL     1      31.193  -3.175 -26.707  0.00  0.00    -0.350 OA
ATOM     28  N   UNL     1      32.555  -5.007 -25.067  0.00  0.00    -0.303 N 
ATOM     29  C   UNL     1      32.952  -4.829 -26.468  0.00  0.00    +0.123 C 
ATOM     30  C   UNL     1      31.175  -4.612 -24.752  0.00  0.00    +0.123 C 
ATOM     31  C   UNL     1      32.579  -3.426 -26.935  0.00  0.00    +0.164 C 
ATOM     32  C   UNL     1      30.898  -3.220 -25.310  0.00  0.00    +0.164 C 
ENDBRANCH  21  28
ENDBRANCH   1  24
TORSDOF 3
ENDMDL
MODEL 4
REMARK VINA RESULT:      -9.9      1.826      2.149
REMARK  Name = 25011731
REMARK  3 active torsions:
REMARK  status: ('A' for Active; 'I' for Inactive)
REMARK    1  A    between atoms: N_1  and  C_24
REMARK    2  A    between atoms: N_2  and  C_15
REMARK    3  A    between atoms: C_21  and  N_28
REMARK                            x       y       z     vdW  Elec       q    Type
REMARK                         _______ _______ _______ _____ _____    ______ ____
ROOT
ATOM      1  N   UNL     1      32.938 -22.754 -17.434  0.00  0.00    -0.247 N 
ATOM      2  N   UNL     1      34.256 -24.993 -13.488  0.00  0.00    -0.284 N 
ATOM      3  N   UNL     1      33.613 -23.859 -15.481  0.00  0.00    -0.322 NA
ATOM      4  N   UNL     1      31.292 -23.787 -16.124  0.00  0.00    -0.170 NA
ATOM      5  C   UNL     1      32.598 -23.503 -16.290  0.00  0.00    +0.150 C 
ATOM      6  C   UNL     1      33.253 -24.575 -14.396  0.00  0.00    +0.198 C 
ATOM      7  C   UNL     1      31.950 -24.931 -14.110  0.00  0.00    +0.070 C 
ATOM      8  C   UNL     1      31.002 -24.505 -15.019  0.00  0.00    +0.116 C 
ATOM      9  H   UNL     1      32.164 -22.517 -17.995  0.00  0.00    +0.165 HD
ATOM     10  H   UNL     1      34.048 -25.838 -13.027  0.00  0.00    +0.155 HD
ENDROOT
BRANCH   2  15
ATOM     11 CL   UNL     1      34.298 -23.348 -10.918  0.00  0.00    -0.081 Cl
ATOM     12  O   UNL     1      36.658 -25.362 -15.052  0.00  0.00    -0.433 OA
ATOM     13  O   UNL     1      38.801 -24.428 -14.467  0.00  0.00    -0.435 OA
ATOM     14  C   UNL     1      36.610 -24.640 -13.899  0.00  0.00    +0.191 C 
ATOM     15  C   UNL     1      35.492 -24.436 -13.118  0.00  0.00    +0.098 C 
ATOM     16  C   UNL     1      37.834 -24.107 -13.564  0.00  0.00    +0.178 C 
ATOM     17  C   UNL     1      35.639 -23.663 -11.963  0.00  0.00    +0.074 C 
ATOM     18  C   UNL     1      38.007 -23.341 -12.430  0.00  0.00    +0.041 C 
ATOM     19  C   UNL     1      38.049 -25.221 -15.407  0.00  0.00    +0.429 C 
ATOM     20  C   UNL     1      36.889 -23.119 -11.621  0.00  0.00    +0.016 C 
ENDBRANCH   2  15
BRANCH   1  24
ATOM     21  C   UNL     1      35.411 -20.977 -19.544  0.00  0.00    +0.049 C 
ATOM     22  C   UNL     1      34.193 -21.448 -19.052  0.00  0.00    +0.030 C 
ATOM     23  C   UNL     1      36.602 -21.333 -18.913  0.00  0.00    +0.015 C 
ATOM     24  C   UNL     1      34.168 -22.277 -17.931  0.00  0.00    +0.059 C 
ATOM     25  C   UNL     1      36.577 -22.162 -17.791  0.00  0.00    +0.003 C 
ATOM     26  C   UNL     1      35.360 -22.633 -17.300  0.00  0.00    +0.015 C 
BRANCH  21  28
ATOM     27  O   UNL     1      35.435 -18.264 -22.756  0.00  0.00    -0.350 OA
ATOM     28  N   UNL     1      35.438 -20.146 -20.669  0.00  0.00    -0.303 N 
ATOM     29  C   UNL     1      34.187 -19.801 -21.354  0.00  0.00    +0.123 C 
ATOM     30  C   UNL     1      36.500 -19.134 -20.758  0.00  0.00    +0.123 C 
ATOM     31  C   UNL     1      34.489 -19.333 -22.773  0.00  0.00    +0.164 C 
ATOM     32  C   UNL     1      36.678 -18.703 -22.209  0.00  0.00    +0.164 C 
ENDBRANCH  21  28
ENDBRANCH   1  24
TORSDOF 3
ENDMDL
MODEL 5
REMARK VINA RESULT:      -9.7      3.853      6.488
REMARK  Name = 25011731
REMARK  3 active torsions:
REMARK  status: ('A' for Active; 'I' for Inactive)
REMARK    1  A    between atoms: N_1  and  C_24
REMARK    2  A    between atoms: N_2  and  C_15
REMARK    3  A    between atoms: C_21  and  N_28
REMARK                            x       y       z     vdW  Elec       q    Type
REMARK                         _______ _______ _______ _____ _____    ______ ____
ROOT
ATOM      1  N   UNL     1      33.565 -22.582 -17.752  0.00  0.00    -0.247 N 
ATOM      2  N   UNL     1      37.598 -22.950 -15.319  0.00  0.00    -0.284 N 
ATOM      3  N   UNL     1      35.554 -22.774 -16.527  0.00  0.00    -0.322 NA
ATOM      4  N   UNL     1      35.543 -21.785 -18.725  0.00  0.00    -0.170 NA
ATOM      5  C   UNL     1      34.955 -22.370 -17.663  0.00  0.00    +0.150 C 
ATOM      6  C   UNL     1      36.885 -22.556 -16.477  0.00  0.00    +0.198 C 
ATOM      7  C   UNL     1      37.605 -21.966 -17.496  0.00  0.00    +0.070 C 
ATOM      8  C   UNL     1      36.874 -21.598 -18.607  0.00  0.00    +0.116 C 
ATOM      9  H   UNL     1      33.172 -22.271 -18.599  0.00  0.00    +0.165 HD
ATOM     10  H   UNL     1      38.387 -22.391 -15.129  0.00  0.00    +0.155 HD
ENDROOT
BRANCH   2  15
ATOM     11 CL   UNL     1      39.735 -25.125 -15.213  0.00  0.00    -0.081 Cl
ATOM     12  O   UNL     1      35.296 -23.046 -13.574  0.00  0.00    -0.433 OA
ATOM     13  O   UNL     1      34.903 -24.792 -11.961  0.00  0.00    -0.435 OA
ATOM     14  C   UNL     1      36.282 -23.983 -13.577  0.00  0.00    +0.191 C 
ATOM     15  C   UNL     1      37.399 -23.983 -14.387  0.00  0.00    +0.098 C 
ATOM     16  C   UNL     1      36.058 -24.981 -12.656  0.00  0.00    +0.178 C 
ATOM     17  C   UNL     1      38.306 -25.035 -14.244  0.00  0.00    +0.074 C 
ATOM     18  C   UNL     1      36.937 -26.032 -12.494  0.00  0.00    +0.041 C 
ATOM     19  C   UNL     1      34.425 -23.566 -12.549  0.00  0.00    +0.429 C 
ATOM     20  C   UNL     1      38.077 -26.054 -13.303  0.00  0.00    +0.016 C 
ENDBRANCH   2  15
BRANCH   1  24
ATOM     21  C   UNL     1      30.362 -23.339 -16.049  0.00  0.00    +0.049 C 
ATOM     22  C   UNL     1      31.288 -22.774 -16.928  0.00  0.00    +0.030 C 
ATOM     23  C   UNL     1      30.778 -24.282 -15.110  0.00  0.00    +0.015 C 
ATOM     24  C   UNL     1      32.629 -23.152 -16.865  0.00  0.00    +0.059 C 
ATOM     25  C   UNL     1      32.119 -24.660 -15.048  0.00  0.00    +0.003 C 
ATOM     26  C   UNL     1      33.044 -24.096 -15.925  0.00  0.00    +0.015 C 
BRANCH  21  28
ATOM     27  O   UNL     1      26.252 -22.462 -16.167  0.00  0.00    -0.350 OA
ATOM     28  N   UNL     1      29.018 -22.960 -16.112  0.00  0.00    -0.303 N 
ATOM     29  C   UNL     1      28.248 -23.191 -17.339  0.00  0.00    +0.123 C 
ATOM     30  C   UNL     1      28.234 -22.979 -14.868  0.00  0.00    +0.123 C 
ATOM     31  C   UNL     1      27.021 -22.285 -17.356  0.00  0.00    +0.164 C 
ATOM     32  C   UNL     1      27.009 -22.084 -15.018  0.00  0.00    +0.164 C 
ENDBRANCH  21  28
ENDBRANCH   1  24
TORSDOF 3
ENDMDL
MODEL 6
REMARK VINA RESULT:      -9.7      9.597     15.864
REMARK  Name = 25011731
REMARK  3 active torsions:
REMARK  status: ('A' for Active; 'I' for Inactive)
REMARK    1  A    between atoms: N_1  and  C_24
REMARK    2  A    between atoms: N_2  and  C_15
REMARK    3  A    between atoms: C_21  and  N_28
REMARK                            x       y       z     vdW  Elec       q    Type
REMARK                         _______ _______ _______ _____ _____    ______ ____
ROOT
ATOM      1  N   UNL     1      32.168 -11.131 -21.607  0.00  0.00    -0.247 N 
ATOM      2  N   UNL     1      32.904  -6.480 -22.001  0.00  0.00    -0.284 N 
ATOM      3  N   UNL     1      32.543  -8.828 -21.822  0.00  0.00    -0.322 NA
ATOM      4  N   UNL     1      31.417  -9.723 -19.890  0.00  0.00    -0.170 NA
ATOM      5  C   UNL     1      32.037  -9.830 -21.081  0.00  0.00    +0.150 C 
ATOM      6  C   UNL     1      32.400  -7.596 -21.290  0.00  0.00    +0.198 C 
ATOM      7  C   UNL     1      31.786  -7.351 -20.078  0.00  0.00    +0.070 C 
ATOM      8  C   UNL     1      31.308  -8.464 -19.416  0.00  0.00    +0.116 C 
ATOM      9  H   UNL     1      31.783 -11.830 -21.031  0.00  0.00    +0.165 HD
ATOM     10  H   UNL     1      33.194  -5.738 -21.423  0.00  0.00    +0.155 HD
ENDROOT
BRANCH   2  15
ATOM     11 CL   UNL     1      35.180  -7.956 -23.399  0.00  0.00    -0.081 Cl
ATOM     12  O   UNL     1      31.197  -4.662 -23.462  0.00  0.00    -0.433 OA
ATOM     13  O   UNL     1      31.437  -4.187 -25.812  0.00  0.00    -0.435 OA
ATOM     14  C   UNL     1      32.228  -5.349 -24.025  0.00  0.00    +0.191 C 
ATOM     15  C   UNL     1      33.069  -6.227 -23.373  0.00  0.00    +0.098 C 
ATOM     16  C   UNL     1      32.365  -5.078 -25.368  0.00  0.00    +0.178 C 
ATOM     17  C   UNL     1      34.075  -6.841 -24.124  0.00  0.00    +0.074 C 
ATOM     18  C   UNL     1      33.349  -5.670 -26.132  0.00  0.00    +0.041 C 
ATOM     19  C   UNL     1      30.702  -3.927 -24.599  0.00  0.00    +0.429 C 
ATOM     20  C   UNL     1      34.214  -6.564 -25.495  0.00  0.00    +0.016 C 
ENDBRANCH   2  15
BRANCH   1  24
ATOM     21  C   UNL     1      33.665 -13.458 -24.070  0.00  0.00    +0.049 C 
ATOM     22  C   UNL     1      33.097 -12.970 -22.892  0.00  0.00    +0.030 C 
ATOM     23  C   UNL     1      33.874 -12.602 -25.150  0.00  0.00    +0.015 C 
ATOM     24  C   UNL     1      32.741 -11.625 -22.796  0.00  0.00    +0.059 C 
ATOM     25  C   UNL     1      33.517 -11.257 -25.054  0.00  0.00    +0.003 C 
ATOM     26  C   UNL     1      32.951 -10.768 -23.878  0.00  0.00    +0.015 C 
BRANCH  21  28
ATOM     27  O   UNL     1      34.469 -17.576 -24.353  0.00  0.00    -0.350 OA
ATOM     28  N   UNL     1      34.023 -14.807 -24.167  0.00  0.00    -0.303 N 
ATOM     29  C   UNL     1      34.153 -15.619 -22.953  0.00  0.00    +0.123 C 
ATOM     30  C   UNL     1      33.624 -15.544 -25.374  0.00  0.00    +0.123 C 
ATOM     31  C   UNL     1      35.003 -16.851 -23.245  0.00  0.00    +0.164 C 
ATOM     32  C   UNL     1      34.503 -16.779 -25.537  0.00  0.00    +0.164 C 
ENDBRANCH  21  28
ENDBRANCH   1  24
TORSDOF 3
ENDMDL
MODEL 7
REMARK VINA RESULT:      -9.7      3.424      6.167
REMARK  Name = 25011731
REMARK  3 active torsions:
REMARK  status: ('A' for Active; 'I' for Inactive)
REMARK    1  A    between atoms: N_1  and  C_24
REMARK    2  A    between atoms: N_2  and  C_15
REMARK    3  A    between atoms: C_21  and  N_28
REMARK                            x       y       z     vdW  Elec       q    Type
REMARK                         _______ _______ _______ _____ _____    ______ ____
ROOT
ATOM      1  N   UNL     1      33.183 -22.484 -18.203  0.00  0.00    -0.247 N 
ATOM      2  N   UNL     1      37.266 -22.579 -15.828  0.00  0.00    -0.284 N 
ATOM      3  N   UNL     1      35.197 -22.539 -17.007  0.00  0.00    -0.322 NA
ATOM      4  N   UNL     1      35.128 -21.747 -19.281  0.00  0.00    -0.170 NA
ATOM      5  C   UNL     1      34.571 -22.245 -18.161  0.00  0.00    +0.150 C 
ATOM      6  C   UNL     1      36.525 -22.299 -17.002  0.00  0.00    +0.198 C 
ATOM      7  C   UNL     1      37.216 -21.789 -18.082  0.00  0.00    +0.070 C 
ATOM      8  C   UNL     1      36.458 -21.530 -19.206  0.00  0.00    +0.116 C 
ATOM      9  H   UNL     1      32.768 -22.255 -19.066  0.00  0.00    +0.165 HD
ATOM     10  H   UNL     1      38.048 -21.994 -15.703  0.00  0.00    +0.155 HD
ENDROOT
BRANCH   2  15
ATOM     11 CL   UNL     1      34.621 -22.507 -14.308  0.00  0.00    -0.081 Cl
ATOM     12  O   UNL     1      39.303 -24.521 -15.170  0.00  0.00    -0.433 OA
ATOM     13  O   UNL     1      39.075 -26.171 -13.428  0.00  0.00    -0.435 OA
ATOM     14  C   UNL     1      38.104 -24.435 -14.530  0.00  0.00    +0.191 C 
ATOM     15  C   UNL     1      37.101 -23.530 -14.807  0.00  0.00    +0.098 C 
ATOM     16  C   UNL     1      37.974 -25.378 -13.536  0.00  0.00    +0.178 C 
ATOM     17  C   UNL     1      35.935 -23.598 -14.039  0.00  0.00    +0.074 C 
ATOM     18  C   UNL     1      36.834 -25.467 -12.764  0.00  0.00    +0.041 C 
ATOM     19  C   UNL     1      39.913 -25.621 -14.465  0.00  0.00    +0.429 C 
ATOM     20  C   UNL     1      35.803 -24.561 -13.024  0.00  0.00    +0.016 C 
ENDBRANCH   2  15
BRANCH   1  24
ATOM     21  C   UNL     1      30.036 -23.091 -16.343  0.00  0.00    +0.049 C 
ATOM     22  C   UNL     1      30.937 -22.591 -17.285  0.00  0.00    +0.030 C 
ATOM     23  C   UNL     1      30.473 -23.989 -15.369  0.00  0.00    +0.015 C 
ATOM     24  C   UNL     1      32.272 -22.989 -17.252  0.00  0.00    +0.059 C 
ATOM     25  C   UNL     1      31.810 -24.387 -15.336  0.00  0.00    +0.003 C 
ATOM     26  C   UNL     1      32.709 -23.887 -16.277  0.00  0.00    +0.015 C 
BRANCH  21  28
ATOM     27  O   UNL     1      25.937 -22.159 -16.392  0.00  0.00    -0.350 OA
ATOM     28  N   UNL     1      28.696 -22.692 -16.375  0.00  0.00    -0.303 N 
ATOM     29  C   UNL     1      27.924 -22.819 -17.616  0.00  0.00    +0.123 C 
ATOM     30  C   UNL     1      27.912 -22.798 -15.137  0.00  0.00    +0.123 C 
ATOM     31  C   UNL     1      26.709 -21.900 -17.564  0.00  0.00    +0.164 C 
ATOM     32  C   UNL     1      26.698 -21.879 -15.217  0.00  0.00    +0.164 C 
ENDBRANCH  21  28
ENDBRANCH   1  24
TORSDOF 3
ENDMDL
MODEL 8
REMARK VINA RESULT:      -9.7     10.037     14.744
REMARK  Name = 25011731
REMARK  3 active torsions:
REMARK  status: ('A' for Active; 'I' for Inactive)
REMARK    1  A    between atoms: N_1  and  C_24
REMARK    2  A    between atoms: N_2  and  C_15
REMARK    3  A    between atoms: C_21  and  N_28
REMARK                            x       y       z     vdW  Elec       q    Type
REMARK                         _______ _______ _______ _____ _____    ______ ____
ROOT
ATOM      1  N   UNL     1      31.989 -12.015 -21.269  0.00  0.00    -0.247 N 
ATOM      2  N   UNL     1      32.328  -7.320 -20.860  0.00  0.00    -0.284 N 
ATOM      3  N   UNL     1      32.168  -9.685 -21.087  0.00  0.00    -0.322 NA
ATOM      4  N   UNL     1      31.190 -10.995 -19.316  0.00  0.00    -0.170 NA
ATOM      5  C   UNL     1      31.772 -10.841 -20.521  0.00  0.00    +0.150 C 
ATOM      6  C   UNL     1      31.944  -8.581 -20.343  0.00  0.00    +0.198 C 
ATOM      7  C   UNL     1      31.357  -8.603 -19.094  0.00  0.00    +0.070 C 
ATOM      8  C   UNL     1      30.997  -9.851 -18.626  0.00  0.00    +0.116 C 
ATOM      9  H   UNL     1      31.684 -12.834 -20.815  0.00  0.00    +0.165 HD
ATOM     10  H   UNL     1      32.579  -6.667 -20.167  0.00  0.00    +0.155 HD
ENDROOT
BRANCH   2  15
ATOM     11 CL   UNL     1      30.228  -5.270 -21.693  0.00  0.00    -0.081 Cl
ATOM     12  O   UNL     1      34.390  -8.165 -22.701  0.00  0.00    -0.433 OA
ATOM     13  O   UNL     1      34.597  -7.343 -24.957  0.00  0.00    -0.435 OA
ATOM     14  C   UNL     1      33.425  -7.256 -23.011  0.00  0.00    +0.191 C 
ATOM     15  C   UNL     1      32.422  -6.820 -22.170  0.00  0.00    +0.098 C 
ATOM     16  C   UNL     1      33.543  -6.787 -24.299  0.00  0.00    +0.178 C 
ATOM     17  C   UNL     1      31.520  -5.878 -22.669  0.00  0.00    +0.074 C 
ATOM     18  C   UNL     1      32.666  -5.856 -24.817  0.00  0.00    +0.041 C 
ATOM     19  C   UNL     1      35.127  -8.216 -23.940  0.00  0.00    +0.429 C 
ATOM     20  C   UNL     1      31.641  -5.398 -23.985  0.00  0.00    +0.016 C 
ENDBRANCH   2  15
BRANCH   1  24
ATOM     21  C   UNL     1      33.420 -13.772 -24.200  0.00  0.00    +0.049 C 
ATOM     22  C   UNL     1      32.858 -13.545 -22.943  0.00  0.00    +0.030 C 
ATOM     23  C   UNL     1      33.678 -12.699 -25.052  0.00  0.00    +0.015 C 
ATOM     24  C   UNL     1      32.557 -12.245 -22.539  0.00  0.00    +0.059 C 
ATOM     25  C   UNL     1      33.377 -11.398 -24.648  0.00  0.00    +0.003 C 
ATOM     26  C   UNL     1      32.816 -11.171 -23.392  0.00  0.00    +0.015 C 
BRANCH  21  28
ATOM     27  O   UNL     1      34.569 -17.593 -25.525  0.00  0.00    -0.350 OA
ATOM     28  N   UNL     1      33.722 -15.076 -24.606  0.00  0.00    -0.303 N 
ATOM     29  C   UNL     1      33.418 -15.505 -25.975  0.00  0.00    +0.123 C 
ATOM     30  C   UNL     1      34.869 -15.748 -23.979  0.00  0.00    +0.123 C 
ATOM     31  C   UNL     1      33.363 -17.028 -26.038  0.00  0.00    +0.164 C 
ATOM     32  C   UNL     1      34.735 -17.258 -24.148  0.00  0.00    +0.164 C 
ENDBRANCH  21  28
ENDBRANCH   1  24
TORSDOF 3
ENDMDL
MODEL 9
REMARK VINA RESULT:      -9.7     11.143     14.798
REMARK  Name = 25011731
REMARK  3 active torsions:
REMARK  status: ('A' for Active; 'I' for Inactive)
REMARK    1  A    between atoms: N_1  and  C_24
REMARK    2  A    between atoms: N_2  and  C_15
REMARK    3  A    between atoms: C_21  and  N_28
REMARK                            x       y       z     vdW  Elec       q    Type
REMARK                         _______ _______ _______ _____ _____    ______ ____
ROOT
ATOM      1  N   UNL     1      32.685  -7.739 -20.969  0.00  0.00    -0.247 N 
ATOM      2  N   UNL     1      31.591 -12.309 -21.463  0.00  0.00    -0.284 N 
ATOM      3  N   UNL     1      32.150 -10.005 -21.236  0.00  0.00    -0.322 NA
ATOM      4  N   UNL     1      31.656  -8.849 -19.180  0.00  0.00    -0.170 NA
ATOM      5  C   UNL     1      32.137  -8.922 -20.436  0.00  0.00    +0.150 C 
ATOM      6  C   UNL     1      31.619 -11.120 -20.693  0.00  0.00    +0.198 C 
ATOM      7  C   UNL     1      31.093 -11.178 -19.418  0.00  0.00    +0.070 C 
ATOM      8  C   UNL     1      31.139 -10.000 -18.700  0.00  0.00    +0.116 C 
ATOM      9  H   UNL     1      32.654  -6.975 -20.349  0.00  0.00    +0.165 HD
ATOM     10  H   UNL     1      30.835 -12.903 -21.249  0.00  0.00    +0.155 HD
ENDROOT
BRANCH   2  15
ATOM     11 CL   UNL     1      32.445 -15.228 -21.219  0.00  0.00    -0.081 Cl
ATOM     12  O   UNL     1      32.487 -10.680 -23.676  0.00  0.00    -0.433 OA
ATOM     13  O   UNL     1      33.931 -11.476 -25.433  0.00  0.00    -0.435 OA
ATOM     14  C   UNL     1      32.833 -11.986 -23.509  0.00  0.00    +0.191 C 
ATOM     15  C   UNL     1      32.432 -12.804 -22.473  0.00  0.00    +0.098 C 
ATOM     16  C   UNL     1      33.657 -12.441 -24.512  0.00  0.00    +0.178 C 
ATOM     17  C   UNL     1      32.891 -14.124 -22.473  0.00  0.00    +0.074 C 
ATOM     18  C   UNL     1      34.125 -13.738 -24.536  0.00  0.00    +0.041 C 
ATOM     19  C   UNL     1      33.188 -10.363 -24.896  0.00  0.00    +0.429 C 
ATOM     20  C   UNL     1      33.733 -14.588 -23.499  0.00  0.00    +0.016 C 
ENDBRANCH   2  15
BRANCH   1  24
ATOM     21  C   UNL     1      33.278  -6.166 -24.271  0.00  0.00    +0.049 C 
ATOM     22  C   UNL     1      32.699  -6.465 -23.037  0.00  0.00    +0.030 C 
ATOM     23  C   UNL     1      34.429  -6.838 -24.682  0.00  0.00    +0.015 C 
ATOM     24  C   UNL     1      33.269  -7.436 -22.216  0.00  0.00    +0.059 C 
ATOM     25  C   UNL     1      35.000  -7.809 -23.860  0.00  0.00    +0.003 C 
ATOM     26  C   UNL     1      34.421  -8.109 -22.628  0.00  0.00    +0.015 C 
BRANCH  21  28
ATOM     27  O   UNL     1      31.380  -3.432 -26.841  0.00  0.00    -0.350 OA
ATOM     28  N   UNL     1      32.706  -5.191 -25.095  0.00  0.00    -0.303 N 
ATOM     29  C   UNL     1      33.138  -5.067 -26.492  0.00  0.00    +0.123 C 
ATOM     30  C   UNL     1      31.316  -4.790 -24.832  0.00  0.00    +0.123 C 
ATOM     31  C   UNL     1      32.772  -3.685 -27.023  0.00  0.00    +0.164 C 
ATOM     32  C   UNL     1      31.049  -3.423 -25.452  0.00  0.00    +0.164 C 
ENDBRANCH  21  28
ENDBRANCH   1  24
TORSDOF 3
ENDMDL
