MODEL 1
REMARK VINA RESULT:      -9.1      0.000      0.000
REMARK  Name = 5743585
REMARK  4 active torsions:
REMARK  status: ('A' for Active; 'I' for Inactive)
REMARK    1  A    between atoms: C_4  and  N_9
REMARK    2  A    between atoms: C_8  and  C_17
REMARK    3  A    between atoms: C_17  and  O_18
REMARK    4  A    between atoms: O_18  and  C_19
REMARK                            x       y       z     vdW  Elec       q    Type
REMARK                         _______ _______ _______ _____ _____    ______ ____
ROOT
ATOM      1  S   UNL     1      35.114 -17.700 -23.222  0.00  0.00    -0.112 S 
ATOM      2  O   UNL     1      34.991 -15.899 -19.806  0.00  0.00    -0.276 OA
ATOM      3  N   UNL     1      34.303 -15.563 -22.020  0.00  0.00    -0.253 N 
ATOM      4  C   UNL     1      35.488 -17.584 -21.455  0.00  0.00    +0.076 C 
ATOM      5  C   UNL     1      34.913 -16.265 -20.975  0.00  0.00    +0.220 C 
ATOM      6  C   UNL     1      34.320 -16.165 -23.261  0.00  0.00    +0.085 C 
ATOM      7  C   UNL     1      33.684 -14.263 -21.808  0.00  0.00    +0.120 C 
ATOM      8  C   UNL     1      33.798 -15.668 -24.390  0.00  0.00    +0.103 C 
ENDROOT
BRANCH   4   9
ATOM      9  N   UNL     1      34.870 -18.658 -20.679  0.00  0.00    +0.400 N 
ATOM     10  C   UNL     1      33.531 -18.964 -21.203  0.00  0.00    -0.075 C 
ATOM     11  C   UNL     1      35.727 -19.851 -20.678  0.00  0.00    -0.075 C 
ATOM     12  C   UNL     1      32.850 -20.053 -20.371  0.00  0.00    -0.023 C 
ATOM     13  C   UNL     1      35.116 -20.968 -19.829  0.00  0.00    -0.023 C 
ATOM     14  C   UNL     1      33.707 -21.311 -20.295  0.00  0.00    -0.004 C 
ATOM     15  H   UNL     1      34.765 -18.345 -19.714  0.00  0.00    -0.078 HD
ENDBRANCH   4   9
BRANCH   8  17
ATOM     16  O   UNL     1      34.381 -17.549 -25.762  0.00  0.00    -0.245 OA
ATOM     17  C   UNL     1      33.895 -16.435 -25.648  0.00  0.00    +0.343 C 
BRANCH  17  18
ATOM     18  O   UNL     1      33.347 -15.676 -26.634  0.00  0.00    -0.445 OA
BRANCH  18  19
ATOM     19  C   UNL     1      32.884 -14.383 -26.231  0.00  0.00    +0.209 C 
ATOM     20  C   UNL     1      33.307 -13.363 -27.265  0.00  0.00    +0.051 C 
ENDBRANCH  18  19
ENDBRANCH  17  18
ENDBRANCH   8  17
TORSDOF 4
ENDMDL
MODEL 2
REMARK VINA RESULT:      -8.8      6.898      9.744
REMARK  Name = 5743585
REMARK  4 active torsions:
REMARK  status: ('A' for Active; 'I' for Inactive)
REMARK    1  A    between atoms: C_4  and  N_9
REMARK    2  A    between atoms: C_8  and  C_17
REMARK    3  A    between atoms: C_17  and  O_18
REMARK    4  A    between atoms: O_18  and  C_19
REMARK                            x       y       z     vdW  Elec       q    Type
REMARK                         _______ _______ _______ _____ _____    ______ ____
ROOT
ATOM      1  S   UNL     1      35.129 -23.080 -16.100  0.00  0.00    -0.112 S 
ATOM      2  O   UNL     1      33.639 -24.136 -12.695  0.00  0.00    -0.276 OA
ATOM      3  N   UNL     1      32.951 -23.788 -14.907  0.00  0.00    -0.253 N 
ATOM      4  C   UNL     1      35.261 -23.424 -14.328  0.00  0.00    +0.076 C 
ATOM      5  C   UNL     1      33.876 -23.824 -13.859  0.00  0.00    +0.220 C 
ATOM      6  C   UNL     1      33.434 -23.417 -16.146  0.00  0.00    +0.085 C 
ATOM      7  C   UNL     1      31.550 -24.124 -14.702  0.00  0.00    +0.120 C 
ATOM      8  C   UNL     1      32.723 -23.316 -17.276  0.00  0.00    +0.103 C 
ENDROOT
BRANCH   4   9
ATOM      9  N   UNL     1      36.174 -24.530 -14.039  0.00  0.00    +0.400 N 
ATOM     10  C   UNL     1      36.229 -25.460 -15.175  0.00  0.00    -0.075 C 
ATOM     11  C   UNL     1      37.510 -24.019 -13.704  0.00  0.00    -0.075 C 
ATOM     12  C   UNL     1      37.143 -26.649 -14.870  0.00  0.00    -0.023 C 
ATOM     13  C   UNL     1      38.465 -25.161 -13.351  0.00  0.00    -0.023 C 
ATOM     14  C   UNL     1      38.541 -26.187 -14.474  0.00  0.00    -0.004 C 
ATOM     15  H   UNL     1      35.821 -25.042 -13.230  0.00  0.00    -0.078 HD
ENDBRANCH   4   9
BRANCH   8  17
ATOM     16  O   UNL     1      34.118 -23.608 -19.208  0.00  0.00    -0.245 OA
ATOM     17  C   UNL     1      33.386 -22.904 -18.529  0.00  0.00    +0.343 C 
BRANCH  17  18
ATOM     18  O   UNL     1      33.029 -21.616 -18.778  0.00  0.00    -0.445 OA
BRANCH  18  19
ATOM     19  C   UNL     1      33.757 -20.966 -19.825  0.00  0.00    +0.209 C 
ATOM     20  C   UNL     1      32.824 -20.038 -20.573  0.00  0.00    +0.051 C 
ENDBRANCH  18  19
ENDBRANCH  17  18
ENDBRANCH   8  17
TORSDOF 4
ENDMDL
MODEL 3
REMARK VINA RESULT:      -8.7      2.121      6.368
REMARK  Name = 5743585
REMARK  4 active torsions:
REMARK  status: ('A' for Active; 'I' for Inactive)
REMARK    1  A    between atoms: C_4  and  N_9
REMARK    2  A    between atoms: C_8  and  C_17
REMARK    3  A    between atoms: C_17  and  O_18
REMARK    4  A    between atoms: O_18  and  C_19
REMARK                            x       y       z     vdW  Elec       q    Type
REMARK                         _______ _______ _______ _____ _____    ______ ____
ROOT
ATOM      1  S   UNL     1      35.156 -16.747 -22.095  0.00  0.00    -0.112 S 
ATOM      2  O   UNL     1      34.226 -16.253 -25.813  0.00  0.00    -0.276 OA
ATOM      3  N   UNL     1      34.545 -17.991 -24.275  0.00  0.00    -0.253 N 
ATOM      4  C   UNL     1      34.848 -15.713 -23.549  0.00  0.00    +0.076 C 
ATOM      5  C   UNL     1      34.504 -16.655 -24.686  0.00  0.00    +0.220 C 
ATOM      6  C   UNL     1      34.873 -18.220 -22.954  0.00  0.00    +0.085 C 
ATOM      7  C   UNL     1      34.260 -19.083 -25.193  0.00  0.00    +0.120 C 
ATOM      8  C   UNL     1      34.970 -19.415 -22.358  0.00  0.00    +0.103 C 
ENDROOT
BRANCH   4   9
ATOM      9  N   UNL     1      33.720 -14.801 -23.359  0.00  0.00    +0.400 N 
ATOM     10  C   UNL     1      33.303 -14.788 -21.950  0.00  0.00    -0.075 C 
ATOM     11  C   UNL     1      34.067 -13.451 -23.824  0.00  0.00    -0.075 C 
ATOM     12  C   UNL     1      32.092 -13.875 -21.742  0.00  0.00    -0.023 C 
ATOM     13  C   UNL     1      32.881 -12.496 -23.677  0.00  0.00    -0.023 C 
ATOM     14  C   UNL     1      32.370 -12.462 -22.242  0.00  0.00    -0.004 C 
ATOM     15  H   UNL     1      32.933 -15.134 -23.916  0.00  0.00    -0.078 HD
ENDBRANCH   4   9
BRANCH   8  17
ATOM     16  O   UNL     1      36.468 -19.572 -20.489  0.00  0.00    -0.245 OA
ATOM     17  C   UNL     1      35.331 -19.500 -20.929  0.00  0.00    +0.343 C 
BRANCH  17  18
ATOM     18  O   UNL     1      34.176 -19.479 -20.212  0.00  0.00    -0.445 OA
BRANCH  18  19
ATOM     19  C   UNL     1      33.271 -20.558 -20.471  0.00  0.00    +0.209 C 
ATOM     20  C   UNL     1      33.462 -21.627 -19.417  0.00  0.00    +0.051 C 
ENDBRANCH  18  19
ENDBRANCH  17  18
ENDBRANCH   8  17
TORSDOF 4
ENDMDL
MODEL 4
REMARK VINA RESULT:      -8.4      2.273      6.574
REMARK  Name = 5743585
REMARK  4 active torsions:
REMARK  status: ('A' for Active; 'I' for Inactive)
REMARK    1  A    between atoms: C_4  and  N_9
REMARK    2  A    between atoms: C_8  and  C_17
REMARK    3  A    between atoms: C_17  and  O_18
REMARK    4  A    between atoms: O_18  and  C_19
REMARK                            x       y       z     vdW  Elec       q    Type
REMARK                         _______ _______ _______ _____ _____    ______ ____
ROOT
ATOM      1  S   UNL     1      34.758 -17.320 -21.369  0.00  0.00    -0.112 S 
ATOM      2  O   UNL     1      34.901 -16.461 -25.134  0.00  0.00    -0.276 OA
ATOM      3  N   UNL     1      34.746 -18.339 -23.743  0.00  0.00    -0.253 N 
ATOM      4  C   UNL     1      34.886 -16.150 -22.744  0.00  0.00    +0.076 C 
ATOM      5  C   UNL     1      34.849 -16.972 -24.018  0.00  0.00    +0.220 C 
ATOM      6  C   UNL     1      34.691 -18.698 -22.411  0.00  0.00    +0.085 C 
ATOM      7  C   UNL     1      34.701 -19.332 -24.805  0.00  0.00    +0.120 C 
ATOM      8  C   UNL     1      34.593 -19.944 -21.930  0.00  0.00    +0.103 C 
ENDROOT
BRANCH   4   9
ATOM      9  N   UNL     1      33.771 -15.206 -22.781  0.00  0.00    +0.400 N 
ATOM     10  C   UNL     1      33.296 -14.918 -21.421  0.00  0.00    -0.075 C 
ATOM     11  C   UNL     1      34.162 -13.974 -23.479  0.00  0.00    -0.075 C 
ATOM     12  C   UNL     1      32.096 -13.969 -21.444  0.00  0.00    -0.023 C 
ATOM     13  C   UNL     1      32.991 -12.994 -23.570  0.00  0.00    -0.023 C 
ATOM     14  C   UNL     1      32.423 -12.681 -22.192  0.00  0.00    -0.004 C 
ATOM     15  H   UNL     1      33.001 -15.629 -23.299  0.00  0.00    -0.078 HD
ENDBRANCH   4   9
BRANCH   8  17
ATOM     16  O   UNL     1      33.534 -20.390 -19.823  0.00  0.00    -0.245 OA
ATOM     17  C   UNL     1      34.544 -20.170 -20.472  0.00  0.00    +0.343 C 
BRANCH  17  18
ATOM     18  O   UNL     1      35.818 -20.088 -20.001  0.00  0.00    -0.445 OA
BRANCH  18  19
ATOM     19  C   UNL     1      36.475 -21.341 -19.783  0.00  0.00    +0.209 C 
ATOM     20  C   UNL     1      36.577 -21.593 -18.295  0.00  0.00    +0.051 C 
ENDBRANCH  18  19
ENDBRANCH  17  18
ENDBRANCH   8  17
TORSDOF 4
ENDMDL
MODEL 5
REMARK VINA RESULT:      -7.8      8.064     10.209
REMARK  Name = 5743585
REMARK  4 active torsions:
REMARK  status: ('A' for Active; 'I' for Inactive)
REMARK    1  A    between atoms: C_4  and  N_9
REMARK    2  A    between atoms: C_8  and  C_17
REMARK    3  A    between atoms: C_17  and  O_18
REMARK    4  A    between atoms: O_18  and  C_19
REMARK                            x       y       z     vdW  Elec       q    Type
REMARK                         _______ _______ _______ _____ _____    ______ ____
ROOT
ATOM      1  S   UNL     1      31.053  -7.840 -23.121  0.00  0.00    -0.112 S 
ATOM      2  O   UNL     1      34.312  -9.807 -23.786  0.00  0.00    -0.276 OA
ATOM      3  N   UNL     1      33.504  -7.611 -23.903  0.00  0.00    -0.253 N 
ATOM      4  C   UNL     1      32.021  -9.368 -23.184  0.00  0.00    +0.076 C 
ATOM      5  C   UNL     1      33.410  -8.984 -23.655  0.00  0.00    +0.220 C 
ATOM      6  C   UNL     1      32.366  -6.863 -23.679  0.00  0.00    +0.085 C 
ATOM      7  C   UNL     1      34.739  -7.002 -24.373  0.00  0.00    +0.120 C 
ATOM      8  C   UNL     1      32.239  -5.542 -23.854  0.00  0.00    +0.103 C 
ENDROOT
BRANCH   4   9
ATOM      9  N   UNL     1      32.147 -10.005 -21.873  0.00  0.00    +0.400 N 
ATOM     10  C   UNL     1      31.944  -9.020 -20.802  0.00  0.00    -0.075 C 
ATOM     11  C   UNL     1      31.203 -11.124 -21.753  0.00  0.00    -0.075 C 
ATOM     12  C   UNL     1      32.122  -9.660 -19.424  0.00  0.00    -0.023 C 
ATOM     13  C   UNL     1      31.356 -11.833 -20.406  0.00  0.00    -0.023 C 
ATOM     14  C   UNL     1      31.196 -10.858 -19.245  0.00  0.00    -0.004 C 
ATOM     15  H   UNL     1      33.092 -10.379 -21.781  0.00  0.00    -0.078 HD
ENDBRANCH   4   9
BRANCH   8  17
ATOM     16  O   UNL     1      30.445  -4.757 -22.466  0.00  0.00    -0.245 OA
ATOM     17  C   UNL     1      30.949  -4.881 -23.571  0.00  0.00    +0.343 C 
BRANCH  17  18
ATOM     18  O   UNL     1      30.444  -4.443 -24.755  0.00  0.00    -0.445 OA
BRANCH  18  19
ATOM     19  C   UNL     1      31.206  -3.424 -25.412  0.00  0.00    +0.209 C 
ATOM     20  C   UNL     1      30.885  -2.086 -24.783  0.00  0.00    +0.051 C 
ENDBRANCH  18  19
ENDBRANCH  17  18
ENDBRANCH   8  17
TORSDOF 4
ENDMDL
MODEL 6
REMARK VINA RESULT:      -7.8      3.514      6.974
REMARK  Name = 5743585
REMARK  4 active torsions:
REMARK  status: ('A' for Active; 'I' for Inactive)
REMARK    1  A    between atoms: C_4  and  N_9
REMARK    2  A    between atoms: C_8  and  C_17
REMARK    3  A    between atoms: C_17  and  O_18
REMARK    4  A    between atoms: O_18  and  C_19
REMARK                            x       y       z     vdW  Elec       q    Type
REMARK                         _______ _______ _______ _____ _____    ______ ____
ROOT
ATOM      1  S   UNL     1      33.049 -13.413 -24.740  0.00  0.00    -0.112 S 
ATOM      2  O   UNL     1      32.041 -12.552 -21.111  0.00  0.00    -0.276 OA
ATOM      3  N   UNL     1      32.887 -14.357 -22.341  0.00  0.00    -0.253 N 
ATOM      4  C   UNL     1      32.403 -12.288 -23.478  0.00  0.00    +0.076 C 
ATOM      5  C   UNL     1      32.411 -13.053 -22.169  0.00  0.00    +0.220 C 
ATOM      6  C   UNL     1      33.262 -14.714 -23.621  0.00  0.00    +0.085 C 
ATOM      7  C   UNL     1      32.982 -15.289 -21.228  0.00  0.00    +0.120 C 
ATOM      8  C   UNL     1      33.739 -15.905 -24.003  0.00  0.00    +0.103 C 
ENDROOT
BRANCH   4   9
ATOM      9  N   UNL     1      33.234 -11.096 -23.312  0.00  0.00    +0.400 N 
ATOM     10  C   UNL     1      34.086 -10.896 -24.492  0.00  0.00    -0.075 C 
ATOM     11  C   UNL     1      32.396  -9.917 -23.055  0.00  0.00    -0.075 C 
ATOM     12  C   UNL     1      34.998  -9.680 -24.314  0.00  0.00    -0.023 C 
ATOM     13  C   UNL     1      33.253  -8.670 -22.830  0.00  0.00    -0.023 C 
ATOM     14  C   UNL     1      34.192  -8.424 -24.003  0.00  0.00    -0.004 C 
ATOM     15  H   UNL     1      33.842 -11.232 -22.505  0.00  0.00    -0.078 HD
ENDBRANCH   4   9
BRANCH   8  17
ATOM     16  O   UNL     1      33.698 -15.480 -26.365  0.00  0.00    -0.245 OA
ATOM     17  C   UNL     1      34.098 -16.136 -25.416  0.00  0.00    +0.343 C 
BRANCH  17  18
ATOM     18  O   UNL     1      34.945 -17.200 -25.455  0.00  0.00    -0.445 OA
BRANCH  18  19
ATOM     19  C   UNL     1      35.049 -17.949 -24.240  0.00  0.00    +0.209 C 
ATOM     20  C   UNL     1      34.747 -19.403 -24.530  0.00  0.00    +0.051 C 
ENDBRANCH  18  19
ENDBRANCH  17  18
ENDBRANCH   8  17
TORSDOF 4
ENDMDL
MODEL 7
REMARK VINA RESULT:      -7.8      6.041      8.721
REMARK  Name = 5743585
REMARK  4 active torsions:
REMARK  status: ('A' for Active; 'I' for Inactive)
REMARK    1  A    between atoms: C_4  and  N_9
REMARK    2  A    between atoms: C_8  and  C_17
REMARK    3  A    between atoms: C_17  and  O_18
REMARK    4  A    between atoms: O_18  and  C_19
REMARK                            x       y       z     vdW  Elec       q    Type
REMARK                         _______ _______ _______ _____ _____    ______ ____
ROOT
ATOM      1  S   UNL     1      36.655 -22.060 -16.723  0.00  0.00    -0.112 S 
ATOM      2  O   UNL     1      34.006 -23.852 -14.555  0.00  0.00    -0.276 OA
ATOM      3  N   UNL     1      34.258 -23.022 -16.731  0.00  0.00    -0.253 N 
ATOM      4  C   UNL     1      36.079 -22.789 -15.170  0.00  0.00    +0.076 C 
ATOM      5  C   UNL     1      34.669 -23.287 -15.421  0.00  0.00    +0.220 C 
ATOM      6  C   UNL     1      35.170 -22.383 -17.547  0.00  0.00    +0.085 C 
ATOM      7  C   UNL     1      32.937 -23.399 -17.210  0.00  0.00    +0.120 C 
ATOM      8  C   UNL     1      34.981 -22.036 -18.826  0.00  0.00    +0.103 C 
ENDROOT
BRANCH   4   9
ATOM      9  N   UNL     1      36.894 -23.929 -14.751  0.00  0.00    +0.400 N 
ATOM     10  C   UNL     1      38.222 -23.868 -15.376  0.00  0.00    -0.075 C 
ATOM     11  C   UNL     1      36.997 -23.975 -13.286  0.00  0.00    -0.075 C 
ATOM     12  C   UNL     1      39.071 -25.079 -14.987  0.00  0.00    -0.023 C 
ATOM     13  C   UNL     1      37.806 -25.190 -12.828  0.00  0.00    -0.023 C 
ATOM     14  C   UNL     1      39.187 -25.211 -13.472  0.00  0.00    -0.004 C 
ATOM     15  H   UNL     1      36.440 -24.788 -15.062  0.00  0.00    -0.078 HD
ENDBRANCH   4   9
BRANCH   8  17
ATOM     16  O   UNL     1      37.152 -21.829 -19.828  0.00  0.00    -0.245 OA
ATOM     17  C   UNL     1      36.057 -21.353 -19.572  0.00  0.00    +0.343 C 
BRANCH  17  18
ATOM     18  O   UNL     1      35.601 -20.118 -19.913  0.00  0.00    -0.445 OA
BRANCH  18  19
ATOM     19  C   UNL     1      34.358 -20.096 -20.624  0.00  0.00    +0.209 C 
ATOM     20  C   UNL     1      34.568 -19.421 -21.962  0.00  0.00    +0.051 C 
ENDBRANCH  18  19
ENDBRANCH  17  18
ENDBRANCH   8  17
TORSDOF 4
ENDMDL
MODEL 8
REMARK VINA RESULT:      -7.7      5.961      7.826
REMARK  Name = 5743585
REMARK  4 active torsions:
REMARK  status: ('A' for Active; 'I' for Inactive)
REMARK    1  A    between atoms: C_4  and  N_9
REMARK    2  A    between atoms: C_8  and  C_17
REMARK    3  A    between atoms: C_17  and  O_18
REMARK    4  A    between atoms: O_18  and  C_19
REMARK                            x       y       z     vdW  Elec       q    Type
REMARK                         _______ _______ _______ _____ _____    ______ ____
ROOT
ATOM      1  S   UNL     1      31.826 -10.260 -22.271  0.00  0.00    -0.112 S 
ATOM      2  O   UNL     1      34.305 -11.720 -24.850  0.00  0.00    -0.276 OA
ATOM      3  N   UNL     1      33.882  -9.705 -23.731  0.00  0.00    -0.253 N 
ATOM      4  C   UNL     1      32.449 -11.598 -23.318  0.00  0.00    +0.076 C 
ATOM      5  C   UNL     1      33.647 -11.043 -24.063  0.00  0.00    +0.220 C 
ATOM      6  C   UNL     1      33.023  -9.137 -22.812  0.00  0.00    +0.085 C 
ATOM      7  C   UNL     1      34.976  -8.951 -24.324  0.00  0.00    +0.120 C 
ATOM      8  C   UNL     1      33.069  -7.878 -22.359  0.00  0.00    +0.103 C 
ENDROOT
BRANCH   4   9
ATOM      9  N   UNL     1      32.893 -12.755 -22.543  0.00  0.00    +0.400 N 
ATOM     10  C   UNL     1      32.142 -12.849 -21.283  0.00  0.00    -0.075 C 
ATOM     11  C   UNL     1      32.759 -13.986 -23.334  0.00  0.00    -0.075 C 
ATOM     12  C   UNL     1      32.628 -14.027 -20.437  0.00  0.00    -0.023 C 
ATOM     13  C   UNL     1      33.265 -15.201 -22.555  0.00  0.00    -0.023 C 
ATOM     14  C   UNL     1      32.553 -15.336 -21.215  0.00  0.00    -0.004 C 
ATOM     15  H   UNL     1      33.879 -12.635 -22.312  0.00  0.00    -0.078 HD
ENDBRANCH   4   9
BRANCH   8  17
ATOM     16  O   UNL     1      32.145  -7.581 -20.164  0.00  0.00    -0.245 OA
ATOM     17  C   UNL     1      32.074  -7.414 -21.371  0.00  0.00    +0.343 C 
BRANCH  17  18
ATOM     18  O   UNL     1      31.086  -6.776 -22.053  0.00  0.00    -0.445 OA
BRANCH  18  19
ATOM     19  C   UNL     1      31.345  -5.405 -22.374  0.00  0.00    +0.209 C 
ATOM     20  C   UNL     1      31.042  -5.176 -23.839  0.00  0.00    +0.051 C 
ENDBRANCH  18  19
ENDBRANCH  17  18
ENDBRANCH   8  17
TORSDOF 4
ENDMDL
MODEL 9
REMARK VINA RESULT:      -7.6      3.634      5.315
REMARK  Name = 5743585
REMARK  4 active torsions:
REMARK  status: ('A' for Active; 'I' for Inactive)
REMARK    1  A    between atoms: C_4  and  N_9
REMARK    2  A    between atoms: C_8  and  C_17
REMARK    3  A    between atoms: C_17  and  O_18
REMARK    4  A    between atoms: O_18  and  C_19
REMARK                            x       y       z     vdW  Elec       q    Type
REMARK                         _______ _______ _______ _____ _____    ______ ____
ROOT
ATOM      1  S   UNL     1      33.570 -13.189 -23.464  0.00  0.00    -0.112 S 
ATOM      2  O   UNL     1      33.091 -15.871 -26.204  0.00  0.00    -0.276 OA
ATOM      3  N   UNL     1      33.489 -13.570 -26.018  0.00  0.00    -0.253 N 
ATOM      4  C   UNL     1      33.254 -14.885 -24.012  0.00  0.00    +0.076 C 
ATOM      5  C   UNL     1      33.263 -14.860 -25.528  0.00  0.00    +0.220 C 
ATOM      6  C   UNL     1      33.667 -12.575 -25.078  0.00  0.00    +0.085 C 
ATOM      7  C   UNL     1      33.534 -13.290 -27.445  0.00  0.00    +0.120 C 
ATOM      8  C   UNL     1      33.894 -11.280 -25.328  0.00  0.00    +0.103 C 
ENDROOT
BRANCH   4   9
ATOM      9  N   UNL     1      34.289 -15.818 -23.568  0.00  0.00    +0.400 N 
ATOM     10  C   UNL     1      34.159 -16.083 -22.129  0.00  0.00    -0.075 C 
ATOM     11  C   UNL     1      34.227 -17.063 -24.346  0.00  0.00    -0.075 C 
ATOM     12  C   UNL     1      35.264 -17.020 -21.638  0.00  0.00    -0.023 C 
ATOM     13  C   UNL     1      35.334 -18.032 -23.928  0.00  0.00    -0.023 C 
ATOM     14  C   UNL     1      35.282 -18.321 -22.433  0.00  0.00    -0.004 C 
ATOM     15  H   UNL     1      35.203 -15.393 -23.728  0.00  0.00    -0.078 HD
ENDBRANCH   4   9
BRANCH   8  17
ATOM     16  O   UNL     1      35.120  -9.821 -23.869  0.00  0.00    -0.245 OA
ATOM     17  C   UNL     1      34.065 -10.331 -24.210  0.00  0.00    +0.343 C 
BRANCH  17  18
ATOM     18  O   UNL     1      32.842 -10.137 -23.647  0.00  0.00    -0.445 OA
BRANCH  18  19
ATOM     19  C   UNL     1      32.651  -8.867 -23.013  0.00  0.00    +0.209 C 
ATOM     20  C   UNL     1      31.506  -8.146 -23.689  0.00  0.00    +0.051 C 
ENDBRANCH  18  19
ENDBRANCH  17  18
ENDBRANCH   8  17
TORSDOF 4
ENDMDL
