MODEL 1
REMARK VINA RESULT:      -8.1      0.000      0.000
REMARK  Name = 6323481
REMARK  18 active torsions:
REMARK  status: ('A' for Active; 'I' for Inactive)
REMARK    1  A    between atoms: P_1  and  O_3
REMARK    2  A    between atoms: P_1  and  O_5
REMARK    3  A    between atoms: P_1  and  O_20
REMARK    4  A    between atoms: O_5  and  C_6
REMARK    5  A    between atoms: C_6  and  C_7
REMARK    6  A    between atoms: C_7  and  O_8
REMARK    7  A    between atoms: C_7  and  C_14
REMARK    8  A    between atoms: O_8  and  C_10
REMARK    9  A    between atoms: C_10  and  C_11
REMARK   10  A    between atoms: C_11  and  C_12
REMARK   11  A    between atoms: C_14  and  O_15
REMARK   12  A    between atoms: O_15  and  C_17
REMARK   13  A    between atoms: C_17  and  C_18
REMARK   14  A    between atoms: O_20  and  C_21
REMARK   15  A    between atoms: C_21  and  C_22
REMARK   16  A    between atoms: C_22  and  N_23
REMARK   17  A    between atoms: C_22  and  C_28
REMARK   18  A    between atoms: C_28  and  O_29
REMARK                            x       y       z     vdW  Elec       q    Type
REMARK                         _______ _______ _______ _____ _____    ______ ____
ROOT
ATOM      1  P   UNK     1      36.558 -24.091 -11.658  0.00  0.00    +0.476 P 
ATOM      2  O   UNK     1      35.547 -24.516 -10.633  0.00  0.00    -0.227 OA
ENDROOT
BRANCH   1   3
ATOM      3  O   UNK     1      37.587 -22.954 -11.138  0.00  0.00    -0.302 OA
ATOM      4  H   UNK     1      38.016 -23.255 -10.322  0.00  0.00    +0.222 HD
ENDBRANCH   1   3
BRANCH   1   5
ATOM      5  O   UNK     1      35.930 -23.427 -12.991  0.00  0.00    -0.269 OA
BRANCH   5   6
ATOM      6  C   UNK     1      35.231 -24.272 -13.899  0.00  0.00    +0.201 C 
BRANCH   6   7
ATOM      7  C   UNK     1      34.303 -23.436 -14.774  0.00  0.00    +0.242 C 
BRANCH   7   8
ATOM      8  O   UNK     1      33.119 -24.195 -15.044  0.00  0.00    -0.446 OA
BRANCH   8  10
ATOM      9  O   UNK     1      31.833 -24.710 -13.198  0.00  0.00    -0.250 OA
ATOM     10  C   UNK     1      32.088 -24.007 -14.166  0.00  0.00    +0.317 C 
BRANCH  10  11
ATOM     11  C   UNK     1      31.307 -22.783 -14.586  0.00  0.00    +0.110 C 
BRANCH  11  12
ATOM     12  C   UNK     1      30.391 -23.069 -15.773  0.00  0.00    +0.012 C 
ATOM     13  C   UNK     1      28.985 -22.542 -15.532  0.00  0.00    +0.001 C 
ENDBRANCH  11  12
ENDBRANCH  10  11
ENDBRANCH   8  10
ENDBRANCH   7   8
BRANCH   7  14
ATOM     14  C   UNK     1      34.955 -23.094 -16.107  0.00  0.00    +0.254 C 
BRANCH  14  15
ATOM     15  O   UNK     1      34.171 -23.647 -17.160  0.00  0.00    -0.444 OA
BRANCH  15  17
ATOM     16  O   UNK     1      32.579 -22.525 -18.398  0.00  0.00    -0.250 OA
ATOM     17  C   UNK     1      33.745 -22.762 -18.113  0.00  0.00    +0.317 C 
BRANCH  17  18
ATOM     18  C   UNK     1      34.948 -22.116 -18.762  0.00  0.00    +0.110 C 
ATOM     19  C   UNK     1      34.550 -21.087 -19.806  0.00  0.00    +0.012 C 
ENDBRANCH  17  18
ENDBRANCH  15  17
ENDBRANCH  14  15
ENDBRANCH   7  14
ENDBRANCH   6   7
ENDBRANCH   5   6
ENDBRANCH   1   5
BRANCH   1  20
ATOM     20  O   UNK     1      37.518 -25.279 -12.195  0.00  0.00    -0.275 OA
BRANCH  20  21
ATOM     21  C   UNK     1      38.730 -24.967 -12.859  0.00  0.00    +0.143 C 
BRANCH  21  22
ATOM     22  C   UNK     1      38.728 -25.605 -14.245  0.00  0.00    +0.066 C 
BRANCH  22  23
ATOM     23  N   UNK     1      37.927 -26.828 -14.226  0.00  0.00    +0.390 N 
ATOM     24  H   UNK     1      38.452 -27.572 -13.763  0.00  0.00    -0.088 HD
ATOM     25  H   UNK     1      37.711 -27.109 -15.182  0.00  0.00    -0.088 HD
ATOM     26  H   UNK     1      37.059 -26.658 -13.718  0.00  0.00    -0.088 HD
ENDBRANCH  22  23
BRANCH  22  28
ATOM     27  O   UNK     1      41.012 -26.423 -13.925  0.00  0.00    -0.253 OA
ATOM     28  C   UNK     1      40.134 -25.991 -14.659  0.00  0.00    +0.295 C 
BRANCH  28  29
ATOM     29  O   UNK     1      40.313 -25.784 -15.989  0.00  0.00    -0.482 OA
ATOM     30  H   UNK     1      39.945 -26.383 -16.610  0.00  0.00    +0.295 HD
ENDBRANCH  28  29
ENDBRANCH  22  28
ENDBRANCH  21  22
ENDBRANCH  20  21
ENDBRANCH   1  20
TORSDOF 18
ENDMDL
MODEL 2
REMARK VINA RESULT:      -8.0      2.036      4.806
REMARK  Name = 6323481
REMARK  18 active torsions:
REMARK  status: ('A' for Active; 'I' for Inactive)
REMARK    1  A    between atoms: P_1  and  O_3
REMARK    2  A    between atoms: P_1  and  O_5
REMARK    3  A    between atoms: P_1  and  O_20
REMARK    4  A    between atoms: O_5  and  C_6
REMARK    5  A    between atoms: C_6  and  C_7
REMARK    6  A    between atoms: C_7  and  O_8
REMARK    7  A    between atoms: C_7  and  C_14
REMARK    8  A    between atoms: O_8  and  C_10
REMARK    9  A    between atoms: C_10  and  C_11
REMARK   10  A    between atoms: C_11  and  C_12
REMARK   11  A    between atoms: C_14  and  O_15
REMARK   12  A    between atoms: O_15  and  C_17
REMARK   13  A    between atoms: C_17  and  C_18
REMARK   14  A    between atoms: O_20  and  C_21
REMARK   15  A    between atoms: C_21  and  C_22
REMARK   16  A    between atoms: C_22  and  N_23
REMARK   17  A    between atoms: C_22  and  C_28
REMARK   18  A    between atoms: C_28  and  O_29
REMARK                            x       y       z     vdW  Elec       q    Type
REMARK                         _______ _______ _______ _____ _____    ______ ____
ROOT
ATOM      1  P   UNK     1      35.546 -25.083 -15.039  0.00  0.00    +0.476 P 
ATOM      2  O   UNK     1      36.041 -26.458 -15.385  0.00  0.00    -0.227 OA
ENDROOT
BRANCH   1   3
ATOM      3  O   UNK     1      34.173 -25.072 -14.181  0.00  0.00    -0.302 OA
ATOM      4  H   UNK     1      33.453 -24.723 -14.729  0.00  0.00    +0.222 HD
ENDBRANCH   1   3
BRANCH   1   5
ATOM      5  O   UNK     1      35.184 -24.155 -16.312  0.00  0.00    -0.269 OA
BRANCH   5   6
ATOM      6  C   UNK     1      34.266 -23.083 -16.125  0.00  0.00    +0.201 C 
BRANCH   6   7
ATOM      7  C   UNK     1      33.039 -23.293 -17.006  0.00  0.00    +0.242 C 
BRANCH   7   8
ATOM      8  O   UNK     1      33.037 -22.297 -18.035  0.00  0.00    -0.446 OA
BRANCH   8  10
ATOM      9  O   UNK     1      33.999 -23.714 -19.582  0.00  0.00    -0.250 OA
ATOM     10  C   UNK     1      33.783 -22.593 -19.141  0.00  0.00    +0.317 C 
BRANCH  10  11
ATOM     11  C   UNK     1      34.303 -21.305 -19.738  0.00  0.00    +0.110 C 
BRANCH  11  12
ATOM     12  C   UNK     1      35.822 -21.315 -19.882  0.00  0.00    +0.012 C 
ATOM     13  C   UNK     1      36.507 -21.541 -18.543  0.00  0.00    +0.001 C 
ENDBRANCH  11  12
ENDBRANCH  10  11
ENDBRANCH   8  10
ENDBRANCH   7   8
BRANCH   7  14
ATOM     14  C   UNK     1      31.750 -23.147 -16.208  0.00  0.00    +0.254 C 
BRANCH  14  15
ATOM     15  O   UNK     1      30.723 -22.675 -17.074  0.00  0.00    -0.444 OA
BRANCH  15  17
ATOM     16  O   UNK     1      28.459 -22.225 -17.094  0.00  0.00    -0.250 OA
ATOM     17  C   UNK     1      29.457 -22.681 -16.552  0.00  0.00    +0.317 C 
BRANCH  17  18
ATOM     18  C   UNK     1      29.483 -23.345 -15.195  0.00  0.00    +0.110 C 
ATOM     19  C   UNK     1      28.791 -24.697 -15.207  0.00  0.00    +0.012 C 
ENDBRANCH  17  18
ENDBRANCH  15  17
ENDBRANCH  14  15
ENDBRANCH   7  14
ENDBRANCH   6   7
ENDBRANCH   5   6
ENDBRANCH   1   5
BRANCH   1  20
ATOM     20  O   UNK     1      36.574 -24.197 -14.154  0.00  0.00    -0.275 OA
BRANCH  20  21
ATOM     21  C   UNK     1      37.960 -24.218 -14.447  0.00  0.00    +0.143 C 
BRANCH  21  22
ATOM     22  C   UNK     1      38.677 -25.114 -13.439  0.00  0.00    +0.066 C 
BRANCH  22  23
ATOM     23  N   UNK     1      38.842 -26.454 -13.998  0.00  0.00    +0.390 N 
ATOM     24  H   UNK     1      38.157 -27.085 -13.579  0.00  0.00    -0.088 HD
ATOM     25  H   UNK     1      39.783 -26.793 -13.798  0.00  0.00    -0.088 HD
ATOM     26  H   UNK     1      38.700 -26.421 -15.008  0.00  0.00    -0.088 HD
ENDBRANCH  22  23
BRANCH  22  28
ATOM     27  O   UNK     1      37.856 -24.472 -11.225  0.00  0.00    -0.253 OA
ATOM     28  C   UNK     1      37.860 -25.249 -12.169  0.00  0.00    +0.295 C 
BRANCH  28  29
ATOM     29  O   UNK     1      37.111 -26.381 -12.204  0.00  0.00    -0.482 OA
ATOM     30  H   UNK     1      36.515 -26.528 -12.913  0.00  0.00    +0.295 HD
ENDBRANCH  28  29
ENDBRANCH  22  28
ENDBRANCH  21  22
ENDBRANCH  20  21
ENDBRANCH   1  20
TORSDOF 18
ENDMDL
MODEL 3
REMARK VINA RESULT:      -8.0      1.487      3.942
REMARK  Name = 6323481
REMARK  18 active torsions:
REMARK  status: ('A' for Active; 'I' for Inactive)
REMARK    1  A    between atoms: P_1  and  O_3
REMARK    2  A    between atoms: P_1  and  O_5
REMARK    3  A    between atoms: P_1  and  O_20
REMARK    4  A    between atoms: O_5  and  C_6
REMARK    5  A    between atoms: C_6  and  C_7
REMARK    6  A    between atoms: C_7  and  O_8
REMARK    7  A    between atoms: C_7  and  C_14
REMARK    8  A    between atoms: O_8  and  C_10
REMARK    9  A    between atoms: C_10  and  C_11
REMARK   10  A    between atoms: C_11  and  C_12
REMARK   11  A    between atoms: C_14  and  O_15
REMARK   12  A    between atoms: O_15  and  C_17
REMARK   13  A    between atoms: C_17  and  C_18
REMARK   14  A    between atoms: O_20  and  C_21
REMARK   15  A    between atoms: C_21  and  C_22
REMARK   16  A    between atoms: C_22  and  N_23
REMARK   17  A    between atoms: C_22  and  C_28
REMARK   18  A    between atoms: C_28  and  O_29
REMARK                            x       y       z     vdW  Elec       q    Type
REMARK                         _______ _______ _______ _____ _____    ______ ____
ROOT
ATOM      1  P   UNK     1      36.875 -24.013 -11.776  0.00  0.00    +0.476 P 
ATOM      2  O   UNK     1      35.969 -25.080 -11.232  0.00  0.00    -0.227 OA
ENDROOT
BRANCH   1   3
ATOM      3  O   UNK     1      37.168 -22.804 -10.740  0.00  0.00    -0.302 OA
ATOM      4  H   UNK     1      37.922 -23.037 -10.176  0.00  0.00    +0.222 HD
ENDBRANCH   1   3
BRANCH   1   5
ATOM      5  O   UNK     1      36.304 -23.242 -13.077  0.00  0.00    -0.269 OA
BRANCH   5   6
ATOM      6  C   UNK     1      35.242 -23.848 -13.807  0.00  0.00    +0.201 C 
BRANCH   6   7
ATOM      7  C   UNK     1      35.409 -23.564 -15.296  0.00  0.00    +0.242 C 
BRANCH   7   8
ATOM      8  O   UNK     1      36.006 -22.272 -15.453  0.00  0.00    -0.446 OA
BRANCH   8  10
ATOM      9  O   UNK     1      38.156 -22.915 -15.992  0.00  0.00    -0.250 OA
ATOM     10  C   UNK     1      37.154 -22.242 -16.193  0.00  0.00    +0.317 C 
BRANCH  10  11
ATOM     11  C   UNK     1      36.989 -21.237 -17.310  0.00  0.00    +0.110 C 
BRANCH  11  12
ATOM     12  C   UNK     1      36.131 -21.782 -18.447  0.00  0.00    +0.012 C 
ATOM     13  C   UNK     1      36.487 -21.133 -19.776  0.00  0.00    +0.001 C 
ENDBRANCH  11  12
ENDBRANCH  10  11
ENDBRANCH   8  10
ENDBRANCH   7   8
BRANCH   7  14
ATOM     14  C   UNK     1      34.066 -23.550 -16.013  0.00  0.00    +0.254 C 
BRANCH  14  15
ATOM     15  O   UNK     1      33.023 -23.609 -15.045  0.00  0.00    -0.444 OA
BRANCH  15  17
ATOM     16  O   UNK     1      31.494 -22.898 -16.621  0.00  0.00    -0.250 OA
ATOM     17  C   UNK     1      31.766 -23.327 -15.507  0.00  0.00    +0.317 C 
BRANCH  17  18
ATOM     18  C   UNK     1      30.759 -23.632 -14.422  0.00  0.00    +0.110 C 
ATOM     19  C   UNK     1      31.117 -24.888 -13.648  0.00  0.00    +0.012 C 
ENDBRANCH  17  18
ENDBRANCH  15  17
ENDBRANCH  14  15
ENDBRANCH   7  14
ENDBRANCH   6   7
ENDBRANCH   5   6
ENDBRANCH   1   5
BRANCH   1  20
ATOM     20  O   UNK     1      38.347 -24.531 -12.209  0.00  0.00    -0.275 OA
BRANCH  20  21
ATOM     21  C   UNK     1      38.487 -25.733 -12.946  0.00  0.00    +0.143 C 
BRANCH  21  22
ATOM     22  C   UNK     1      38.903 -25.404 -14.377  0.00  0.00    +0.066 C 
BRANCH  22  23
ATOM     23  N   UNK     1      37.930 -25.960 -15.315  0.00  0.00    +0.390 N 
ATOM     24  H   UNK     1      37.236 -25.249 -15.549  0.00  0.00    -0.088 HD
ATOM     25  H   UNK     1      37.464 -26.761 -14.888  0.00  0.00    -0.088 HD
ATOM     26  H   UNK     1      38.409 -26.260 -16.165  0.00  0.00    -0.088 HD
ENDBRANCH  22  23
BRANCH  22  28
ATOM     27  O   UNK     1      41.042 -26.488 -13.893  0.00  0.00    -0.253 OA
ATOM     28  C   UNK     1      40.248 -26.023 -14.699  0.00  0.00    +0.295 C 
BRANCH  28  29
ATOM     29  O   UNK     1      40.479 -25.991 -16.037  0.00  0.00    -0.482 OA
ATOM     30  H   UNK     1      40.611 -26.791 -16.509  0.00  0.00    +0.295 HD
ENDBRANCH  28  29
ENDBRANCH  22  28
ENDBRANCH  21  22
ENDBRANCH  20  21
ENDBRANCH   1  20
TORSDOF 18
ENDMDL
MODEL 4
REMARK VINA RESULT:      -8.0      2.362      5.376
REMARK  Name = 6323481
REMARK  18 active torsions:
REMARK  status: ('A' for Active; 'I' for Inactive)
REMARK    1  A    between atoms: P_1  and  O_3
REMARK    2  A    between atoms: P_1  and  O_5
REMARK    3  A    between atoms: P_1  and  O_20
REMARK    4  A    between atoms: O_5  and  C_6
REMARK    5  A    between atoms: C_6  and  C_7
REMARK    6  A    between atoms: C_7  and  O_8
REMARK    7  A    between atoms: C_7  and  C_14
REMARK    8  A    between atoms: O_8  and  C_10
REMARK    9  A    between atoms: C_10  and  C_11
REMARK   10  A    between atoms: C_11  and  C_12
REMARK   11  A    between atoms: C_14  and  O_15
REMARK   12  A    between atoms: O_15  and  C_17
REMARK   13  A    between atoms: C_17  and  C_18
REMARK   14  A    between atoms: O_20  and  C_21
REMARK   15  A    between atoms: C_21  and  C_22
REMARK   16  A    between atoms: C_22  and  N_23
REMARK   17  A    between atoms: C_22  and  C_28
REMARK   18  A    between atoms: C_28  and  O_29
REMARK                            x       y       z     vdW  Elec       q    Type
REMARK                         _______ _______ _______ _____ _____    ______ ____
ROOT
ATOM      1  P   UNK     1      35.752 -25.114 -15.052  0.00  0.00    +0.476 P 
ATOM      2  O   UNK     1      36.117 -26.464 -15.600  0.00  0.00    -0.227 OA
ENDROOT
BRANCH   1   3
ATOM      3  O   UNK     1      34.375 -25.098 -14.200  0.00  0.00    -0.302 OA
ATOM      4  H   UNK     1      33.859 -25.894 -14.405  0.00  0.00    +0.222 HD
ENDBRANCH   1   3
BRANCH   1   5
ATOM      5  O   UNK     1      35.497 -23.977 -16.172  0.00  0.00    -0.269 OA
BRANCH   5   6
ATOM      6  C   UNK     1      34.407 -23.080 -15.986  0.00  0.00    +0.201 C 
BRANCH   6   7
ATOM      7  C   UNK     1      33.282 -23.425 -16.955  0.00  0.00    +0.242 C 
BRANCH   7   8
ATOM      8  O   UNK     1      33.228 -22.420 -17.974  0.00  0.00    -0.446 OA
BRANCH   8  10
ATOM      9  O   UNK     1      34.100 -23.787 -19.617  0.00  0.00    -0.250 OA
ATOM     10  C   UNK     1      33.953 -22.687 -19.102  0.00  0.00    +0.317 C 
BRANCH  10  11
ATOM     11  C   UNK     1      34.549 -21.396 -19.616  0.00  0.00    +0.110 C 
BRANCH  11  12
ATOM     12  C   UNK     1      36.068 -21.374 -19.477  0.00  0.00    +0.012 C 
ATOM     13  C   UNK     1      36.677 -20.187 -20.207  0.00  0.00    +0.001 C 
ENDBRANCH  11  12
ENDBRANCH  10  11
ENDBRANCH   8  10
ENDBRANCH   7   8
BRANCH   7  14
ATOM     14  C   UNK     1      31.931 -23.453 -16.253  0.00  0.00    +0.254 C 
BRANCH  14  15
ATOM     15  O   UNK     1      32.135 -23.712 -14.868  0.00  0.00    -0.444 OA
BRANCH  15  17
ATOM     16  O   UNK     1      30.991 -23.632 -12.866  0.00  0.00    -0.250 OA
ATOM     17  C   UNK     1      31.011 -23.695 -14.087  0.00  0.00    +0.317 C 
BRANCH  17  18
ATOM     18  C   UNK     1      29.790 -23.764 -14.975  0.00  0.00    +0.110 C 
ATOM     19  C   UNK     1      29.007 -25.049 -14.771  0.00  0.00    +0.012 C 
ENDBRANCH  17  18
ENDBRANCH  15  17
ENDBRANCH  14  15
ENDBRANCH   7  14
ENDBRANCH   6   7
ENDBRANCH   5   6
ENDBRANCH   1   5
BRANCH   1  20
ATOM     20  O   UNK     1      36.848 -24.473 -14.047  0.00  0.00    -0.275 OA
BRANCH  20  21
ATOM     21  C   UNK     1      36.566 -23.260 -13.370  0.00  0.00    +0.143 C 
BRANCH  21  22
ATOM     22  C   UNK     1      36.861 -23.430 -11.882  0.00  0.00    +0.066 C 
BRANCH  22  23
ATOM     23  N   UNK     1      37.898 -24.442 -11.696  0.00  0.00    +0.390 N 
ATOM     24  H   UNK     1      38.144 -24.500 -10.707  0.00  0.00    -0.088 HD
ATOM     25  H   UNK     1      38.724 -24.187 -12.237  0.00  0.00    -0.088 HD
ATOM     26  H   UNK     1      37.551 -25.347 -12.013  0.00  0.00    -0.088 HD
ENDBRANCH  22  23
BRANCH  22  28
ATOM     27  O   UNK     1      35.596 -24.412 -10.031  0.00  0.00    -0.253 OA
ATOM     28  C   UNK     1      35.625 -23.905 -11.144  0.00  0.00    +0.295 C 
BRANCH  28  29
ATOM     29  O   UNK     1      34.512 -23.698 -11.895  0.00  0.00    -0.482 OA
ATOM     30  H   UNK     1      34.258 -24.331 -12.539  0.00  0.00    +0.295 HD
ENDBRANCH  28  29
ENDBRANCH  22  28
ENDBRANCH  21  22
ENDBRANCH  20  21
ENDBRANCH   1  20
TORSDOF 18
ENDMDL
MODEL 5
REMARK VINA RESULT:      -7.8      1.399      4.045
REMARK  Name = 6323481
REMARK  18 active torsions:
REMARK  status: ('A' for Active; 'I' for Inactive)
REMARK    1  A    between atoms: P_1  and  O_3
REMARK    2  A    between atoms: P_1  and  O_5
REMARK    3  A    between atoms: P_1  and  O_20
REMARK    4  A    between atoms: O_5  and  C_6
REMARK    5  A    between atoms: C_6  and  C_7
REMARK    6  A    between atoms: C_7  and  O_8
REMARK    7  A    between atoms: C_7  and  C_14
REMARK    8  A    between atoms: O_8  and  C_10
REMARK    9  A    between atoms: C_10  and  C_11
REMARK   10  A    between atoms: C_11  and  C_12
REMARK   11  A    between atoms: C_14  and  O_15
REMARK   12  A    between atoms: O_15  and  C_17
REMARK   13  A    between atoms: C_17  and  C_18
REMARK   14  A    between atoms: O_20  and  C_21
REMARK   15  A    between atoms: C_21  and  C_22
REMARK   16  A    between atoms: C_22  and  N_23
REMARK   17  A    between atoms: C_22  and  C_28
REMARK   18  A    between atoms: C_28  and  O_29
REMARK                            x       y       z     vdW  Elec       q    Type
REMARK                         _______ _______ _______ _____ _____    ______ ____
ROOT
ATOM      1  P   UNK     1      35.901 -24.522 -13.169  0.00  0.00    +0.476 P 
ATOM      2  O   UNK     1      34.767 -24.649 -12.193  0.00  0.00    -0.227 OA
ENDROOT
BRANCH   1   3
ATOM      3  O   UNK     1      36.741 -23.145 -13.031  0.00  0.00    -0.302 OA
ATOM      4  H   UNK     1      36.206 -22.407 -13.361  0.00  0.00    +0.222 HD
ENDBRANCH   1   3
BRANCH   1   5
ATOM      5  O   UNK     1      35.456 -24.520 -14.723  0.00  0.00    -0.269 OA
BRANCH   5   6
ATOM      6  C   UNK     1      35.040 -23.288 -15.303  0.00  0.00    +0.201 C 
BRANCH   6   7
ATOM      7  C   UNK     1      34.166 -23.559 -16.523  0.00  0.00    +0.242 C 
BRANCH   7   8
ATOM      8  O   UNK     1      34.517 -22.631 -17.555  0.00  0.00    -0.446 OA
BRANCH   8  10
ATOM      9  O   UNK     1      33.970 -23.955 -19.365  0.00  0.00    -0.250 OA
ATOM     10  C   UNK     1      33.967 -22.879 -18.781  0.00  0.00    +0.317 C 
BRANCH  10  11
ATOM     11  C   UNK     1      33.348 -21.604 -19.306  0.00  0.00    +0.110 C 
BRANCH  11  12
ATOM     12  C   UNK     1      34.349 -20.768 -20.098  0.00  0.00    +0.012 C 
ATOM     13  C   UNK     1      33.665 -19.618 -20.822  0.00  0.00    +0.001 C 
ENDBRANCH  11  12
ENDBRANCH  10  11
ENDBRANCH   8  10
ENDBRANCH   7   8
BRANCH   7  14
ATOM     14  C   UNK     1      32.690 -23.369 -16.203  0.00  0.00    +0.254 C 
BRANCH  14  15
ATOM     15  O   UNK     1      32.550 -23.088 -14.814  0.00  0.00    -0.444 OA
BRANCH  15  17
ATOM     16  O   UNK     1      31.679 -24.565 -13.269  0.00  0.00    -0.250 OA
ATOM     17  C   UNK     1      31.539 -23.751 -14.172  0.00  0.00    +0.317 C 
BRANCH  17  18
ATOM     18  C   UNK     1      30.214 -23.317 -14.754  0.00  0.00    +0.110 C 
ATOM     19  C   UNK     1      29.312 -24.498 -15.067  0.00  0.00    +0.012 C 
ENDBRANCH  17  18
ENDBRANCH  15  17
ENDBRANCH  14  15
ENDBRANCH   7  14
ENDBRANCH   6   7
ENDBRANCH   5   6
ENDBRANCH   1   5
BRANCH   1  20
ATOM     20  O   UNK     1      37.023 -25.685 -13.057  0.00  0.00    -0.275 OA
BRANCH  20  21
ATOM     21  C   UNK     1      37.748 -26.084 -14.208  0.00  0.00    +0.143 C 
BRANCH  21  22
ATOM     22  C   UNK     1      38.928 -25.137 -14.415  0.00  0.00    +0.066 C 
BRANCH  22  23
ATOM     23  N   UNK     1      38.640 -24.222 -15.517  0.00  0.00    +0.390 N 
ATOM     24  H   UNK     1      39.509 -23.983 -15.998  0.00  0.00    -0.088 HD
ATOM     25  H   UNK     1      38.210 -23.372 -15.151  0.00  0.00    -0.088 HD
ATOM     26  H   UNK     1      38.001 -24.669 -16.174  0.00  0.00    -0.088 HD
ENDBRANCH  22  23
BRANCH  22  28
ATOM     27  O   UNK     1      40.934 -26.479 -14.009  0.00  0.00    -0.253 OA
ATOM     28  C   UNK     1      40.177 -25.914 -14.785  0.00  0.00    +0.295 C 
BRANCH  28  29
ATOM     29  O   UNK     1      40.365 -25.900 -16.130  0.00  0.00    -0.482 OA
ATOM     30  H   UNK     1      39.865 -25.316 -16.668  0.00  0.00    +0.295 HD
ENDBRANCH  28  29
ENDBRANCH  22  28
ENDBRANCH  21  22
ENDBRANCH  20  21
ENDBRANCH   1  20
TORSDOF 18
ENDMDL
MODEL 6
REMARK VINA RESULT:      -7.7      3.318      7.893
REMARK  Name = 6323481
REMARK  18 active torsions:
REMARK  status: ('A' for Active; 'I' for Inactive)
REMARK    1  A    between atoms: P_1  and  O_3
REMARK    2  A    between atoms: P_1  and  O_5
REMARK    3  A    between atoms: P_1  and  O_20
REMARK    4  A    between atoms: O_5  and  C_6
REMARK    5  A    between atoms: C_6  and  C_7
REMARK    6  A    between atoms: C_7  and  O_8
REMARK    7  A    between atoms: C_7  and  C_14
REMARK    8  A    between atoms: O_8  and  C_10
REMARK    9  A    between atoms: C_10  and  C_11
REMARK   10  A    between atoms: C_11  and  C_12
REMARK   11  A    between atoms: C_14  and  O_15
REMARK   12  A    between atoms: O_15  and  C_17
REMARK   13  A    between atoms: C_17  and  C_18
REMARK   14  A    between atoms: O_20  and  C_21
REMARK   15  A    between atoms: C_21  and  C_22
REMARK   16  A    between atoms: C_22  and  N_23
REMARK   17  A    between atoms: C_22  and  C_28
REMARK   18  A    between atoms: C_28  and  O_29
REMARK                            x       y       z     vdW  Elec       q    Type
REMARK                         _______ _______ _______ _____ _____    ______ ____
ROOT
ATOM      1  P   UNK     1      30.594 -24.618 -14.278  0.00  0.00    +0.476 P 
ATOM      2  O   UNK     1      30.933 -24.437 -12.826  0.00  0.00    -0.227 OA
ENDROOT
BRANCH   1   3
ATOM      3  O   UNK     1      30.156 -26.126 -14.671  0.00  0.00    -0.302 OA
ATOM      4  H   UNK     1      29.581 -26.101 -15.451  0.00  0.00    +0.222 HD
ENDBRANCH   1   3
BRANCH   1   5
ATOM      5  O   UNK     1      31.813 -24.319 -15.297  0.00  0.00    -0.269 OA
BRANCH   5   6
ATOM      6  C   UNK     1      32.636 -23.185 -15.048  0.00  0.00    +0.201 C 
BRANCH   6   7
ATOM      7  C   UNK     1      34.053 -23.455 -15.543  0.00  0.00    +0.242 C 
BRANCH   7   8
ATOM      8  O   UNK     1      34.004 -23.733 -16.947  0.00  0.00    -0.446 OA
BRANCH   8  10
ATOM      9  O   UNK     1      35.680 -22.360 -17.742  0.00  0.00    -0.250 OA
ATOM     10  C   UNK     1      34.525 -22.763 -17.757  0.00  0.00    +0.317 C 
BRANCH  10  11
ATOM     11  C   UNK     1      33.439 -22.262 -18.681  0.00  0.00    +0.110 C 
BRANCH  11  12
ATOM     12  C   UNK     1      33.985 -21.308 -19.739  0.00  0.00    +0.012 C 
ATOM     13  C   UNK     1      32.924 -20.320 -20.200  0.00  0.00    +0.001 C 
ENDBRANCH  11  12
ENDBRANCH  10  11
ENDBRANCH   8  10
ENDBRANCH   7   8
BRANCH   7  14
ATOM     14  C   UNK     1      34.664 -24.663 -14.847  0.00  0.00    +0.254 C 
BRANCH  14  15
ATOM     15  O   UNK     1      35.832 -25.064 -15.558  0.00  0.00    -0.444 OA
BRANCH  15  17
ATOM     16  O   UNK     1      37.735 -23.775 -15.353  0.00  0.00    -0.250 OA
ATOM     17  C   UNK     1      37.025 -24.703 -14.992  0.00  0.00    +0.317 C 
BRANCH  17  18
ATOM     18  C   UNK     1      37.330 -25.635 -13.841  0.00  0.00    +0.110 C 
ATOM     19  C   UNK     1      38.601 -25.243 -13.110  0.00  0.00    +0.012 C 
ENDBRANCH  17  18
ENDBRANCH  15  17
ENDBRANCH  14  15
ENDBRANCH   7  14
ENDBRANCH   6   7
ENDBRANCH   5   6
ENDBRANCH   1   5
BRANCH   1  20
ATOM     20  O   UNK     1      29.371 -23.698 -14.807  0.00  0.00    -0.275 OA
BRANCH  20  21
ATOM     21  C   UNK     1      28.464 -24.208 -15.768  0.00  0.00    +0.143 C 
BRANCH  21  22
ATOM     22  C   UNK     1      28.395 -23.253 -16.957  0.00  0.00    +0.066 C 
BRANCH  22  23
ATOM     23  N   UNK     1      29.649 -22.510 -17.069  0.00  0.00    +0.390 N 
ATOM     24  H   UNK     1      29.504 -21.680 -17.644  0.00  0.00    -0.088 HD
ATOM     25  H   UNK     1      30.359 -23.103 -17.501  0.00  0.00    -0.088 HD
ATOM     26  H   UNK     1      29.962 -22.229 -16.140  0.00  0.00    -0.088 HD
ENDBRANCH  22  23
BRANCH  22  28
ATOM     27  O   UNK     1      26.977 -21.346 -17.540  0.00  0.00    -0.253 OA
ATOM     28  C   UNK     1      27.284 -22.240 -16.764  0.00  0.00    +0.295 C 
BRANCH  28  29
ATOM     29  O   UNK     1      26.651 -22.447 -15.580  0.00  0.00    -0.482 OA
ATOM     30  H   UNK     1      26.760 -23.261 -15.127  0.00  0.00    +0.295 HD
ENDBRANCH  28  29
ENDBRANCH  22  28
ENDBRANCH  21  22
ENDBRANCH  20  21
ENDBRANCH   1  20
TORSDOF 18
ENDMDL
MODEL 7
REMARK VINA RESULT:      -7.7      1.949      2.699
REMARK  Name = 6323481
REMARK  18 active torsions:
REMARK  status: ('A' for Active; 'I' for Inactive)
REMARK    1  A    between atoms: P_1  and  O_3
REMARK    2  A    between atoms: P_1  and  O_5
REMARK    3  A    between atoms: P_1  and  O_20
REMARK    4  A    between atoms: O_5  and  C_6
REMARK    5  A    between atoms: C_6  and  C_7
REMARK    6  A    between atoms: C_7  and  O_8
REMARK    7  A    between atoms: C_7  and  C_14
REMARK    8  A    between atoms: O_8  and  C_10
REMARK    9  A    between atoms: C_10  and  C_11
REMARK   10  A    between atoms: C_11  and  C_12
REMARK   11  A    between atoms: C_14  and  O_15
REMARK   12  A    between atoms: O_15  and  C_17
REMARK   13  A    between atoms: C_17  and  C_18
REMARK   14  A    between atoms: O_20  and  C_21
REMARK   15  A    between atoms: C_21  and  C_22
REMARK   16  A    between atoms: C_22  and  N_23
REMARK   17  A    between atoms: C_22  and  C_28
REMARK   18  A    between atoms: C_28  and  O_29
REMARK                            x       y       z     vdW  Elec       q    Type
REMARK                         _______ _______ _______ _____ _____    ______ ____
ROOT
ATOM      1  P   UNK     1      36.591 -23.238 -15.153  0.00  0.00    +0.476 P 
ATOM      2  O   UNK     1      36.188 -22.999 -13.726  0.00  0.00    -0.227 OA
ENDROOT
BRANCH   1   3
ATOM      3  O   UNK     1      37.133 -21.917 -15.916  0.00  0.00    -0.302 OA
ATOM      4  H   UNK     1      36.707 -21.849 -16.785  0.00  0.00    +0.222 HD
ENDBRANCH   1   3
BRANCH   1   5
ATOM      5  O   UNK     1      35.397 -23.747 -16.115  0.00  0.00    -0.269 OA
BRANCH   5   6
ATOM      6  C   UNK     1      34.071 -23.756 -15.597  0.00  0.00    +0.201 C 
BRANCH   6   7
ATOM      7  C   UNK     1      33.116 -23.132 -16.608  0.00  0.00    +0.242 C 
BRANCH   7   8
ATOM      8  O   UNK     1      31.843 -23.780 -16.499  0.00  0.00    -0.446 OA
BRANCH   8  10
ATOM      9  O   UNK     1      30.163 -22.326 -17.124  0.00  0.00    -0.250 OA
ATOM     10  C   UNK     1      30.780 -22.953 -16.272  0.00  0.00    +0.317 C 
BRANCH  10  11
ATOM     11  C   UNK     1      30.483 -22.934 -14.790  0.00  0.00    +0.110 C 
BRANCH  11  12
ATOM     12  C   UNK     1      30.313 -24.341 -14.224  0.00  0.00    +0.012 C 
ATOM     13  C   UNK     1      29.072 -25.020 -14.781  0.00  0.00    +0.001 C 
ENDBRANCH  11  12
ENDBRANCH  10  11
ENDBRANCH   8  10
ENDBRANCH   7   8
BRANCH   7  14
ATOM     14  C   UNK     1      33.616 -23.317 -18.034  0.00  0.00    +0.254 C 
BRANCH  14  15
ATOM     15  O   UNK     1      32.975 -22.363 -18.876  0.00  0.00    -0.444 OA
BRANCH  15  17
ATOM     16  O   UNK     1      35.025 -21.468 -19.447  0.00  0.00    -0.250 OA
ATOM     17  C   UNK     1      33.802 -21.455 -19.482  0.00  0.00    +0.317 C 
BRANCH  17  18
ATOM     18  C   UNK     1      32.963 -20.430 -20.210  0.00  0.00    +0.110 C 
ATOM     19  C   UNK     1      33.806 -19.520 -21.086  0.00  0.00    +0.012 C 
ENDBRANCH  17  18
ENDBRANCH  15  17
ENDBRANCH  14  15
ENDBRANCH   7  14
ENDBRANCH   6   7
ENDBRANCH   5   6
ENDBRANCH   1   5
BRANCH   1  20
ATOM     20  O   UNK     1      37.777 -24.323 -15.348  0.00  0.00    -0.275 OA
BRANCH  20  21
ATOM     21  C   UNK     1      37.655 -25.616 -14.780  0.00  0.00    +0.143 C 
BRANCH  21  22
ATOM     22  C   UNK     1      38.736 -25.807 -13.719  0.00  0.00    +0.066 C 
BRANCH  22  23
ATOM     23  N   UNK     1      38.691 -24.704 -12.762  0.00  0.00    +0.390 N 
ATOM     24  H   UNK     1      39.628 -24.531 -12.396  0.00  0.00    -0.088 HD
ATOM     25  H   UNK     1      38.065 -24.946 -11.993  0.00  0.00    -0.088 HD
ATOM     26  H   UNK     1      38.347 -23.864 -13.227  0.00  0.00    -0.088 HD
ENDBRANCH  22  23
BRANCH  22  28
ATOM     27  O   UNK     1      40.652 -26.741 -14.921  0.00  0.00    -0.253 OA
ATOM     28  C   UNK     1      40.113 -25.802 -14.353  0.00  0.00    +0.295 C 
BRANCH  28  29
ATOM     29  O   UNK     1      40.702 -24.587 -14.202  0.00  0.00    -0.482 OA
ATOM     30  H   UNK     1      40.774 -24.007 -14.935  0.00  0.00    +0.295 HD
ENDBRANCH  28  29
ENDBRANCH  22  28
ENDBRANCH  21  22
ENDBRANCH  20  21
ENDBRANCH   1  20
TORSDOF 18
ENDMDL
MODEL 8
REMARK VINA RESULT:      -7.7      1.546      3.610
REMARK  Name = 6323481
REMARK  18 active torsions:
REMARK  status: ('A' for Active; 'I' for Inactive)
REMARK    1  A    between atoms: P_1  and  O_3
REMARK    2  A    between atoms: P_1  and  O_5
REMARK    3  A    between atoms: P_1  and  O_20
REMARK    4  A    between atoms: O_5  and  C_6
REMARK    5  A    between atoms: C_6  and  C_7
REMARK    6  A    between atoms: C_7  and  O_8
REMARK    7  A    between atoms: C_7  and  C_14
REMARK    8  A    between atoms: O_8  and  C_10
REMARK    9  A    between atoms: C_10  and  C_11
REMARK   10  A    between atoms: C_11  and  C_12
REMARK   11  A    between atoms: C_14  and  O_15
REMARK   12  A    between atoms: O_15  and  C_17
REMARK   13  A    between atoms: C_17  and  C_18
REMARK   14  A    between atoms: O_20  and  C_21
REMARK   15  A    between atoms: C_21  and  C_22
REMARK   16  A    between atoms: C_22  and  N_23
REMARK   17  A    between atoms: C_22  and  C_28
REMARK   18  A    between atoms: C_28  and  O_29
REMARK                            x       y       z     vdW  Elec       q    Type
REMARK                         _______ _______ _______ _____ _____    ______ ____
ROOT
ATOM      1  P   UNK     1      36.344 -24.412 -11.657  0.00  0.00    +0.476 P 
ATOM      2  O   UNK     1      35.401 -25.081 -10.698  0.00  0.00    -0.227 OA
ENDROOT
BRANCH   1   3
ATOM      3  O   UNK     1      37.186 -23.189 -11.012  0.00  0.00    -0.302 OA
ATOM      4  H   UNK     1      37.763 -23.530 -10.311  0.00  0.00    +0.222 HD
ENDBRANCH   1   3
BRANCH   1   5
ATOM      5  O   UNK     1      35.632 -23.726 -12.935  0.00  0.00    -0.269 OA
BRANCH   5   6
ATOM      6  C   UNK     1      34.211 -23.769 -13.018  0.00  0.00    +0.201 C 
BRANCH   6   7
ATOM      7  C   UNK     1      33.789 -24.290 -14.388  0.00  0.00    +0.242 C 
BRANCH   7   8
ATOM      8  O   UNK     1      33.655 -23.178 -15.281  0.00  0.00    -0.446 OA
BRANCH   8  10
ATOM      9  O   UNK     1      35.627 -23.425 -16.453  0.00  0.00    -0.250 OA
ATOM     10  C   UNK     1      34.419 -23.238 -16.412  0.00  0.00    +0.317 C 
BRANCH  10  11
ATOM     11  C   UNK     1      33.527 -23.034 -17.615  0.00  0.00    +0.110 C 
BRANCH  11  12
ATOM     12  C   UNK     1      34.266 -22.357 -18.766  0.00  0.00    +0.012 C 
ATOM     13  C   UNK     1      33.361 -21.395 -19.520  0.00  0.00    +0.001 C 
ENDBRANCH  11  12
ENDBRANCH  10  11
ENDBRANCH   8  10
ENDBRANCH   7   8
BRANCH   7  14
ATOM     14  C   UNK     1      32.445 -25.003 -14.322  0.00  0.00    +0.254 C 
BRANCH  14  15
ATOM     15  O   UNK     1      31.457 -24.185 -14.941  0.00  0.00    -0.444 OA
BRANCH  15  17
ATOM     16  O   UNK     1      30.603 -23.631 -12.870  0.00  0.00    -0.250 OA
ATOM     17  C   UNK     1      30.583 -23.562 -14.092  0.00  0.00    +0.317 C 
BRANCH  17  18
ATOM     18  C   UNK     1      29.584 -22.769 -14.902  0.00  0.00    +0.110 C 
ATOM     19  C   UNK     1      29.862 -22.853 -16.393  0.00  0.00    +0.012 C 
ENDBRANCH  17  18
ENDBRANCH  15  17
ENDBRANCH  14  15
ENDBRANCH   7  14
ENDBRANCH   6   7
ENDBRANCH   5   6
ENDBRANCH   1   5
BRANCH   1  20
ATOM     20  O   UNK     1      37.476 -25.387 -12.283  0.00  0.00    -0.275 OA
BRANCH  20  21
ATOM     21  C   UNK     1      38.666 -24.837 -12.821  0.00  0.00    +0.143 C 
BRANCH  21  22
ATOM     22  C   UNK     1      38.630 -24.945 -14.344  0.00  0.00    +0.066 C 
BRANCH  22  23
ATOM     23  N   UNK     1      37.932 -23.789 -14.905  0.00  0.00    +0.390 N 
ATOM     24  H   UNK     1      37.824 -23.074 -14.185  0.00  0.00    -0.088 HD
ATOM     25  H   UNK     1      37.012 -24.076 -15.239  0.00  0.00    -0.088 HD
ATOM     26  H   UNK     1      38.473 -23.410 -15.682  0.00  0.00    -0.088 HD
ENDBRANCH  22  23
BRANCH  22  28
ATOM     27  O   UNK     1      38.293 -27.333 -14.760  0.00  0.00    -0.253 OA
ATOM     28  C   UNK     1      37.871 -26.185 -14.774  0.00  0.00    +0.295 C 
BRANCH  28  29
ATOM     29  O   UNK     1      36.624 -25.856 -15.200  0.00  0.00    -0.482 OA
ATOM     30  H   UNK     1      36.192 -25.102 -14.848  0.00  0.00    +0.295 HD
ENDBRANCH  28  29
ENDBRANCH  22  28
ENDBRANCH  21  22
ENDBRANCH  20  21
ENDBRANCH   1  20
TORSDOF 18
ENDMDL
MODEL 9
REMARK VINA RESULT:      -7.7      2.496      4.886
REMARK  Name = 6323481
REMARK  18 active torsions:
REMARK  status: ('A' for Active; 'I' for Inactive)
REMARK    1  A    between atoms: P_1  and  O_3
REMARK    2  A    between atoms: P_1  and  O_5
REMARK    3  A    between atoms: P_1  and  O_20
REMARK    4  A    between atoms: O_5  and  C_6
REMARK    5  A    between atoms: C_6  and  C_7
REMARK    6  A    between atoms: C_7  and  O_8
REMARK    7  A    between atoms: C_7  and  C_14
REMARK    8  A    between atoms: O_8  and  C_10
REMARK    9  A    between atoms: C_10  and  C_11
REMARK   10  A    between atoms: C_11  and  C_12
REMARK   11  A    between atoms: C_14  and  O_15
REMARK   12  A    between atoms: O_15  and  C_17
REMARK   13  A    between atoms: C_17  and  C_18
REMARK   14  A    between atoms: O_20  and  C_21
REMARK   15  A    between atoms: C_21  and  C_22
REMARK   16  A    between atoms: C_22  and  N_23
REMARK   17  A    between atoms: C_22  and  C_28
REMARK   18  A    between atoms: C_28  and  O_29
REMARK                            x       y       z     vdW  Elec       q    Type
REMARK                         _______ _______ _______ _____ _____    ______ ____
ROOT
ATOM      1  P   UNK     1      36.842 -24.618 -15.106  0.00  0.00    +0.476 P 
ATOM      2  O   UNK     1      38.004 -23.762 -14.691  0.00  0.00    -0.227 OA
ENDROOT
BRANCH   1   3
ATOM      3  O   UNK     1      37.267 -26.017 -15.800  0.00  0.00    -0.302 OA
ATOM      4  H   UNK     1      38.004 -26.412 -15.307  0.00  0.00    +0.222 HD
ENDBRANCH   1   3
BRANCH   1   5
ATOM      5  O   UNK     1      35.870 -23.948 -16.209  0.00  0.00    -0.269 OA
BRANCH   5   6
ATOM      6  C   UNK     1      34.705 -23.267 -15.756  0.00  0.00    +0.201 C 
BRANCH   6   7
ATOM      7  C   UNK     1      33.572 -23.457 -16.759  0.00  0.00    +0.242 C 
BRANCH   7   8
ATOM      8  O   UNK     1      33.597 -22.370 -17.691  0.00  0.00    -0.446 OA
BRANCH   8  10
ATOM      9  O   UNK     1      33.963 -23.818 -19.451  0.00  0.00    -0.250 OA
ATOM     10  C   UNK     1      33.975 -22.695 -18.963  0.00  0.00    +0.317 C 
BRANCH  10  11
ATOM     11  C   UNK     1      34.416 -21.439 -19.679  0.00  0.00    +0.110 C 
BRANCH  11  12
ATOM     12  C   UNK     1      33.231 -20.653 -20.234  0.00  0.00    +0.012 C 
ATOM     13  C   UNK     1      33.682 -19.366 -20.908  0.00  0.00    +0.001 C 
ENDBRANCH  11  12
ENDBRANCH  10  11
ENDBRANCH   8  10
ENDBRANCH   7   8
BRANCH   7  14
ATOM     14  C   UNK     1      32.214 -23.454 -16.072  0.00  0.00    +0.254 C 
BRANCH  14  15
ATOM     15  O   UNK     1      31.276 -22.779 -16.904  0.00  0.00    -0.444 OA
BRANCH  15  17
ATOM     16  O   UNK     1      29.016 -22.343 -17.081  0.00  0.00    -0.250 OA
ATOM     17  C   UNK     1      29.975 -22.804 -16.477  0.00  0.00    +0.317 C 
BRANCH  17  18
ATOM     18  C   UNK     1      29.907 -23.498 -15.136  0.00  0.00    +0.110 C 
ATOM     19  C   UNK     1      28.993 -24.709 -15.165  0.00  0.00    +0.012 C 
ENDBRANCH  17  18
ENDBRANCH  15  17
ENDBRANCH  14  15
ENDBRANCH   7  14
ENDBRANCH   6   7
ENDBRANCH   5   6
ENDBRANCH   1   5
BRANCH   1  20
ATOM     20  O   UNK     1      35.860 -25.058 -13.895  0.00  0.00    -0.275 OA
BRANCH  20  21
ATOM     21  C   UNK     1      36.405 -25.449 -12.647  0.00  0.00    +0.143 C 
BRANCH  21  22
ATOM     22  C   UNK     1      36.088 -24.384 -11.600  0.00  0.00    +0.066 C 
BRANCH  22  23
ATOM     23  N   UNK     1      34.966 -23.564 -12.052  0.00  0.00    +0.390 N 
ATOM     24  H   UNK     1      34.258 -23.521 -11.318  0.00  0.00    -0.088 HD
ATOM     25  H   UNK     1      34.560 -23.976 -12.892  0.00  0.00    -0.088 HD
ATOM     26  H   UNK     1      35.295 -22.622 -12.261  0.00  0.00    -0.088 HD
ENDBRANCH  22  23
BRANCH  22  28
ATOM     27  O   UNK     1      37.230 -22.290 -11.050  0.00  0.00    -0.253 OA
ATOM     28  C   UNK     1      37.274 -23.460 -11.403  0.00  0.00    +0.295 C 
BRANCH  28  29
ATOM     29  O   UNK     1      38.434 -24.109 -11.682  0.00  0.00    -0.482 OA
ATOM     30  H   UNK     1      38.520 -24.593 -12.481  0.00  0.00    +0.295 HD
ENDBRANCH  28  29
ENDBRANCH  22  28
ENDBRANCH  21  22
ENDBRANCH  20  21
ENDBRANCH   1  20
TORSDOF 18
ENDMDL
