MODEL 1
REMARK VINA RESULT:     -10.3      0.000      0.000
REMARK  Name = 3062316
REMARK  5 active torsions:
REMARK  status: ('A' for Active; 'I' for Inactive)
REMARK    1  A    between atoms: C_5  and  C_28
REMARK    2  A    between atoms: N_8  and  C_22
REMARK    3  A    between atoms: C_22  and  C_23
REMARK    4  A    between atoms: C_23  and  O_24
REMARK    5  A    between atoms: N_27  and  C_31
REMARK                            x       y       z     vdW  Elec       q    Type
REMARK                         _______ _______ _______ _____ _____    ______ ____
ROOT
ATOM      1  S   UNL     1      33.659 -15.785 -21.954  0.00  0.00    -0.047 S 
ATOM      2  N   UNL     1      33.669 -13.266 -22.810  0.00  0.00    -0.271 N 
ATOM      3  N   UNL     1      34.804 -14.894 -24.094  0.00  0.00    -0.222 NA
ATOM      4  C   UNL     1      34.086 -14.542 -23.055  0.00  0.00    +0.165 C 
ATOM      5  C   UNL     1      34.502 -16.907 -22.939  0.00  0.00    +0.105 C 
ATOM      6  C   UNL     1      35.043 -16.253 -24.027  0.00  0.00    +0.112 C 
ATOM      7  H   UNL     1      33.229 -13.129 -21.940  0.00  0.00    +0.156 HD
ATOM      8  N   UNL     1      31.281  -6.195 -22.981  0.00  0.00    +0.391 N 
ATOM      9  N   UNL     1      32.616  -8.651 -23.571  0.00  0.00    -0.290 N 
ATOM     10  N   UNL     1      33.954  -9.857 -25.152  0.00  0.00    -0.333 NA
ATOM     11  N   UNL     1      34.480 -12.177 -24.765  0.00  0.00    -0.332 NA
ATOM     12  C   UNL     1      30.757  -7.468 -22.470  0.00  0.00    -0.055 C 
ATOM     13  C   UNL     1      32.747  -6.247 -23.043  0.00  0.00    -0.055 C 
ATOM     14  C   UNL     1      31.163  -8.634 -23.374  0.00  0.00    +0.070 C 
ATOM     15  C   UNL     1      33.219  -7.371 -23.968  0.00  0.00    +0.070 C 
ATOM     16  C   UNL     1      33.247  -9.830 -23.983  0.00  0.00    +0.181 C 
ATOM     17  C   UNL     1      33.137 -10.965 -23.177  0.00  0.00    +0.151 C 
ATOM     18  C   UNL     1      33.774 -12.108 -23.618  0.00  0.00    +0.183 C 
ATOM     19  C   UNL     1      34.529 -11.031 -25.473  0.00  0.00    +0.117 C 
ATOM     20  C   UNL     1      35.302 -11.068 -26.747  0.00  0.00    +0.143 C 
ATOM     21  H   UNL     1      30.917  -6.045 -23.923  0.00  0.00    -0.079 HD
ENDROOT
BRANCH   5  24
ATOM     22  O   UNL     1      34.576 -19.211 -23.418  0.00  0.00    -0.269 OA
ATOM     23  N   UNL     1      34.637 -18.558 -21.188  0.00  0.00    -0.280 N 
ATOM     24  C   UNL     1      34.559 -18.282 -22.574  0.00  0.00    +0.257 C 
ATOM     25  H   UNL     1      34.617 -17.768 -20.601  0.00  0.00    +0.155 HD
BRANCH  23  27
ATOM     26 CL   UNL     1      37.454 -19.520 -20.643  0.00  0.00    -0.081 Cl
ATOM     27  C   UNL     1      34.740 -19.805 -20.520  0.00  0.00    +0.057 C 
ATOM     28  C   UNL     1      33.577 -20.475 -20.174  0.00  0.00    -0.008 C 
ATOM     29  C   UNL     1      35.988 -20.332 -20.225  0.00  0.00    +0.071 C 
ATOM     30  C   UNL     1      33.663 -21.702 -19.516  0.00  0.00    -0.003 C 
ATOM     31  C   UNL     1      32.223 -19.921 -20.484  0.00  0.00    +0.032 C 
ATOM     32  C   UNL     1      36.074 -21.559 -19.567  0.00  0.00    +0.013 C 
ATOM     33  C   UNL     1      34.912 -22.244 -19.213  0.00  0.00    +0.001 C 
ENDBRANCH  23  27
ENDBRANCH   5  24
BRANCH   8  34
ATOM     34  C   UNL     1      30.842  -5.084 -22.139  0.00  0.00    -0.045 C 
BRANCH  34  35
ATOM     35  C   UNL     1      31.058  -3.756 -22.847  0.00  0.00    +0.115 C 
BRANCH  35  36
ATOM     36  O   UNL     1      30.177  -2.791 -22.287  0.00  0.00    -0.384 OA
ATOM     37  H   UNL     1      29.420  -3.241 -21.881  0.00  0.00    +0.210 HD
ENDBRANCH  35  36
ENDBRANCH  34  35
ENDBRANCH   8  34
TORSDOF 5
ENDMDL
MODEL 2
REMARK VINA RESULT:     -10.2      2.131      3.057
REMARK  Name = 3062316
REMARK  5 active torsions:
REMARK  status: ('A' for Active; 'I' for Inactive)
REMARK    1  A    between atoms: C_5  and  C_28
REMARK    2  A    between atoms: N_8  and  C_22
REMARK    3  A    between atoms: C_22  and  C_23
REMARK    4  A    between atoms: C_23  and  O_24
REMARK    5  A    between atoms: N_27  and  C_31
REMARK                            x       y       z     vdW  Elec       q    Type
REMARK                         _______ _______ _______ _____ _____    ______ ____
ROOT
ATOM      1  S   UNL     1      34.133 -15.214 -23.323  0.00  0.00    -0.047 S 
ATOM      2  N   UNL     1      33.150 -12.758 -23.036  0.00  0.00    -0.271 N 
ATOM      3  N   UNL     1      32.765 -14.332 -21.314  0.00  0.00    -0.222 NA
ATOM      4  C   UNL     1      33.271 -13.998 -22.477  0.00  0.00    +0.165 C 
ATOM      5  C   UNL     1      33.813 -16.297 -22.032  0.00  0.00    +0.105 C 
ATOM      6  C   UNL     1      33.076 -15.653 -21.059  0.00  0.00    +0.112 C 
ATOM      7  H   UNL     1      33.488 -12.681 -23.958  0.00  0.00    +0.156 HD
ATOM      8  N   UNL     1      32.578  -5.495 -24.662  0.00  0.00    +0.391 N 
ATOM      9  N   UNL     1      32.322  -8.051 -23.412  0.00  0.00    -0.290 N 
ATOM     10  N   UNL     1      31.589  -9.251 -21.472  0.00  0.00    -0.333 NA
ATOM     11  N   UNL     1      32.008 -11.617 -21.287  0.00  0.00    -0.332 NA
ATOM     12  C   UNL     1      33.550  -6.559 -24.939  0.00  0.00    -0.055 C 
ATOM     13  C   UNL     1      31.251  -6.079 -24.431  0.00  0.00    -0.055 C 
ATOM     14  C   UNL     1      33.648  -7.536 -23.765  0.00  0.00    +0.070 C 
ATOM     15  C   UNL     1      31.272  -7.038 -23.239  0.00  0.00    +0.070 C 
ATOM     16  C   UNL     1      32.210  -9.244 -22.689  0.00  0.00    +0.181 C 
ATOM     17  C   UNL     1      32.744 -10.412 -23.236  0.00  0.00    +0.151 C 
ATOM     18  C   UNL     1      32.613 -11.567 -22.492  0.00  0.00    +0.183 C 
ATOM     19  C   UNL     1      31.526 -10.440 -20.843  0.00  0.00    +0.117 C 
ATOM     20  C   UNL     1      30.850 -10.456 -19.514  0.00  0.00    +0.143 C 
ATOM     21  H   UNL     1      32.869  -4.995 -23.821  0.00  0.00    -0.079 HD
ENDROOT
BRANCH   5  24
ATOM     22  O   UNL     1      34.643 -18.195 -23.151  0.00  0.00    -0.269 OA
ATOM     23  N   UNL     1      34.400 -18.310 -20.841  0.00  0.00    -0.280 N 
ATOM     24  C   UNL     1      34.294 -17.636 -22.082  0.00  0.00    +0.257 C 
ATOM     25  H   UNL     1      34.103 -17.794 -20.057  0.00  0.00    +0.155 HD
BRANCH  23  27
ATOM     26 CL   UNL     1      37.370 -18.741 -21.232  0.00  0.00    -0.081 Cl
ATOM     27  C   UNL     1      34.870 -19.617 -20.561  0.00  0.00    +0.057 C 
ATOM     28  C   UNL     1      33.963 -20.578 -20.140  0.00  0.00    -0.008 C 
ATOM     29  C   UNL     1      36.216 -19.916 -20.710  0.00  0.00    +0.071 C 
ATOM     30  C   UNL     1      34.412 -21.868 -19.860  0.00  0.00    -0.003 C 
ATOM     31  C   UNL     1      32.509 -20.273 -19.973  0.00  0.00    +0.032 C 
ATOM     32  C   UNL     1      36.665 -21.207 -20.430  0.00  0.00    +0.013 C 
ATOM     33  C   UNL     1      35.763 -22.183 -20.006  0.00  0.00    +0.001 C 
ENDBRANCH  23  27
ENDBRANCH   5  24
BRANCH   8  34
ATOM     34  C   UNL     1      32.533  -4.539 -25.767  0.00  0.00    -0.045 C 
BRANCH  34  35
ATOM     35  C   UNL     1      33.631  -4.833 -26.776  0.00  0.00    +0.115 C 
BRANCH  35  36
ATOM     36  O   UNL     1      33.069  -4.814 -28.082  0.00  0.00    -0.384 OA
ATOM     37  H   UNL     1      33.612  -4.255 -28.660  0.00  0.00    +0.210 HD
ENDBRANCH  35  36
ENDBRANCH  34  35
ENDBRANCH   8  34
TORSDOF 5
ENDMDL
MODEL 3
REMARK VINA RESULT:     -10.0      0.977      1.544
REMARK  Name = 3062316
REMARK  5 active torsions:
REMARK  status: ('A' for Active; 'I' for Inactive)
REMARK    1  A    between atoms: C_5  and  C_28
REMARK    2  A    between atoms: N_8  and  C_22
REMARK    3  A    between atoms: C_22  and  C_23
REMARK    4  A    between atoms: C_23  and  O_24
REMARK    5  A    between atoms: N_27  and  C_31
REMARK                            x       y       z     vdW  Elec       q    Type
REMARK                         _______ _______ _______ _____ _____    ______ ____
ROOT
ATOM      1  S   UNL     1      33.691 -15.789 -21.961  0.00  0.00    -0.047 S 
ATOM      2  N   UNL     1      33.692 -13.274 -22.830  0.00  0.00    -0.271 N 
ATOM      3  N   UNL     1      34.820 -14.908 -24.114  0.00  0.00    -0.222 NA
ATOM      4  C   UNL     1      34.108 -14.552 -23.071  0.00  0.00    +0.165 C 
ATOM      5  C   UNL     1      34.529 -16.915 -22.947  0.00  0.00    +0.105 C 
ATOM      6  C   UNL     1      35.061 -16.266 -24.042  0.00  0.00    +0.112 C 
ATOM      7  H   UNL     1      33.258 -13.134 -21.957  0.00  0.00    +0.156 HD
ATOM      8  N   UNL     1      31.295  -6.208 -23.017  0.00  0.00    +0.391 N 
ATOM      9  N   UNL     1      32.628  -8.665 -23.605  0.00  0.00    -0.290 N 
ATOM     10  N   UNL     1      33.956  -9.876 -25.189  0.00  0.00    -0.333 NA
ATOM     11  N   UNL     1      34.488 -12.194 -24.796  0.00  0.00    -0.332 NA
ATOM     12  C   UNL     1      30.776  -7.478 -22.496  0.00  0.00    -0.055 C 
ATOM     13  C   UNL     1      32.760  -6.258 -23.089  0.00  0.00    -0.055 C 
ATOM     14  C   UNL     1      31.177  -8.648 -23.398  0.00  0.00    +0.070 C 
ATOM     15  C   UNL     1      33.227  -7.386 -24.012  0.00  0.00    +0.070 C 
ATOM     16  C   UNL     1      33.258  -9.845 -24.015  0.00  0.00    +0.181 C 
ATOM     17  C   UNL     1      33.154 -10.976 -23.204  0.00  0.00    +0.151 C 
ATOM     18  C   UNL     1      33.790 -12.120 -23.644  0.00  0.00    +0.183 C 
ATOM     19  C   UNL     1      34.530 -11.052 -25.509  0.00  0.00    +0.117 C 
ATOM     20  C   UNL     1      35.294 -11.094 -26.789  0.00  0.00    +0.143 C 
ATOM     21  H   UNL     1      30.924  -6.062 -23.957  0.00  0.00    -0.079 HD
ENDROOT
BRANCH   5  24
ATOM     22  O   UNL     1      34.562 -19.223 -23.414  0.00  0.00    -0.269 OA
ATOM     23  N   UNL     1      34.725 -18.557 -21.193  0.00  0.00    -0.280 N 
ATOM     24  C   UNL     1      34.590 -18.289 -22.576  0.00  0.00    +0.257 C 
ATOM     25  H   UNL     1      34.737 -17.763 -20.610  0.00  0.00    +0.155 HD
BRANCH  23  27
ATOM     26 CL   UNL     1      32.118 -19.872 -20.400  0.00  0.00    -0.081 Cl
ATOM     27  C   UNL     1      34.846 -19.800 -20.522  0.00  0.00    +0.057 C 
ATOM     28  C   UNL     1      36.114 -20.310 -20.283  0.00  0.00    -0.008 C 
ATOM     29  C   UNL     1      33.709 -20.482 -20.117  0.00  0.00    +0.071 C 
ATOM     30  C   UNL     1      36.248 -21.532 -19.624  0.00  0.00    -0.003 C 
ATOM     31  C   UNL     1      37.350 -19.588 -20.713  0.00  0.00    +0.032 C 
ATOM     32  C   UNL     1      33.843 -21.704 -19.458  0.00  0.00    +0.013 C 
ATOM     33  C   UNL     1      35.112 -22.229 -19.212  0.00  0.00    +0.001 C 
ENDBRANCH  23  27
ENDBRANCH   5  24
BRANCH   8  34
ATOM     34  C   UNL     1      30.860  -5.092 -22.177  0.00  0.00    -0.045 C 
BRANCH  34  35
ATOM     35  C   UNL     1      31.005  -3.773 -22.919  0.00  0.00    +0.115 C 
BRANCH  35  36
ATOM     36  O   UNL     1      30.208  -2.793 -22.268  0.00  0.00    -0.384 OA
ATOM     37  H   UNL     1      30.739  -1.998 -22.107  0.00  0.00    +0.210 HD
ENDBRANCH  35  36
ENDBRANCH  34  35
ENDBRANCH   8  34
TORSDOF 5
ENDMDL
MODEL 4
REMARK VINA RESULT:      -9.2      3.099      5.163
REMARK  Name = 3062316
REMARK  5 active torsions:
REMARK  status: ('A' for Active; 'I' for Inactive)
REMARK    1  A    between atoms: C_5  and  C_28
REMARK    2  A    between atoms: N_8  and  C_22
REMARK    3  A    between atoms: C_22  and  C_23
REMARK    4  A    between atoms: C_23  and  O_24
REMARK    5  A    between atoms: N_27  and  C_31
REMARK                            x       y       z     vdW  Elec       q    Type
REMARK                         _______ _______ _______ _____ _____    ______ ____
ROOT
ATOM      1  S   UNL     1      32.484 -12.319 -23.750  0.00  0.00    -0.047 S 
ATOM      2  N   UNL     1      32.098  -9.691 -23.589  0.00  0.00    -0.271 N 
ATOM      3  N   UNL     1      32.314 -10.921 -21.582  0.00  0.00    -0.222 NA
ATOM      4  C   UNL     1      32.281 -10.850 -22.891  0.00  0.00    +0.165 C 
ATOM      5  C   UNL     1      32.632 -13.140 -22.251  0.00  0.00    +0.105 C 
ATOM      6  C   UNL     1      32.515 -12.237 -21.215  0.00  0.00    +0.112 C 
ATOM      7  H   UNL     1      31.989  -9.803 -24.562  0.00  0.00    +0.156 HD
ATOM      8  N   UNL     1      31.895  -2.732 -26.282  0.00  0.00    +0.391 N 
ATOM      9  N   UNL     1      31.870  -4.999 -24.544  0.00  0.00    -0.290 N 
ATOM     10  N   UNL     1      31.932  -5.764 -22.274  0.00  0.00    -0.333 NA
ATOM     11  N   UNL     1      32.047  -8.124 -21.799  0.00  0.00    -0.332 NA
ATOM     12  C   UNL     1      32.473  -4.009 -26.717  0.00  0.00    -0.055 C 
ATOM     13  C   UNL     1      30.747  -2.978 -25.400  0.00  0.00    -0.055 C 
ATOM     14  C   UNL     1      32.951  -4.834 -25.520  0.00  0.00    +0.070 C 
ATOM     15  C   UNL     1      31.169  -3.767 -24.158  0.00  0.00    +0.070 C 
ATOM     16  C   UNL     1      31.929  -6.041 -23.612  0.00  0.00    +0.181 C 
ATOM     17  C   UNL     1      31.985  -7.355 -24.079  0.00  0.00    +0.151 C 
ATOM     18  C   UNL     1      32.041  -8.354 -23.128  0.00  0.00    +0.183 C 
ATOM     19  C   UNL     1      31.991  -6.825 -21.447  0.00  0.00    +0.117 C 
ATOM     20  C   UNL     1      31.995  -6.530 -19.985  0.00  0.00    +0.143 C 
ATOM     21  H   UNL     1      32.603  -2.210 -25.765  0.00  0.00    -0.079 HD
ENDROOT
BRANCH   5  24
ATOM     22  O   UNL     1      32.088 -15.336 -21.599  0.00  0.00    -0.269 OA
ATOM     23  N   UNL     1      33.937 -15.033 -22.976  0.00  0.00    -0.280 N 
ATOM     24  C   UNL     1      32.841 -14.548 -22.222  0.00  0.00    +0.257 C 
ATOM     25  H   UNL     1      34.472 -14.343 -23.431  0.00  0.00    +0.155 HD
BRANCH  23  27
ATOM     26 CL   UNL     1      35.005 -16.431 -20.514  0.00  0.00    -0.081 Cl
ATOM     27  C   UNL     1      34.379 -16.366 -23.172  0.00  0.00    +0.057 C 
ATOM     28  C   UNL     1      34.293 -16.918 -24.441  0.00  0.00    -0.008 C 
ATOM     29  C   UNL     1      34.886 -17.092 -22.105  0.00  0.00    +0.071 C 
ATOM     30  C   UNL     1      34.724 -18.229 -24.649  0.00  0.00    -0.003 C 
ATOM     31  C   UNL     1      33.749 -16.150 -25.603  0.00  0.00    +0.032 C 
ATOM     32  C   UNL     1      35.317 -18.402 -22.313  0.00  0.00    +0.013 C 
ATOM     33  C   UNL     1      35.235 -18.971 -23.584  0.00  0.00    +0.001 C 
ENDBRANCH  23  27
ENDBRANCH   5  24
BRANCH   8  34
ATOM     34  C   UNL     1      31.491  -1.931 -27.437  0.00  0.00    -0.045 C 
BRANCH  34  35
ATOM     35  C   UNL     1      31.631  -2.732 -28.722  0.00  0.00    +0.115 C 
BRANCH  35  36
ATOM     36  O   UNL     1      30.492  -2.492 -29.537  0.00  0.00    -0.384 OA
ATOM     37  H   UNL     1      30.347  -3.251 -30.123  0.00  0.00    +0.210 HD
ENDBRANCH  35  36
ENDBRANCH  34  35
ENDBRANCH   8  34
TORSDOF 5
ENDMDL
MODEL 5
REMARK VINA RESULT:      -9.1      3.198      5.017
REMARK  Name = 3062316
REMARK  5 active torsions:
REMARK  status: ('A' for Active; 'I' for Inactive)
REMARK    1  A    between atoms: C_5  and  C_28
REMARK    2  A    between atoms: N_8  and  C_22
REMARK    3  A    between atoms: C_22  and  C_23
REMARK    4  A    between atoms: C_23  and  O_24
REMARK    5  A    between atoms: N_27  and  C_31
REMARK                            x       y       z     vdW  Elec       q    Type
REMARK                         _______ _______ _______ _____ _____    ______ ____
ROOT
ATOM      1  S   UNL     1      32.512 -12.598 -23.666  0.00  0.00    -0.047 S 
ATOM      2  N   UNL     1      32.141  -9.969 -23.497  0.00  0.00    -0.271 N 
ATOM      3  N   UNL     1      32.345 -11.206 -21.494  0.00  0.00    -0.222 NA
ATOM      4  C   UNL     1      32.316 -11.130 -22.803  0.00  0.00    +0.165 C 
ATOM      5  C   UNL     1      32.652 -13.425 -22.170  0.00  0.00    +0.105 C 
ATOM      6  C   UNL     1      32.538 -12.525 -21.131  0.00  0.00    +0.112 C 
ATOM      7  H   UNL     1      32.034 -10.076 -24.470  0.00  0.00    +0.156 HD
ATOM      8  N   UNL     1      31.983  -2.999 -26.167  0.00  0.00    +0.391 N 
ATOM      9  N   UNL     1      31.942  -5.272 -24.436  0.00  0.00    -0.290 N 
ATOM     10  N   UNL     1      31.994  -6.045 -22.169  0.00  0.00    -0.333 NA
ATOM     11  N   UNL     1      32.095  -8.407 -21.702  0.00  0.00    -0.332 NA
ATOM     12  C   UNL     1      32.556  -4.278 -26.605  0.00  0.00    -0.055 C 
ATOM     13  C   UNL     1      30.833  -3.242 -25.288  0.00  0.00    -0.055 C 
ATOM     14  C   UNL     1      33.026  -5.109 -25.409  0.00  0.00    +0.070 C 
ATOM     15  C   UNL     1      31.247  -4.037 -24.048  0.00  0.00    +0.070 C 
ATOM     16  C   UNL     1      31.993  -6.317 -23.507  0.00  0.00    +0.181 C 
ATOM     17  C   UNL     1      32.042  -7.630 -23.979  0.00  0.00    +0.151 C 
ATOM     18  C   UNL     1      32.091  -8.633 -23.031  0.00  0.00    +0.183 C 
ATOM     19  C   UNL     1      32.046  -7.109 -21.345  0.00  0.00    +0.117 C 
ATOM     20  C   UNL     1      32.048  -6.819 -19.882  0.00  0.00    +0.143 C 
ATOM     21  H   UNL     1      32.693  -2.483 -25.646  0.00  0.00    -0.079 HD
ENDROOT
BRANCH   5  24
ATOM     22  O   UNL     1      32.103 -15.619 -21.515  0.00  0.00    -0.269 OA
ATOM     23  N   UNL     1      33.938 -15.325 -22.912  0.00  0.00    -0.280 N 
ATOM     24  C   UNL     1      32.853 -14.835 -22.145  0.00  0.00    +0.257 C 
ATOM     25  H   UNL     1      34.471 -14.637 -23.371  0.00  0.00    +0.155 HD
BRANCH  23  27
ATOM     26 CL   UNL     1      33.627 -16.384 -25.729  0.00  0.00    -0.081 Cl
ATOM     27  C   UNL     1      34.369 -16.660 -23.115  0.00  0.00    +0.057 C 
ATOM     28  C   UNL     1      34.888 -17.365 -22.039  0.00  0.00    -0.008 C 
ATOM     29  C   UNL     1      34.268 -17.237 -24.371  0.00  0.00    +0.071 C 
ATOM     30  C   UNL     1      35.316 -18.680 -22.225  0.00  0.00    -0.003 C 
ATOM     31  C   UNL     1      35.004 -16.758 -20.678  0.00  0.00    +0.032 C 
ATOM     32  C   UNL     1      34.697 -18.551 -24.556  0.00  0.00    +0.013 C 
ATOM     33  C   UNL     1      35.221 -19.273 -23.484  0.00  0.00    +0.001 C 
ENDBRANCH  23  27
ENDBRANCH   5  24
BRANCH   8  34
ATOM     34  C   UNL     1      31.587  -2.192 -27.320  0.00  0.00    -0.045 C 
BRANCH  34  35
ATOM     35  C   UNL     1      31.887  -2.925 -28.617  0.00  0.00    +0.115 C 
BRANCH  35  36
ATOM     36  O   UNL     1      30.811  -2.711 -29.522  0.00  0.00    -0.384 OA
ATOM     37  H   UNL     1      31.094  -2.941 -30.421  0.00  0.00    +0.210 HD
ENDBRANCH  35  36
ENDBRANCH  34  35
ENDBRANCH   8  34
TORSDOF 5
ENDMDL
MODEL 6
REMARK VINA RESULT:      -8.8      3.602     12.157
REMARK  Name = 3062316
REMARK  5 active torsions:
REMARK  status: ('A' for Active; 'I' for Inactive)
REMARK    1  A    between atoms: C_5  and  C_28
REMARK    2  A    between atoms: N_8  and  C_22
REMARK    3  A    between atoms: C_22  and  C_23
REMARK    4  A    between atoms: C_23  and  O_24
REMARK    5  A    between atoms: N_27  and  C_31
REMARK                            x       y       z     vdW  Elec       q    Type
REMARK                         _______ _______ _______ _____ _____    ______ ____
ROOT
ATOM      1  S   UNL     1      34.094 -13.489 -22.506  0.00  0.00    -0.047 S 
ATOM      2  N   UNL     1      34.469 -16.080 -22.033  0.00  0.00    -0.271 N 
ATOM      3  N   UNL     1      33.939 -15.404 -24.236  0.00  0.00    -0.222 NA
ATOM      4  C   UNL     1      34.172 -15.136 -22.973  0.00  0.00    +0.165 C 
ATOM      5  C   UNL     1      33.714 -13.078 -24.128  0.00  0.00    +0.105 C 
ATOM      6  C   UNL     1      33.675 -14.221 -24.898  0.00  0.00    +0.112 C 
ATOM      7  H   UNL     1      34.515 -15.747 -21.107  0.00  0.00    +0.156 HD
ATOM      8  N   UNL     1      36.810 -21.931 -18.032  0.00  0.00    +0.391 N 
ATOM      9  N   UNL     1      35.802 -20.273 -20.128  0.00  0.00    -0.290 N 
ATOM     10  N   UNL     1      35.213 -20.137 -22.447  0.00  0.00    -0.333 NA
ATOM     11  N   UNL     1      34.545 -18.027 -23.401  0.00  0.00    -0.332 NA
ATOM     12  C   UNL     1      37.061 -20.485 -18.022  0.00  0.00    -0.055 C 
ATOM     13  C   UNL     1      35.497 -22.206 -18.630  0.00  0.00    -0.055 C 
ATOM     14  C   UNL     1      37.046 -19.913 -19.442  0.00  0.00    +0.070 C 
ATOM     15  C   UNL     1      35.431 -21.693 -20.070  0.00  0.00    +0.070 C 
ATOM     16  C   UNL     1      35.379 -19.528 -21.236  0.00  0.00    +0.181 C 
ATOM     17  C   UNL     1      35.135 -18.164 -21.071  0.00  0.00    +0.151 C 
ATOM     18  C   UNL     1      34.720 -17.465 -22.187  0.00  0.00    +0.183 C 
ATOM     19  C   UNL     1      34.805 -19.347 -23.459  0.00  0.00    +0.117 C 
ATOM     20  C   UNL     1      34.622 -20.004 -24.785  0.00  0.00    +0.143 C 
ATOM     21  H   UNL     1      37.530 -22.386 -18.595  0.00  0.00    -0.079 HD
ENDROOT
BRANCH   5  24
ATOM     22  O   UNL     1      33.441 -11.333 -25.685  0.00  0.00    -0.269 OA
ATOM     23  N   UNL     1      33.296 -10.810 -23.424  0.00  0.00    -0.280 N 
ATOM     24  C   UNL     1      33.495 -11.719 -24.491  0.00  0.00    +0.257 C 
ATOM     25  H   UNL     1      33.356 -11.202 -22.523  0.00  0.00    +0.155 HD
BRANCH  23  27
ATOM     26 CL   UNL     1      30.549  -9.991 -22.454  0.00  0.00    -0.081 Cl
ATOM     27  C   UNL     1      33.024  -9.419 -23.461  0.00  0.00    +0.057 C 
ATOM     28  C   UNL     1      34.006  -8.558 -23.926  0.00  0.00    -0.008 C 
ATOM     29  C   UNL     1      31.793  -8.943 -23.038  0.00  0.00    +0.071 C 
ATOM     30  C   UNL     1      33.752  -7.187 -23.968  0.00  0.00    -0.003 C 
ATOM     31  C   UNL     1      35.339  -9.055 -24.386  0.00  0.00    +0.032 C 
ATOM     32  C   UNL     1      31.538  -7.572 -23.080  0.00  0.00    +0.013 C 
ATOM     33  C   UNL     1      32.518  -6.694 -23.545  0.00  0.00    +0.001 C 
ENDBRANCH  23  27
ENDBRANCH   5  24
BRANCH   8  34
ATOM     34  C   UNL     1      36.879 -22.474 -16.676  0.00  0.00    -0.045 C 
BRANCH  34  35
ATOM     35  C   UNL     1      35.507 -22.932 -16.210  0.00  0.00    +0.115 C 
BRANCH  35  36
ATOM     36  O   UNL     1      35.593 -24.293 -15.807  0.00  0.00    -0.384 OA
ATOM     37  H   UNL     1      36.501 -24.610 -15.930  0.00  0.00    +0.210 HD
ENDBRANCH  35  36
ENDBRANCH  34  35
ENDBRANCH   8  34
TORSDOF 5
ENDMDL
MODEL 7
REMARK VINA RESULT:      -8.8      3.539     12.070
REMARK  Name = 3062316
REMARK  5 active torsions:
REMARK  status: ('A' for Active; 'I' for Inactive)
REMARK    1  A    between atoms: C_5  and  C_28
REMARK    2  A    between atoms: N_8  and  C_22
REMARK    3  A    between atoms: C_22  and  C_23
REMARK    4  A    between atoms: C_23  and  O_24
REMARK    5  A    between atoms: N_27  and  C_31
REMARK                            x       y       z     vdW  Elec       q    Type
REMARK                         _______ _______ _______ _____ _____    ______ ____
ROOT
ATOM      1  S   UNL     1      34.072 -13.493 -22.466  0.00  0.00    -0.047 S 
ATOM      2  N   UNL     1      34.452 -16.084 -22.001  0.00  0.00    -0.271 N 
ATOM      3  N   UNL     1      33.920 -15.403 -24.201  0.00  0.00    -0.222 NA
ATOM      4  C   UNL     1      34.154 -15.138 -22.938  0.00  0.00    +0.165 C 
ATOM      5  C   UNL     1      33.691 -13.078 -24.086  0.00  0.00    +0.105 C 
ATOM      6  C   UNL     1      33.654 -14.219 -24.860  0.00  0.00    +0.112 C 
ATOM      7  H   UNL     1      34.499 -15.754 -21.074  0.00  0.00    +0.156 HD
ATOM      8  N   UNL     1      36.807 -21.942 -18.017  0.00  0.00    +0.391 N 
ATOM      9  N   UNL     1      35.795 -20.280 -20.108  0.00  0.00    -0.290 N 
ATOM     10  N   UNL     1      35.206 -20.138 -22.427  0.00  0.00    -0.333 NA
ATOM     11  N   UNL     1      34.532 -18.027 -23.374  0.00  0.00    -0.332 NA
ATOM     12  C   UNL     1      37.055 -20.495 -18.003  0.00  0.00    -0.055 C 
ATOM     13  C   UNL     1      35.494 -22.218 -18.615  0.00  0.00    -0.055 C 
ATOM     14  C   UNL     1      37.038 -19.920 -19.421  0.00  0.00    +0.070 C 
ATOM     15  C   UNL     1      35.427 -21.701 -20.054  0.00  0.00    +0.070 C 
ATOM     16  C   UNL     1      35.370 -19.533 -21.213  0.00  0.00    +0.181 C 
ATOM     17  C   UNL     1      35.123 -18.169 -21.045  0.00  0.00    +0.151 C 
ATOM     18  C   UNL     1      34.706 -17.468 -22.158  0.00  0.00    +0.183 C 
ATOM     19  C   UNL     1      34.796 -19.346 -23.436  0.00  0.00    +0.117 C 
ATOM     20  C   UNL     1      34.614 -20.000 -24.764  0.00  0.00    +0.143 C 
ATOM     21  H   UNL     1      37.528 -22.394 -18.581  0.00  0.00    -0.079 HD
ENDROOT
BRANCH   5  24
ATOM     22  O   UNL     1      33.436 -11.325 -25.637  0.00  0.00    -0.269 OA
ATOM     23  N   UNL     1      33.241 -10.817 -23.377  0.00  0.00    -0.280 N 
ATOM     24  C   UNL     1      33.468 -11.718 -24.445  0.00  0.00    +0.257 C 
ATOM     25  H   UNL     1      33.286 -11.214 -22.477  0.00  0.00    +0.155 HD
BRANCH  23  27
ATOM     26 CL   UNL     1      35.438  -9.066 -24.501  0.00  0.00    -0.081 Cl
ATOM     27  C   UNL     1      32.959  -9.428 -23.411  0.00  0.00    +0.057 C 
ATOM     28  C   UNL     1      31.733  -8.984 -22.940  0.00  0.00    -0.008 C 
ATOM     29  C   UNL     1      33.902  -8.542 -23.908  0.00  0.00    +0.071 C 
ATOM     30  C   UNL     1      31.442  -7.620 -22.968  0.00  0.00    -0.003 C 
ATOM     31  C   UNL     1      30.704  -9.926 -22.401  0.00  0.00    +0.032 C 
ATOM     32  C   UNL     1      33.611  -7.178 -23.935  0.00  0.00    +0.013 C 
ATOM     33  C   UNL     1      32.381  -6.717 -23.466  0.00  0.00    +0.001 C 
ENDBRANCH  23  27
ENDBRANCH   5  24
BRANCH   8  34
ATOM     34  C   UNL     1      36.878 -22.489 -16.663  0.00  0.00    -0.045 C 
BRANCH  34  35
ATOM     35  C   UNL     1      35.507 -22.954 -16.199  0.00  0.00    +0.115 C 
BRANCH  35  36
ATOM     36  O   UNL     1      35.596 -24.318 -15.807  0.00  0.00    -0.384 OA
ATOM     37  H   UNL     1      35.689 -24.372 -14.843  0.00  0.00    +0.210 HD
ENDBRANCH  35  36
ENDBRANCH  34  35
ENDBRANCH   8  34
TORSDOF 5
ENDMDL
MODEL 8
REMARK VINA RESULT:      -8.0      3.613     12.360
REMARK  Name = 3062316
REMARK  5 active torsions:
REMARK  status: ('A' for Active; 'I' for Inactive)
REMARK    1  A    between atoms: C_5  and  C_28
REMARK    2  A    between atoms: N_8  and  C_22
REMARK    3  A    between atoms: C_22  and  C_23
REMARK    4  A    between atoms: C_23  and  O_24
REMARK    5  A    between atoms: N_27  and  C_31
REMARK                            x       y       z     vdW  Elec       q    Type
REMARK                         _______ _______ _______ _____ _____    ______ ____
ROOT
ATOM      1  S   UNL     1      33.101  -9.731 -22.001  0.00  0.00    -0.047 S 
ATOM      2  N   UNL     1      33.324 -12.290 -22.694  0.00  0.00    -0.271 N 
ATOM      3  N   UNL     1      32.823 -10.709 -24.378  0.00  0.00    -0.222 NA
ATOM      4  C   UNL     1      33.079 -11.021 -23.130  0.00  0.00    +0.165 C 
ATOM      5  C   UNL     1      32.737  -8.646 -23.278  0.00  0.00    +0.105 C 
ATOM      6  C   UNL     1      32.626  -9.345 -24.462  0.00  0.00    +0.112 C 
ATOM      7  H   UNL     1      33.395 -12.390 -21.717  0.00  0.00    +0.156 HD
ATOM      8  N   UNL     1      35.336 -19.403 -21.654  0.00  0.00    +0.391 N 
ATOM      9  N   UNL     1      34.416 -16.957 -22.808  0.00  0.00    -0.290 N 
ATOM     10  N   UNL     1      33.824 -15.810 -24.826  0.00  0.00    -0.333 NA
ATOM     11  N   UNL     1      33.277 -13.464 -24.764  0.00  0.00    -0.332 NA
ATOM     12  C   UNL     1      35.673 -18.116 -21.034  0.00  0.00    -0.055 C 
ATOM     13  C   UNL     1      34.006 -19.328 -22.272  0.00  0.00    -0.055 C 
ATOM     14  C   UNL     1      35.683 -16.991 -22.071  0.00  0.00    +0.070 C 
ATOM     15  C   UNL     1      33.963 -18.244 -23.352  0.00  0.00    +0.070 C 
ATOM     16  C   UNL     1      34.033 -15.789 -23.476  0.00  0.00    +0.181 C 
ATOM     17  C   UNL     1      33.871 -14.617 -22.736  0.00  0.00    +0.151 C 
ATOM     18  C   UNL     1      33.491 -13.486 -23.433  0.00  0.00    +0.183 C 
ATOM     19  C   UNL     1      33.458 -14.643 -25.390  0.00  0.00    +0.117 C 
ATOM     20  C   UNL     1      33.229 -14.657 -26.863  0.00  0.00    +0.143 C 
ATOM     21  H   UNL     1      36.025 -19.609 -22.379  0.00  0.00    -0.079 HD
ENDROOT
BRANCH   5  24
ATOM     22  O   UNL     1      33.025  -6.708 -21.971  0.00  0.00    -0.269 OA
ATOM     23  N   UNL     1      31.974  -6.487 -24.033  0.00  0.00    -0.280 N 
ATOM     24  C   UNL     1      32.596  -7.253 -23.018  0.00  0.00    +0.257 C 
ATOM     25  H   UNL     1      31.669  -6.998 -24.817  0.00  0.00    +0.155 HD
BRANCH  23  27
ATOM     26 CL   UNL     1      30.239  -5.385 -21.812  0.00  0.00    -0.081 Cl
ATOM     27  C   UNL     1      31.723  -5.093 -24.087  0.00  0.00    +0.057 C 
ATOM     28  C   UNL     1      32.274  -4.355 -25.124  0.00  0.00    -0.008 C 
ATOM     29  C   UNL     1      30.939  -4.492 -23.115  0.00  0.00    +0.071 C 
ATOM     30  C   UNL     1      32.036  -2.982 -25.189  0.00  0.00    -0.003 C 
ATOM     31  C   UNL     1      33.122  -4.986 -26.181  0.00  0.00    +0.032 C 
ATOM     32  C   UNL     1      30.701  -3.119 -23.180  0.00  0.00    +0.013 C 
ATOM     33  C   UNL     1      31.249  -2.364 -24.217  0.00  0.00    +0.001 C 
ENDBRANCH  23  27
ENDBRANCH   5  24
BRANCH   8  34
ATOM     34  C   UNL     1      35.381 -20.478 -20.664  0.00  0.00    -0.045 C 
BRANCH  34  35
ATOM     35  C   UNL     1      36.738 -20.522 -19.981  0.00  0.00    +0.115 C 
BRANCH  35  36
ATOM     36  O   UNL     1      36.556 -20.919 -18.627  0.00  0.00    -0.384 OA
ATOM     37  H   UNL     1      35.777 -21.494 -18.561  0.00  0.00    +0.210 HD
ENDBRANCH  35  36
ENDBRANCH  34  35
ENDBRANCH   8  34
TORSDOF 5
ENDMDL
MODEL 9
REMARK VINA RESULT:      -7.9      2.181      3.481
REMARK  Name = 3062316
REMARK  5 active torsions:
REMARK  status: ('A' for Active; 'I' for Inactive)
REMARK    1  A    between atoms: C_5  and  C_28
REMARK    2  A    between atoms: N_8  and  C_22
REMARK    3  A    between atoms: C_22  and  C_23
REMARK    4  A    between atoms: C_23  and  O_24
REMARK    5  A    between atoms: N_27  and  C_31
REMARK                            x       y       z     vdW  Elec       q    Type
REMARK                         _______ _______ _______ _____ _____    ______ ____
ROOT
ATOM      1  S   UNL     1      35.316 -18.018 -20.320  0.00  0.00    -0.047 S 
ATOM      2  N   UNL     1      34.665 -15.969 -21.887  0.00  0.00    -0.271 N 
ATOM      3  N   UNL     1      34.694 -18.138 -22.827  0.00  0.00    -0.222 NA
ATOM      4  C   UNL     1      34.851 -17.319 -21.814  0.00  0.00    +0.165 C 
ATOM      5  C   UNL     1      35.314 -19.558 -21.074  0.00  0.00    +0.105 C 
ATOM      6  C   UNL     1      34.961 -19.424 -22.401  0.00  0.00    +0.112 C 
ATOM      7  H   UNL     1      34.920 -15.468 -21.078  0.00  0.00    +0.156 HD
ATOM      8  N   UNL     1      32.553  -8.943 -23.264  0.00  0.00    +0.391 N 
ATOM      9  N   UNL     1      33.224 -11.706 -23.540  0.00  0.00    -0.290 N 
ATOM     10  N   UNL     1      33.190 -13.626 -24.972  0.00  0.00    -0.333 NA
ATOM     11  N   UNL     1      33.914 -15.767 -24.137  0.00  0.00    -0.332 NA
ATOM     12  C   UNL     1      32.551  -9.829 -22.094  0.00  0.00    -0.055 C 
ATOM     13  C   UNL     1      33.597  -9.362 -24.207  0.00  0.00    -0.055 C 
ATOM     14  C   UNL     1      32.282 -11.279 -22.501  0.00  0.00    +0.070 C 
ATOM     15  C   UNL     1      33.361 -10.797 -24.686  0.00  0.00    +0.070 C 
ATOM     16  C   UNL     1      33.452 -13.070 -23.753  0.00  0.00    +0.181 C 
ATOM     17  C   UNL     1      33.949 -13.838 -22.698  0.00  0.00    +0.151 C 
ATOM     18  C   UNL     1      34.161 -15.179 -22.948  0.00  0.00    +0.183 C 
ATOM     19  C   UNL     1      33.437 -14.945 -25.091  0.00  0.00    +0.117 C 
ATOM     20  C   UNL     1      33.153 -15.560 -26.419  0.00  0.00    +0.143 C 
ATOM     21  H   UNL     1      31.645  -9.008 -23.727  0.00  0.00    -0.079 HD
ENDROOT
BRANCH   5  24
ATOM     22  O   UNL     1      36.323 -21.669 -20.802  0.00  0.00    -0.269 OA
ATOM     23  N   UNL     1      35.204 -20.753 -18.982  0.00  0.00    -0.280 N 
ATOM     24  C   UNL     1      35.646 -20.724 -20.327  0.00  0.00    +0.257 C 
ATOM     25  H   UNL     1      34.680 -19.970 -18.696  0.00  0.00    +0.155 HD
BRANCH  23  27
ATOM     26 CL   UNL     1      37.812 -20.566 -17.459  0.00  0.00    -0.081 Cl
ATOM     27  C   UNL     1      35.403 -21.742 -17.987  0.00  0.00    +0.057 C 
ATOM     28  C   UNL     1      34.418 -22.697 -17.788  0.00  0.00    -0.008 C 
ATOM     29  C   UNL     1      36.567 -21.743 -17.234  0.00  0.00    +0.071 C 
ATOM     30  C   UNL     1      34.600 -23.677 -16.811  0.00  0.00    -0.003 C 
ATOM     31  C   UNL     1      33.156 -22.711 -18.590  0.00  0.00    +0.032 C 
ATOM     32  C   UNL     1      36.750 -22.722 -16.258  0.00  0.00    +0.013 C 
ATOM     33  C   UNL     1      35.767 -23.689 -16.046  0.00  0.00    +0.001 C 
ENDBRANCH  23  27
ENDBRANCH   5  24
BRANCH   8  34
ATOM     34  C   UNL     1      32.758  -7.554 -22.856  0.00  0.00    -0.045 C 
BRANCH  34  35
ATOM     35  C   UNL     1      32.213  -7.318 -21.457  0.00  0.00    +0.115 C 
BRANCH  35  36
ATOM     36  O   UNL     1      32.173  -5.918 -21.212  0.00  0.00    -0.384 OA
ATOM     37  H   UNL     1      31.947  -5.759 -20.282  0.00  0.00    +0.210 HD
ENDBRANCH  35  36
ENDBRANCH  34  35
ENDBRANCH   8  34
TORSDOF 5
ENDMDL
