MODEL 1
REMARK VINA RESULT:     -10.3      0.000      0.000
REMARK  Name = 5351
REMARK  10 active torsions:
REMARK  status: ('A' for Active; 'I' for Inactive)
REMARK    1  A    between atoms: S_1  and  C_4
REMARK    2  A    between atoms: S_1  and  C_17
REMARK    3  A    between atoms: C_7  and  N_10
REMARK    4  A    between atoms: N_10  and  C_12
REMARK    5  A    between atoms: C_12  and  S_13
REMARK    6  A    between atoms: S_13  and  O_15
REMARK    7  A    between atoms: C_20  and  N_23
REMARK    8  A    between atoms: N_23  and  C_25
REMARK    9  A    between atoms: C_25  and  S_26
REMARK   10  A    between atoms: S_26  and  O_28
REMARK                            x       y       z     vdW  Elec       q    Type
REMARK                         _______ _______ _______ _____ _____    ______ ____
ROOT
ATOM      1  S   UNL     1      33.603 -22.744 -18.600  0.00  0.00    +0.027 S 
ATOM      2  O   UNL     1      32.255 -22.374 -18.193  0.00  0.00    -0.164 OA
ATOM      3  O   UNL     1      33.826 -23.997 -19.309  0.00  0.00    -0.164 OA
ENDROOT
BRANCH   1   4
ATOM      4  C   UNL     1      34.597 -22.860 -17.138  0.00  0.00    +0.110 C 
ATOM      5  C   UNL     1      34.050 -23.413 -15.996  0.00  0.00    +0.020 C 
ATOM      6  C   UNL     1      35.898 -22.394 -17.172  0.00  0.00    +0.020 C 
ATOM      7  C   UNL     1      36.148 -23.041 -14.858  0.00  0.00    +0.046 C 
ATOM      8  C   UNL     1      34.832 -23.504 -14.846  0.00  0.00    +0.016 C 
ATOM      9  C   UNL     1      36.680 -22.485 -16.021  0.00  0.00    +0.016 C 
BRANCH   7  10
ATOM     10  N   UNL     1      36.939 -23.134 -13.694  0.00  0.00    -0.314 N 
ATOM     11  H   UNL     1      37.919 -23.169 -13.788  0.00  0.00    +0.148 HD
BRANCH  10  12
ATOM     12  C   UNL     1      36.368 -23.180 -12.381  0.00  0.00    +0.235 C 
BRANCH  12  13
ATOM     13  S   UNL     1      36.407 -24.923 -11.864  0.00  0.00    -0.033 S 
ATOM     14  O   UNL     1      35.385 -25.106 -10.780  0.00  0.00    -0.079 OA
BRANCH  13  15
ATOM     15  O   UNL     1      37.843 -24.769 -11.155  0.00  0.00    -0.277 OA
ATOM     16  H   UNL     1      38.389 -24.148 -11.662  0.00  0.00    +0.242 HD
ENDBRANCH  13  15
ENDBRANCH  12  13
ENDBRANCH  10  12
ENDBRANCH   7  10
ENDBRANCH   1   4
BRANCH   1  17
ATOM     17  C   UNL     1      34.202 -21.424 -19.574  0.00  0.00    +0.110 C 
ATOM     18  C   UNL     1      33.307 -20.524 -20.153  0.00  0.00    +0.020 C 
ATOM     19  C   UNL     1      35.574 -21.269 -19.772  0.00  0.00    +0.020 C 
ATOM     20  C   UNL     1      35.158 -19.313 -21.129  0.00  0.00    +0.046 C 
ATOM     21  C   UNL     1      33.785 -19.468 -20.932  0.00  0.00    +0.016 C 
ATOM     22  C   UNL     1      36.051 -20.214 -20.550  0.00  0.00    +0.016 C 
BRANCH  20  23
ATOM     23  N   UNL     1      35.642 -18.246 -21.914  0.00  0.00    -0.314 N 
ATOM     24  H   UNL     1      35.887 -17.403 -21.470  0.00  0.00    +0.148 HD
BRANCH  23  25
ATOM     25  C   UNL     1      35.790 -18.348 -23.336  0.00  0.00    +0.235 C 
BRANCH  25  26
ATOM     26  S   UNL     1      34.655 -17.126 -24.060  0.00  0.00    -0.033 S 
ATOM     27  O   UNL     1      34.782 -17.207 -25.553  0.00  0.00    -0.079 OA
BRANCH  26  28
ATOM     28  O   UNL     1      35.545 -15.881 -23.566  0.00  0.00    -0.277 OA
ATOM     29  H   UNL     1      36.145 -16.172 -22.861  0.00  0.00    +0.242 HD
ENDBRANCH  26  28
ENDBRANCH  25  26
ENDBRANCH  23  25
ENDBRANCH  20  23
ENDBRANCH   1  17
TORSDOF 10
ENDMDL
MODEL 2
REMARK VINA RESULT:     -10.2      0.602      9.610
REMARK  Name = 5351
REMARK  10 active torsions:
REMARK  status: ('A' for Active; 'I' for Inactive)
REMARK    1  A    between atoms: S_1  and  C_4
REMARK    2  A    between atoms: S_1  and  C_17
REMARK    3  A    between atoms: C_7  and  N_10
REMARK    4  A    between atoms: N_10  and  C_12
REMARK    5  A    between atoms: C_12  and  S_13
REMARK    6  A    between atoms: S_13  and  O_15
REMARK    7  A    between atoms: C_20  and  N_23
REMARK    8  A    between atoms: N_23  and  C_25
REMARK    9  A    between atoms: C_25  and  S_26
REMARK   10  A    between atoms: S_26  and  O_28
REMARK                            x       y       z     vdW  Elec       q    Type
REMARK                         _______ _______ _______ _____ _____    ______ ____
ROOT
ATOM      1  S   UNL     1      33.628 -22.741 -18.591  0.00  0.00    +0.027 S 
ATOM      2  O   UNL     1      33.852 -23.977 -19.327  0.00  0.00    -0.164 OA
ATOM      3  O   UNL     1      32.274 -22.365 -18.204  0.00  0.00    -0.164 OA
ENDROOT
BRANCH   1   4
ATOM      4  C   UNL     1      34.207 -21.400 -19.595  0.00  0.00    +0.110 C 
ATOM      5  C   UNL     1      33.285 -20.547 -20.172  0.00  0.00    +0.020 C 
ATOM      6  C   UNL     1      35.567 -21.238 -19.780  0.00  0.00    +0.020 C 
ATOM      7  C   UNL     1      35.109 -19.309 -21.161  0.00  0.00    +0.046 C 
ATOM      8  C   UNL     1      33.740 -19.492 -20.962  0.00  0.00    +0.016 C 
ATOM      9  C   UNL     1      36.022 -20.183 -20.570  0.00  0.00    +0.016 C 
BRANCH   7  10
ATOM     10  N   UNL     1      35.569 -18.242 -21.960  0.00  0.00    -0.314 N 
ATOM     11  H   UNL     1      35.801 -17.389 -21.525  0.00  0.00    +0.148 HD
BRANCH  10  12
ATOM     12  C   UNL     1      35.711 -18.353 -23.381  0.00  0.00    +0.235 C 
BRANCH  12  13
ATOM     13  S   UNL     1      34.632 -17.083 -24.108  0.00  0.00    -0.033 S 
ATOM     14  O   UNL     1      34.772 -17.157 -25.599  0.00  0.00    -0.079 OA
BRANCH  13  15
ATOM     15  O   UNL     1      35.563 -15.877 -23.592  0.00  0.00    -0.277 OA
ATOM     16  H   UNL     1      36.069 -16.167 -22.818  0.00  0.00    +0.242 HD
ENDBRANCH  13  15
ENDBRANCH  12  13
ENDBRANCH  10  12
ENDBRANCH   7  10
ENDBRANCH   1   4
BRANCH   1  17
ATOM     17  C   UNL     1      34.625 -22.832 -17.161  0.00  0.00    +0.110 C 
ATOM     18  C   UNL     1      34.106 -23.368 -15.982  0.00  0.00    +0.020 C 
ATOM     19  C   UNL     1      35.941 -22.370 -17.197  0.00  0.00    +0.020 C 
ATOM     20  C   UNL     1      36.219 -22.979 -14.875  0.00  0.00    +0.046 C 
ATOM     21  C   UNL     1      34.903 -23.441 -14.839  0.00  0.00    +0.016 C 
ATOM     22  C   UNL     1      36.737 -22.444 -16.054  0.00  0.00    +0.016 C 
BRANCH  20  23
ATOM     23  N   UNL     1      37.026 -23.055 -13.720  0.00  0.00    -0.314 N 
ATOM     24  H   UNL     1      37.295 -22.220 -13.274  0.00  0.00    +0.148 HD
BRANCH  23  25
ATOM     25  C   UNL     1      37.464 -24.305 -13.174  0.00  0.00    +0.235 C 
BRANCH  25  26
ATOM     26  S   UNL     1      36.297 -24.723 -11.844  0.00  0.00    -0.033 S 
ATOM     27  O   UNL     1      36.812 -24.118 -10.572  0.00  0.00    -0.079 OA
BRANCH  26  28
ATOM     28  O   UNL     1      36.719 -26.275 -11.847  0.00  0.00    -0.277 OA
ATOM     29  H   UNL     1      36.317 -26.721 -11.085  0.00  0.00    +0.242 HD
ENDBRANCH  26  28
ENDBRANCH  25  26
ENDBRANCH  23  25
ENDBRANCH  20  23
ENDBRANCH   1  17
TORSDOF 10
ENDMDL
MODEL 3
REMARK VINA RESULT:      -9.8      1.541      9.132
REMARK  Name = 5351
REMARK  10 active torsions:
REMARK  status: ('A' for Active; 'I' for Inactive)
REMARK    1  A    between atoms: S_1  and  C_4
REMARK    2  A    between atoms: S_1  and  C_17
REMARK    3  A    between atoms: C_7  and  N_10
REMARK    4  A    between atoms: N_10  and  C_12
REMARK    5  A    between atoms: C_12  and  S_13
REMARK    6  A    between atoms: S_13  and  O_15
REMARK    7  A    between atoms: C_20  and  N_23
REMARK    8  A    between atoms: N_23  and  C_25
REMARK    9  A    between atoms: C_25  and  S_26
REMARK   10  A    between atoms: S_26  and  O_28
REMARK                            x       y       z     vdW  Elec       q    Type
REMARK                         _______ _______ _______ _____ _____    ______ ____
ROOT
ATOM      1  S   UNL     1      33.680 -22.730 -18.694  0.00  0.00    +0.027 S 
ATOM      2  O   UNL     1      33.970 -23.925 -19.474  0.00  0.00    -0.164 OA
ATOM      3  O   UNL     1      32.299 -22.393 -18.374  0.00  0.00    -0.164 OA
ENDROOT
BRANCH   1   4
ATOM      4  C   UNL     1      34.296 -21.334 -19.595  0.00  0.00    +0.110 C 
ATOM      5  C   UNL     1      33.396 -20.452 -20.163  0.00  0.00    +0.020 C 
ATOM      6  C   UNL     1      35.662 -21.158 -19.709  0.00  0.00    +0.020 C 
ATOM      7  C   UNL     1      35.257 -19.156 -20.999  0.00  0.00    +0.046 C 
ATOM      8  C   UNL     1      33.881 -19.353 -20.872  0.00  0.00    +0.016 C 
ATOM      9  C   UNL     1      36.147 -20.059 -20.418  0.00  0.00    +0.016 C 
BRANCH   7  10
ATOM     10  N   UNL     1      35.746 -18.044 -21.715  0.00  0.00    -0.314 N 
ATOM     11  H   UNL     1      36.712 -17.854 -21.695  0.00  0.00    +0.148 HD
BRANCH  10  12
ATOM     12  C   UNL     1      34.888 -17.180 -22.470  0.00  0.00    +0.235 C 
BRANCH  12  13
ATOM     13  S   UNL     1      34.635 -15.692 -21.457  0.00  0.00    -0.033 S 
ATOM     14  O   UNL     1      35.023 -16.023 -20.046  0.00  0.00    -0.079 OA
BRANCH  13  15
ATOM     15  O   UNL     1      33.032 -15.796 -21.555  0.00  0.00    -0.277 OA
ATOM     16  H   UNL     1      32.629 -15.147 -20.957  0.00  0.00    +0.242 HD
ENDBRANCH  13  15
ENDBRANCH  12  13
ENDBRANCH  10  12
ENDBRANCH   7  10
ENDBRANCH   1   4
BRANCH   1  17
ATOM     17  C   UNL     1      34.590 -22.878 -17.212  0.00  0.00    +0.110 C 
ATOM     18  C   UNL     1      35.920 -22.458 -17.165  0.00  0.00    +0.020 C 
ATOM     19  C   UNL     1      33.988 -23.416 -16.075  0.00  0.00    +0.020 C 
ATOM     20  C   UNL     1      36.045 -23.114 -14.842  0.00  0.00    +0.046 C 
ATOM     21  C   UNL     1      36.647 -22.577 -15.980  0.00  0.00    +0.016 C 
ATOM     22  C   UNL     1      34.716 -23.534 -14.890  0.00  0.00    +0.016 C 
BRANCH  20  23
ATOM     23  N   UNL     1      36.779 -23.233 -13.643  0.00  0.00    -0.314 N 
ATOM     24  H   UNL     1      36.526 -22.673 -12.874  0.00  0.00    +0.148 HD
BRANCH  23  25
ATOM     25  C   UNL     1      37.878 -24.141 -13.506  0.00  0.00    +0.235 C 
BRANCH  25  26
ATOM     26  S   UNL     1      37.156 -25.802 -13.352  0.00  0.00    -0.033 S 
ATOM     27  O   UNL     1      36.948 -26.081 -11.892  0.00  0.00    -0.079 OA
BRANCH  26  28
ATOM     28  O   UNL     1      38.522 -26.529 -13.793  0.00  0.00    -0.277 OA
ATOM     29  H   UNL     1      38.403 -26.942 -14.663  0.00  0.00    +0.242 HD
ENDBRANCH  26  28
ENDBRANCH  25  26
ENDBRANCH  23  25
ENDBRANCH  20  23
ENDBRANCH   1  17
TORSDOF 10
ENDMDL
MODEL 4
REMARK VINA RESULT:      -9.8      1.465      2.161
REMARK  Name = 5351
REMARK  10 active torsions:
REMARK  status: ('A' for Active; 'I' for Inactive)
REMARK    1  A    between atoms: S_1  and  C_4
REMARK    2  A    between atoms: S_1  and  C_17
REMARK    3  A    between atoms: C_7  and  N_10
REMARK    4  A    between atoms: N_10  and  C_12
REMARK    5  A    between atoms: C_12  and  S_13
REMARK    6  A    between atoms: S_13  and  O_15
REMARK    7  A    between atoms: C_20  and  N_23
REMARK    8  A    between atoms: N_23  and  C_25
REMARK    9  A    between atoms: C_25  and  S_26
REMARK   10  A    between atoms: S_26  and  O_28
REMARK                            x       y       z     vdW  Elec       q    Type
REMARK                         _______ _______ _______ _____ _____    ______ ____
ROOT
ATOM      1  S   UNL     1      33.717 -22.569 -18.846  0.00  0.00    +0.027 S 
ATOM      2  O   UNL     1      32.360 -22.288 -18.398  0.00  0.00    -0.164 OA
ATOM      3  O   UNL     1      33.986 -23.768 -19.629  0.00  0.00    -0.164 OA
ENDROOT
BRANCH   1   4
ATOM      4  C   UNL     1      34.741 -22.720 -17.408  0.00  0.00    +0.110 C 
ATOM      5  C   UNL     1      36.027 -22.212 -17.443  0.00  0.00    +0.020 C 
ATOM      6  C   UNL     1      34.233 -23.342 -16.284  0.00  0.00    +0.020 C 
ATOM      7  C   UNL     1      36.339 -22.955 -15.165  0.00  0.00    +0.046 C 
ATOM      8  C   UNL     1      36.833 -22.331 -16.312  0.00  0.00    +0.016 C 
ATOM      9  C   UNL     1      35.039 -23.461 -15.152  0.00  0.00    +0.016 C 
BRANCH   7  10
ATOM     10  N   UNL     1      37.154 -23.074 -14.021  0.00  0.00    -0.314 N 
ATOM     11  H   UNL     1      37.505 -22.255 -13.600  0.00  0.00    +0.148 HD
BRANCH  10  12
ATOM     12  C   UNL     1      37.491 -24.343 -13.449  0.00  0.00    +0.235 C 
BRANCH  12  13
ATOM     13  S   UNL     1      38.088 -24.007 -11.764  0.00  0.00    -0.033 S 
ATOM     14  O   UNL     1      36.967 -24.300 -10.811  0.00  0.00    -0.079 OA
BRANCH  13  15
ATOM     15  O   UNL     1      38.117 -22.415 -12.002  0.00  0.00    -0.277 OA
ATOM     16  H   UNL     1      38.749 -22.206 -12.707  0.00  0.00    +0.242 HD
ENDBRANCH  13  15
ENDBRANCH  12  13
ENDBRANCH  10  12
ENDBRANCH   7  10
ENDBRANCH   1   4
BRANCH   1  17
ATOM     17  C   UNL     1      34.236 -21.169 -19.752  0.00  0.00    +0.110 C 
ATOM     18  C   UNL     1      35.596 -20.938 -19.959  0.00  0.00    +0.020 C 
ATOM     19  C   UNL     1      33.291 -20.283 -20.268  0.00  0.00    +0.020 C 
ATOM     20  C   UNL     1      35.066 -18.933 -21.200  0.00  0.00    +0.046 C 
ATOM     21  C   UNL     1      36.011 -19.819 -20.684  0.00  0.00    +0.016 C 
ATOM     22  C   UNL     1      33.706 -19.164 -20.991  0.00  0.00    +0.016 C 
BRANCH  20  23
ATOM     23  N   UNL     1      35.484 -17.802 -21.933  0.00  0.00    -0.314 N 
ATOM     24  H   UNL     1      36.444 -17.682 -22.113  0.00  0.00    +0.148 HD
BRANCH  23  25
ATOM     25  C   UNL     1      34.560 -16.825 -22.424  0.00  0.00    +0.235 C 
BRANCH  25  26
ATOM     26  S   UNL     1      34.484 -15.512 -21.169  0.00  0.00    -0.033 S 
ATOM     27  O   UNL     1      33.094 -15.493 -20.605  0.00  0.00    -0.079 OA
BRANCH  26  28
ATOM     28  O   UNL     1      34.575 -14.340 -22.268  0.00  0.00    -0.277 OA
ATOM     29  H   UNL     1      33.692 -14.169 -22.632  0.00  0.00    +0.242 HD
ENDBRANCH  26  28
ENDBRANCH  25  26
ENDBRANCH  23  25
ENDBRANCH  20  23
ENDBRANCH   1  17
TORSDOF 10
ENDMDL
MODEL 5
REMARK VINA RESULT:      -9.7      1.786      2.200
REMARK  Name = 5351
REMARK  10 active torsions:
REMARK  status: ('A' for Active; 'I' for Inactive)
REMARK    1  A    between atoms: S_1  and  C_4
REMARK    2  A    between atoms: S_1  and  C_17
REMARK    3  A    between atoms: C_7  and  N_10
REMARK    4  A    between atoms: N_10  and  C_12
REMARK    5  A    between atoms: C_12  and  S_13
REMARK    6  A    between atoms: S_13  and  O_15
REMARK    7  A    between atoms: C_20  and  N_23
REMARK    8  A    between atoms: N_23  and  C_25
REMARK    9  A    between atoms: C_25  and  S_26
REMARK   10  A    between atoms: S_26  and  O_28
REMARK                            x       y       z     vdW  Elec       q    Type
REMARK                         _______ _______ _______ _____ _____    ______ ____
ROOT
ATOM      1  S   UNL     1      33.682 -22.593 -18.818  0.00  0.00    +0.027 S 
ATOM      2  O   UNL     1      32.355 -22.291 -18.301  0.00  0.00    -0.164 OA
ATOM      3  O   UNL     1      33.890 -23.790 -19.622  0.00  0.00    -0.164 OA
ENDROOT
BRANCH   1   4
ATOM      4  C   UNL     1      34.773 -22.775 -17.433  0.00  0.00    +0.110 C 
ATOM      5  C   UNL     1      36.036 -22.216 -17.495  0.00  0.00    +0.020 C 
ATOM      6  C   UNL     1      34.337 -23.472 -16.322  0.00  0.00    +0.020 C 
ATOM      7  C   UNL     1      36.474 -23.059 -15.273  0.00  0.00    +0.046 C 
ATOM      8  C   UNL     1      36.894 -22.360 -16.405  0.00  0.00    +0.016 C 
ATOM      9  C   UNL     1      35.195 -23.615 -15.232  0.00  0.00    +0.016 C 
BRANCH   7  10
ATOM     10  N   UNL     1      37.342 -23.203 -14.171  0.00  0.00    -0.314 N 
ATOM     11  H   UNL     1      37.834 -22.413 -13.848  0.00  0.00    +0.148 HD
BRANCH  10  12
ATOM     12  C   UNL     1      37.534 -24.457 -13.505  0.00  0.00    +0.235 C 
BRANCH  12  13
ATOM     13  S   UNL     1      38.936 -25.268 -14.330  0.00  0.00    -0.033 S 
ATOM     14  O   UNL     1      39.669 -24.228 -15.124  0.00  0.00    -0.079 OA
BRANCH  13  15
ATOM     15  O   UNL     1      37.983 -26.072 -15.346  0.00  0.00    -0.277 OA
ATOM     16  H   UNL     1      37.150 -25.588 -15.459  0.00  0.00    +0.242 HD
ENDBRANCH  13  15
ENDBRANCH  12  13
ENDBRANCH  10  12
ENDBRANCH   7  10
ENDBRANCH   1   4
BRANCH   1  17
ATOM     17  C   UNL     1      34.182 -21.195 -19.736  0.00  0.00    +0.110 C 
ATOM     18  C   UNL     1      33.225 -20.317 -20.245  0.00  0.00    +0.020 C 
ATOM     19  C   UNL     1      35.538 -20.955 -19.960  0.00  0.00    +0.020 C 
ATOM     20  C   UNL     1      34.980 -18.959 -21.204  0.00  0.00    +0.046 C 
ATOM     21  C   UNL     1      33.624 -19.199 -20.980  0.00  0.00    +0.016 C 
ATOM     22  C   UNL     1      35.936 -19.837 -20.694  0.00  0.00    +0.016 C 
BRANCH  20  23
ATOM     23  N   UNL     1      35.384 -17.829 -21.944  0.00  0.00    -0.314 N 
ATOM     24  H   UNL     1      36.143 -17.914 -22.565  0.00  0.00    +0.148 HD
BRANCH  23  25
ATOM     25  C   UNL     1      34.727 -16.561 -21.825  0.00  0.00    +0.235 C 
BRANCH  25  26
ATOM     26  S   UNL     1      34.809 -15.783 -23.466  0.00  0.00    -0.033 S 
ATOM     27  O   UNL     1      33.485 -15.131 -23.733  0.00  0.00    -0.079 OA
BRANCH  26  28
ATOM     28  O   UNL     1      34.815 -17.199 -24.230  0.00  0.00    -0.277 OA
ATOM     29  H   UNL     1      34.117 -17.766 -23.865  0.00  0.00    +0.242 HD
ENDBRANCH  26  28
ENDBRANCH  25  26
ENDBRANCH  23  25
ENDBRANCH  20  23
ENDBRANCH   1  17
TORSDOF 10
ENDMDL
MODEL 6
REMARK VINA RESULT:      -9.6      4.037      6.178
REMARK  Name = 5351
REMARK  10 active torsions:
REMARK  status: ('A' for Active; 'I' for Inactive)
REMARK    1  A    between atoms: S_1  and  C_4
REMARK    2  A    between atoms: S_1  and  C_17
REMARK    3  A    between atoms: C_7  and  N_10
REMARK    4  A    between atoms: N_10  and  C_12
REMARK    5  A    between atoms: C_12  and  S_13
REMARK    6  A    between atoms: S_13  and  O_15
REMARK    7  A    between atoms: C_20  and  N_23
REMARK    8  A    between atoms: N_23  and  C_25
REMARK    9  A    between atoms: C_25  and  S_26
REMARK   10  A    between atoms: S_26  and  O_28
REMARK                            x       y       z     vdW  Elec       q    Type
REMARK                         _______ _______ _______ _____ _____    ______ ____
ROOT
ATOM      1  S   UNL     1      35.550 -18.493 -22.308  0.00  0.00    +0.027 S 
ATOM      2  O   UNL     1      35.308 -18.951 -23.669  0.00  0.00    -0.164 OA
ATOM      3  O   UNL     1      36.917 -18.348 -21.827  0.00  0.00    -0.164 OA
ENDROOT
BRANCH   1   4
ATOM      4  C   UNL     1      34.795 -19.654 -21.203  0.00  0.00    +0.110 C 
ATOM      5  C   UNL     1      33.418 -19.659 -21.072  0.00  0.00    +0.020 C 
ATOM      6  C   UNL     1      35.598 -20.529 -20.496  0.00  0.00    +0.020 C 
ATOM      7  C   UNL     1      33.617 -21.465 -19.479  0.00  0.00    +0.046 C 
ATOM      8  C   UNL     1      32.824 -20.572 -20.202  0.00  0.00    +0.016 C 
ATOM      9  C   UNL     1      35.004 -21.442 -19.627  0.00  0.00    +0.016 C 
BRANCH   7  10
ATOM     10  N   UNL     1      33.015 -22.389 -18.601  0.00  0.00    -0.314 N 
ATOM     11  H   UNL     1      32.076 -22.645 -18.750  0.00  0.00    +0.148 HD
BRANCH  10  12
ATOM     12  C   UNL     1      33.722 -22.970 -17.498  0.00  0.00    +0.235 C 
BRANCH  12  13
ATOM     13  S   UNL     1      32.460 -23.498 -16.299  0.00  0.00    -0.033 S 
ATOM     14  O   UNL     1      31.230 -22.671 -16.530  0.00  0.00    -0.079 OA
BRANCH  13  15
ATOM     15  O   UNL     1      33.252 -22.852 -15.055  0.00  0.00    -0.277 OA
ATOM     16  H   UNL     1      33.745 -23.546 -14.591  0.00  0.00    +0.242 HD
ENDBRANCH  13  15
ENDBRANCH  12  13
ENDBRANCH  10  12
ENDBRANCH   7  10
ENDBRANCH   1   4
BRANCH   1  17
ATOM     17  C   UNL     1      34.725 -16.962 -22.151  0.00  0.00    +0.110 C 
ATOM     18  C   UNL     1      34.208 -16.329 -23.282  0.00  0.00    +0.020 C 
ATOM     19  C   UNL     1      34.583 -16.372 -20.895  0.00  0.00    +0.020 C 
ATOM     20  C   UNL     1      33.407 -14.515 -21.901  0.00  0.00    +0.046 C 
ATOM     21  C   UNL     1      33.549 -15.106 -23.157  0.00  0.00    +0.016 C 
ATOM     22  C   UNL     1      33.924 -15.148 -20.771  0.00  0.00    +0.016 C 
BRANCH  20  23
ATOM     23  N   UNL     1      32.739 -13.279 -21.773  0.00  0.00    -0.314 N 
ATOM     24  H   UNL     1      32.711 -12.672 -22.547  0.00  0.00    +0.148 HD
BRANCH  23  25
ATOM     25  C   UNL     1      32.099 -12.878 -20.556  0.00  0.00    +0.235 C 
BRANCH  25  26
ATOM     26  S   UNL     1      31.551 -11.162 -20.804  0.00  0.00    -0.033 S 
ATOM     27  O   UNL     1      30.806 -10.734 -19.575  0.00  0.00    -0.079 OA
BRANCH  26  28
ATOM     28  O   UNL     1      30.460 -11.582 -21.910  0.00  0.00    -0.277 OA
ATOM     29  H   UNL     1      30.540 -12.530 -22.099  0.00  0.00    +0.242 HD
ENDBRANCH  26  28
ENDBRANCH  25  26
ENDBRANCH  23  25
ENDBRANCH  20  23
ENDBRANCH   1  17
TORSDOF 10
ENDMDL
MODEL 7
REMARK VINA RESULT:      -9.6      4.021     10.049
REMARK  Name = 5351
REMARK  10 active torsions:
REMARK  status: ('A' for Active; 'I' for Inactive)
REMARK    1  A    between atoms: S_1  and  C_4
REMARK    2  A    between atoms: S_1  and  C_17
REMARK    3  A    between atoms: C_7  and  N_10
REMARK    4  A    between atoms: N_10  and  C_12
REMARK    5  A    between atoms: C_12  and  S_13
REMARK    6  A    between atoms: S_13  and  O_15
REMARK    7  A    between atoms: C_20  and  N_23
REMARK    8  A    between atoms: N_23  and  C_25
REMARK    9  A    between atoms: C_25  and  S_26
REMARK   10  A    between atoms: S_26  and  O_28
REMARK                            x       y       z     vdW  Elec       q    Type
REMARK                         _______ _______ _______ _____ _____    ______ ____
ROOT
ATOM      1  S   UNL     1      35.560 -18.514 -22.322  0.00  0.00    +0.027 S 
ATOM      2  O   UNL     1      36.924 -18.333 -21.845  0.00  0.00    -0.164 OA
ATOM      3  O   UNL     1      35.326 -18.943 -23.695  0.00  0.00    -0.164 OA
ENDROOT
BRANCH   1   4
ATOM      4  C   UNL     1      34.726 -16.958 -22.178  0.00  0.00    +0.110 C 
ATOM      5  C   UNL     1      34.224 -16.357 -23.317  0.00  0.00    +0.020 C 
ATOM      6  C   UNL     1      34.595 -16.379 -20.930  0.00  0.00    +0.020 C 
ATOM      7  C   UNL     1      33.424 -14.530 -21.953  0.00  0.00    +0.046 C 
ATOM      8  C   UNL     1      33.567 -15.133 -23.204  0.00  0.00    +0.016 C 
ATOM      9  C   UNL     1      33.939 -15.154 -20.817  0.00  0.00    +0.016 C 
BRANCH   7  10
ATOM     10  N   UNL     1      32.759 -13.293 -21.839  0.00  0.00    -0.314 N 
ATOM     11  H   UNL     1      32.782 -12.669 -22.602  0.00  0.00    +0.148 HD
BRANCH  10  12
ATOM     12  C   UNL     1      32.051 -12.909 -20.655  0.00  0.00    +0.235 C 
BRANCH  12  13
ATOM     13  S   UNL     1      31.566 -11.172 -20.884  0.00  0.00    -0.033 S 
ATOM     14  O   UNL     1      30.821 -10.734 -19.657  0.00  0.00    -0.079 OA
BRANCH  13  15
ATOM     15  O   UNL     1      30.474 -11.537 -22.008  0.00  0.00    -0.277 OA
ATOM     16  H   UNL     1      29.585 -11.488 -21.624  0.00  0.00    +0.242 HD
ENDBRANCH  13  15
ENDBRANCH  12  13
ENDBRANCH  10  12
ENDBRANCH   7  10
ENDBRANCH   1   4
BRANCH   1  17
ATOM     17  C   UNL     1      34.805 -19.651 -21.233  0.00  0.00    +0.110 C 
ATOM     18  C   UNL     1      35.590 -20.549 -20.509  0.00  0.00    +0.020 C 
ATOM     19  C   UNL     1      33.418 -19.661 -21.087  0.00  0.00    +0.020 C 
ATOM     20  C   UNL     1      33.599 -21.467 -19.492  0.00  0.00    +0.046 C 
ATOM     21  C   UNL     1      34.986 -21.457 -19.638  0.00  0.00    +0.016 C 
ATOM     22  C   UNL     1      32.815 -20.570 -20.216  0.00  0.00    +0.016 C 
BRANCH  20  23
ATOM     23  N   UNL     1      32.988 -22.384 -18.610  0.00  0.00    -0.314 N 
ATOM     24  H   UNL     1      32.046 -22.627 -18.756  0.00  0.00    +0.148 HD
BRANCH  23  25
ATOM     25  C   UNL     1      33.693 -22.974 -17.512  0.00  0.00    +0.235 C 
BRANCH  25  26
ATOM     26  S   UNL     1      32.432 -23.490 -16.309  0.00  0.00    -0.033 S 
ATOM     27  O   UNL     1      31.206 -22.657 -16.540  0.00  0.00    -0.079 OA
BRANCH  26  28
ATOM     28  O   UNL     1      33.228 -22.844 -15.069  0.00  0.00    -0.277 OA
ATOM     29  H   UNL     1      32.742 -23.016 -14.247  0.00  0.00    +0.242 HD
ENDBRANCH  26  28
ENDBRANCH  25  26
ENDBRANCH  23  25
ENDBRANCH  20  23
ENDBRANCH   1  17
TORSDOF 10
ENDMDL
MODEL 8
REMARK VINA RESULT:      -9.5      3.640     10.475
REMARK  Name = 5351
REMARK  10 active torsions:
REMARK  status: ('A' for Active; 'I' for Inactive)
REMARK    1  A    between atoms: S_1  and  C_4
REMARK    2  A    between atoms: S_1  and  C_17
REMARK    3  A    between atoms: C_7  and  N_10
REMARK    4  A    between atoms: N_10  and  C_12
REMARK    5  A    between atoms: C_12  and  S_13
REMARK    6  A    between atoms: S_13  and  O_15
REMARK    7  A    between atoms: C_20  and  N_23
REMARK    8  A    between atoms: N_23  and  C_25
REMARK    9  A    between atoms: C_25  and  S_26
REMARK   10  A    between atoms: S_26  and  O_28
REMARK                            x       y       z     vdW  Elec       q    Type
REMARK                         _______ _______ _______ _____ _____    ______ ____
ROOT
ATOM      1  S   UNL     1      35.672 -18.620 -22.310  0.00  0.00    +0.027 S 
ATOM      2  O   UNL     1      37.035 -18.474 -21.819  0.00  0.00    -0.164 OA
ATOM      3  O   UNL     1      35.440 -19.083 -23.672  0.00  0.00    -0.164 OA
ENDROOT
BRANCH   1   4
ATOM      4  C   UNL     1      34.893 -17.030 -22.227  0.00  0.00    +0.110 C 
ATOM      5  C   UNL     1      34.787 -16.398 -21.002  0.00  0.00    +0.020 C 
ATOM      6  C   UNL     1      34.409 -16.458 -23.388  0.00  0.00    +0.020 C 
ATOM      7  C   UNL     1      33.679 -14.551 -22.097  0.00  0.00    +0.046 C 
ATOM      8  C   UNL     1      34.174 -15.147 -20.937  0.00  0.00    +0.016 C 
ATOM      9  C   UNL     1      33.796 -15.208 -23.323  0.00  0.00    +0.016 C 
BRANCH   7  10
ATOM     10  N   UNL     1      33.060 -13.286 -22.031  0.00  0.00    -0.314 N 
ATOM     11  H   UNL     1      33.042 -12.811 -21.168  0.00  0.00    +0.148 HD
BRANCH  10  12
ATOM     12  C   UNL     1      32.457 -12.666 -23.173  0.00  0.00    +0.235 C 
BRANCH  12  13
ATOM     13  S   UNL     1      33.650 -11.437 -23.782  0.00  0.00    -0.033 S 
ATOM     14  O   UNL     1      32.958 -10.106 -23.829  0.00  0.00    -0.079 OA
BRANCH  13  15
ATOM     15  O   UNL     1      33.639 -12.041 -25.274  0.00  0.00    -0.277 OA
ATOM     16  H   UNL     1      32.956 -11.595 -25.798  0.00  0.00    +0.242 HD
ENDBRANCH  13  15
ENDBRANCH  12  13
ENDBRANCH  10  12
ENDBRANCH   7  10
ENDBRANCH   1   4
BRANCH   1  17
ATOM     17  C   UNL     1      34.860 -19.693 -21.197  0.00  0.00    +0.110 C 
ATOM     18  C   UNL     1      35.602 -20.586 -20.424  0.00  0.00    +0.020 C 
ATOM     19  C   UNL     1      33.471 -19.657 -21.081  0.00  0.00    +0.020 C 
ATOM     20  C   UNL     1      33.564 -21.408 -19.418  0.00  0.00    +0.046 C 
ATOM     21  C   UNL     1      34.954 -21.444 -19.534  0.00  0.00    +0.016 C 
ATOM     22  C   UNL     1      32.823 -20.515 -20.191  0.00  0.00    +0.016 C 
BRANCH  20  23
ATOM     23  N   UNL     1      32.908 -22.273 -18.518  0.00  0.00    -0.314 N 
ATOM     24  H   UNL     1      32.013 -22.028 -18.190  0.00  0.00    +0.148 HD
BRANCH  23  25
ATOM     25  C   UNL     1      33.499 -23.498 -18.065  0.00  0.00    +0.235 C 
BRANCH  25  26
ATOM     26  S   UNL     1      34.004 -23.218 -16.341  0.00  0.00    -0.033 S 
ATOM     27  O   UNL     1      34.982 -24.293 -15.967  0.00  0.00    -0.079 OA
BRANCH  26  28
ATOM     28  O   UNL     1      32.567 -23.649 -15.762  0.00  0.00    -0.277 OA
ATOM     29  H   UNL     1      31.880 -23.445 -16.416  0.00  0.00    +0.242 HD
ENDBRANCH  26  28
ENDBRANCH  25  26
ENDBRANCH  23  25
ENDBRANCH  20  23
ENDBRANCH   1  17
TORSDOF 10
ENDMDL
MODEL 9
REMARK VINA RESULT:      -9.3      3.719      6.056
REMARK  Name = 5351
REMARK  10 active torsions:
REMARK  status: ('A' for Active; 'I' for Inactive)
REMARK    1  A    between atoms: S_1  and  C_4
REMARK    2  A    between atoms: S_1  and  C_17
REMARK    3  A    between atoms: C_7  and  N_10
REMARK    4  A    between atoms: N_10  and  C_12
REMARK    5  A    between atoms: C_12  and  S_13
REMARK    6  A    between atoms: S_13  and  O_15
REMARK    7  A    between atoms: C_20  and  N_23
REMARK    8  A    between atoms: N_23  and  C_25
REMARK    9  A    between atoms: C_25  and  S_26
REMARK   10  A    between atoms: S_26  and  O_28
REMARK                            x       y       z     vdW  Elec       q    Type
REMARK                         _______ _______ _______ _____ _____    ______ ____
ROOT
ATOM      1  S   UNL     1      35.771 -18.584 -22.301  0.00  0.00    +0.027 S 
ATOM      2  O   UNL     1      35.614 -19.083 -23.660  0.00  0.00    -0.164 OA
ATOM      3  O   UNL     1      37.101 -18.504 -21.710  0.00  0.00    -0.164 OA
ENDROOT
BRANCH   1   4
ATOM      4  C   UNL     1      34.854 -19.650 -21.224  0.00  0.00    +0.110 C 
ATOM      5  C   UNL     1      35.538 -20.543 -20.420  0.00  0.00    +0.020 C 
ATOM      6  C   UNL     1      33.474 -19.566 -21.210  0.00  0.00    +0.020 C 
ATOM      7  C   UNL     1      33.423 -21.313 -19.543  0.00  0.00    +0.046 C 
ATOM      8  C   UNL     1      34.817 -21.382 -19.572  0.00  0.00    +0.016 C 
ATOM      9  C   UNL     1      32.753 -20.405 -20.362  0.00  0.00    +0.016 C 
BRANCH   7  10
ATOM     10  N   UNL     1      32.694 -22.161 -18.684  0.00  0.00    -0.314 N 
ATOM     11  H   UNL     1      31.710 -22.156 -18.735  0.00  0.00    +0.148 HD
BRANCH  10  12
ATOM     12  C   UNL     1      33.332 -23.030 -17.741  0.00  0.00    +0.235 C 
BRANCH  12  13
ATOM     13  S   UNL     1      32.381 -22.902 -16.197  0.00  0.00    -0.033 S 
ATOM     14  O   UNL     1      32.332 -24.264 -15.570  0.00  0.00    -0.079 OA
BRANCH  13  15
ATOM     15  O   UNL     1      30.990 -22.676 -16.973  0.00  0.00    -0.277 OA
ATOM     16  H   UNL     1      30.282 -22.518 -16.330  0.00  0.00    +0.242 HD
ENDBRANCH  13  15
ENDBRANCH  12  13
ENDBRANCH  10  12
ENDBRANCH   7  10
ENDBRANCH   1   4
BRANCH   1  17
ATOM     17  C   UNL     1      35.037 -17.001 -22.271  0.00  0.00    +0.110 C 
ATOM     18  C   UNL     1      34.831 -16.351 -21.054  0.00  0.00    +0.020 C 
ATOM     19  C   UNL     1      34.657 -16.385 -23.464  0.00  0.00    +0.020 C 
ATOM     20  C   UNL     1      33.863 -14.469 -22.222  0.00  0.00    +0.046 C 
ATOM     21  C   UNL     1      34.243 -15.085 -21.030  0.00  0.00    +0.016 C 
ATOM     22  C   UNL     1      34.070 -15.119 -23.439  0.00  0.00    +0.016 C 
BRANCH  20  23
ATOM     23  N   UNL     1      33.271 -13.189 -22.199  0.00  0.00    -0.314 N 
ATOM     24  H   UNL     1      33.296 -12.670 -21.363  0.00  0.00    +0.148 HD
BRANCH  23  25
ATOM     25  C   UNL     1      32.636 -12.619 -23.350  0.00  0.00    +0.235 C 
BRANCH  25  26
ATOM     26  S   UNL     1      33.750 -11.318 -23.960  0.00  0.00    -0.033 S 
ATOM     27  O   UNL     1      32.976 -10.034 -24.008  0.00  0.00    -0.079 OA
BRANCH  26  28
ATOM     28  O   UNL     1      33.778 -11.923 -25.450  0.00  0.00    -0.277 OA
ATOM     29  H   UNL     1      33.958 -11.211 -26.084  0.00  0.00    +0.242 HD
ENDBRANCH  26  28
ENDBRANCH  25  26
ENDBRANCH  23  25
ENDBRANCH  20  23
ENDBRANCH   1  17
TORSDOF 10
ENDMDL
