MODEL 1
REMARK VINA RESULT:      -9.7      0.000      0.000
REMARK  Name = 445227
REMARK  8 active torsions:
REMARK  status: ('A' for Active; 'I' for Inactive)
REMARK    1  A    between atoms: C_3  and  O_8
REMARK    2  A    between atoms: C_4  and  O_10
REMARK    3  A    between atoms: C_5  and  C_25
REMARK    4  A    between atoms: C_7  and  O_12
REMARK    5  A    between atoms: O_12  and  C_13
REMARK    6  A    between atoms: C_14  and  N_21
REMARK    7  A    between atoms: C_18  and  N_24
REMARK    8  A    between atoms: C_25  and  O_26
REMARK                            x       y       z     vdW  Elec       q    Type
REMARK                         _______ _______ _______ _____ _____    ______ ____
ROOT
ATOM      1  F   UNL     1      36.015 -26.571 -15.825  0.00  0.00    -0.228 F 
ATOM      2  O   UNL     1      36.323 -23.554 -13.891  0.00  0.00    -0.316 OA
ATOM      3  C   UNL     1      37.829 -25.198 -12.930  0.00  0.00    +0.170 C 
ATOM      4  C   UNL     1      37.310 -26.255 -13.905  0.00  0.00    +0.179 C 
ATOM      5  C   UNL     1      36.756 -24.139 -12.662  0.00  0.00    +0.177 C 
ATOM      6  C   UNL     1      36.698 -25.609 -15.140  0.00  0.00    +0.259 C 
ATOM      7  C   UNL     1      35.719 -24.501 -14.771  0.00  0.00    +0.324 C 
ENDROOT
BRANCH   3   8
ATOM      8  O   UNL     1      38.190 -25.827 -11.703  0.00  0.00    -0.379 OA
ATOM      9  H   UNL     1      37.568 -25.560 -11.008  0.00  0.00    +0.211 HD
ENDBRANCH   3   8
BRANCH   4  10
ATOM     10  O   UNL     1      38.405 -27.077 -14.304  0.00  0.00    -0.379 OA
ATOM     11  H   UNL     1      38.722 -27.588 -13.541  0.00  0.00    +0.211 HD
ENDBRANCH   4  10
BRANCH   7  12
ATOM     12  O   UNL     1      35.261 -23.845 -15.952  0.00  0.00    -0.449 OA
BRANCH  12  13
ATOM     13  C   UNL     1      33.928 -23.543 -16.008  0.00  0.00    +0.164 C 
ATOM     14  C   UNL     1      33.326 -23.181 -17.210  0.00  0.00    +0.178 C 
ATOM     15  C   UNL     1      33.177 -23.606 -14.837  0.00  0.00    +0.040 C 
ATOM     16  C   UNL     1      31.965 -22.879 -17.242  0.00  0.00    +0.051 C 
ATOM     17  C   UNL     1      31.815 -23.305 -14.868  0.00  0.00    +0.027 C 
ATOM     18  C   UNL     1      31.210 -22.941 -16.070  0.00  0.00    +0.145 C 
BRANCH  14  21
ATOM     19  O   UNL     1      34.960 -22.226 -18.528  0.00  0.00    -0.126 OA
ATOM     20  O   UNL     1      33.849 -23.945 -19.322  0.00  0.00    -0.126 OA
ATOM     21  N   UNL     1      34.082 -23.114 -18.413  0.00  0.00    +0.061 N 
ENDBRANCH  14  21
BRANCH  18  24
ATOM     22  O   UNL     1      29.190 -22.568 -15.021  0.00  0.00    -0.126 OA
ATOM     23  O   UNL     1      29.269 -22.442 -17.212  0.00  0.00    -0.126 OA
ATOM     24  N   UNL     1      29.823 -22.636 -16.103  0.00  0.00    +0.058 N 
ENDBRANCH  18  24
ENDBRANCH  12  13
ENDBRANCH   7  12
BRANCH   5  25
ATOM     25  C   UNL     1      37.284 -23.014 -11.778  0.00  0.00    +0.169 C 
BRANCH  25  26
ATOM     26  O   UNL     1      38.692 -23.142 -11.678  0.00  0.00    -0.379 OA
ATOM     27  H   UNL     1      38.933 -23.354 -10.762  0.00  0.00    +0.211 HD
ENDBRANCH  25  26
ENDBRANCH   5  25
TORSDOF 8
ENDMDL
MODEL 2
REMARK VINA RESULT:      -9.1      2.864      7.363
REMARK  Name = 445227
REMARK  8 active torsions:
REMARK  status: ('A' for Active; 'I' for Inactive)
REMARK    1  A    between atoms: C_3  and  O_8
REMARK    2  A    between atoms: C_4  and  O_10
REMARK    3  A    between atoms: C_5  and  C_25
REMARK    4  A    between atoms: C_7  and  O_12
REMARK    5  A    between atoms: O_12  and  C_13
REMARK    6  A    between atoms: C_14  and  N_21
REMARK    7  A    between atoms: C_18  and  N_24
REMARK    8  A    between atoms: C_25  and  O_26
REMARK                            x       y       z     vdW  Elec       q    Type
REMARK                         _______ _______ _______ _____ _____    ______ ____
ROOT
ATOM      1  F   UNL     1      32.284 -25.043 -13.121  0.00  0.00    -0.228 F 
ATOM      2  O   UNL     1      34.653 -23.610 -15.418  0.00  0.00    -0.316 OA
ATOM      3  C   UNL     1      32.431 -22.975 -16.164  0.00  0.00    +0.170 C 
ATOM      4  C   UNL     1      31.808 -23.836 -15.065  0.00  0.00    +0.179 C 
ATOM      5  C   UNL     1      33.804 -23.524 -16.564  0.00  0.00    +0.177 C 
ATOM      6  C   UNL     1      32.787 -24.059 -13.921  0.00  0.00    +0.259 C 
ATOM      7  C   UNL     1      34.153 -24.507 -14.427  0.00  0.00    +0.324 C 
ENDROOT
BRANCH   3   8
ATOM      8  O   UNL     1      31.573 -22.973 -17.302  0.00  0.00    -0.379 OA
ATOM      9  H   UNL     1      31.962 -23.519 -18.002  0.00  0.00    +0.211 HD
ENDBRANCH   3   8
BRANCH   4  10
ATOM     10  O   UNL     1      30.653 -23.162 -14.565  0.00  0.00    -0.379 OA
ATOM     11  H   UNL     1      29.858 -23.669 -14.795  0.00  0.00    +0.211 HD
ENDBRANCH   4  10
BRANCH   7  12
ATOM     12  O   UNL     1      35.071 -24.589 -13.338  0.00  0.00    -0.449 OA
BRANCH  12  13
ATOM     13  C   UNL     1      36.354 -24.954 -13.643  0.00  0.00    +0.164 C 
ATOM     14  C   UNL     1      37.423 -24.534 -12.858  0.00  0.00    +0.178 C 
ATOM     15  C   UNL     1      36.574 -25.759 -14.759  0.00  0.00    +0.040 C 
ATOM     16  C   UNL     1      38.722 -24.920 -13.188  0.00  0.00    +0.051 C 
ATOM     17  C   UNL     1      37.872 -26.146 -15.090  0.00  0.00    +0.027 C 
ATOM     18  C   UNL     1      38.946 -25.727 -14.305  0.00  0.00    +0.145 C 
BRANCH  14  21
ATOM     19  O   UNL     1      37.455 -22.485 -11.798  0.00  0.00    -0.126 OA
ATOM     20  O   UNL     1      36.785 -24.240 -10.661  0.00  0.00    -0.126 OA
ATOM     21  N   UNL     1      37.211 -23.713 -11.715  0.00  0.00    +0.061 N 
ENDBRANCH  14  21
BRANCH  18  24
ATOM     22  O   UNL     1      41.029 -26.531 -13.731  0.00  0.00    -0.126 OA
ATOM     23  O   UNL     1      40.638 -26.053 -15.837  0.00  0.00    -0.126 OA
ATOM     24  N   UNL     1      40.268 -26.122 -14.641  0.00  0.00    +0.058 N 
ENDBRANCH  18  24
ENDBRANCH  12  13
ENDBRANCH   7  12
BRANCH   5  25
ATOM     25  C   UNL     1      34.495 -22.622 -17.581  0.00  0.00    +0.169 C 
BRANCH  25  26
ATOM     26  O   UNL     1      34.203 -23.102 -18.882  0.00  0.00    -0.379 OA
ATOM     27  H   UNL     1      34.306 -22.382 -19.524  0.00  0.00    +0.211 HD
ENDBRANCH  25  26
ENDBRANCH   5  25
TORSDOF 8
ENDMDL
MODEL 3
REMARK VINA RESULT:      -8.6      3.105      7.214
REMARK  Name = 445227
REMARK  8 active torsions:
REMARK  status: ('A' for Active; 'I' for Inactive)
REMARK    1  A    between atoms: C_3  and  O_8
REMARK    2  A    between atoms: C_4  and  O_10
REMARK    3  A    between atoms: C_5  and  C_25
REMARK    4  A    between atoms: C_7  and  O_12
REMARK    5  A    between atoms: O_12  and  C_13
REMARK    6  A    between atoms: C_14  and  N_21
REMARK    7  A    between atoms: C_18  and  N_24
REMARK    8  A    between atoms: C_25  and  O_26
REMARK                            x       y       z     vdW  Elec       q    Type
REMARK                         _______ _______ _______ _____ _____    ______ ____
ROOT
ATOM      1  F   UNL     1      36.172 -22.916 -14.395  0.00  0.00    -0.228 F 
ATOM      2  O   UNL     1      33.282 -24.750 -13.289  0.00  0.00    -0.316 OA
ATOM      3  C   UNL     1      32.799 -23.887 -15.507  0.00  0.00    +0.170 C 
ATOM      4  C   UNL     1      34.133 -23.141 -15.515  0.00  0.00    +0.179 C 
ATOM      5  C   UNL     1      32.296 -24.075 -14.072  0.00  0.00    +0.177 C 
ATOM      6  C   UNL     1      35.123 -23.774 -14.548  0.00  0.00    +0.259 C 
ATOM      7  C   UNL     1      34.498 -24.012 -13.177  0.00  0.00    +0.324 C 
ENDROOT
BRANCH   3   8
ATOM      8  O   UNL     1      31.839 -23.142 -16.251  0.00  0.00    -0.379 OA
ATOM      9  H   UNL     1      32.289 -22.629 -16.939  0.00  0.00    +0.211 HD
ENDBRANCH   3   8
BRANCH   4  10
ATOM     10  O   UNL     1      34.672 -23.197 -16.836  0.00  0.00    -0.379 OA
ATOM     11  H   UNL     1      35.180 -24.017 -16.944  0.00  0.00    +0.211 HD
ENDBRANCH   4  10
BRANCH   7  12
ATOM     12  O   UNL     1      35.417 -24.713 -12.341  0.00  0.00    -0.449 OA
BRANCH  12  13
ATOM     13  C   UNL     1      36.623 -25.044 -12.897  0.00  0.00    +0.164 C 
ATOM     14  C   UNL     1      37.778 -24.338 -12.573  0.00  0.00    +0.178 C 
ATOM     15  C   UNL     1      36.676 -26.106 -13.797  0.00  0.00    +0.040 C 
ATOM     16  C   UNL     1      38.995 -24.696 -13.152  0.00  0.00    +0.051 C 
ATOM     17  C   UNL     1      37.893 -26.464 -14.376  0.00  0.00    +0.027 C 
ATOM     18  C   UNL     1      39.052 -25.759 -14.054  0.00  0.00    +0.145 C 
BRANCH  14  21
ATOM     19  O   UNL     1      38.369 -22.205 -11.927  0.00  0.00    -0.126 OA
ATOM     20  O   UNL     1      37.069 -23.375 -10.601  0.00  0.00    -0.126 OA
ATOM     21  N   UNL     1      37.737 -23.253 -11.655  0.00  0.00    +0.061 N 
ENDBRANCH  14  21
BRANCH  18  24
ATOM     22  O   UNL     1      41.157 -26.693 -13.933  0.00  0.00    -0.126 OA
ATOM     23  O   UNL     1      40.488 -25.871 -15.855  0.00  0.00    -0.126 OA
ATOM     24  N   UNL     1      40.292 -26.125 -14.642  0.00  0.00    +0.058 N 
ENDBRANCH  18  24
ENDBRANCH  12  13
ENDBRANCH   7  12
BRANCH   5  25
ATOM     25  C   UNL     1      31.021 -24.911 -14.028  0.00  0.00    +0.169 C 
BRANCH  25  26
ATOM     26  O   UNL     1      30.465 -24.817 -12.728  0.00  0.00    -0.379 OA
ATOM     27  H   UNL     1      30.878 -24.077 -12.253  0.00  0.00    +0.211 HD
ENDBRANCH  25  26
ENDBRANCH   5  25
TORSDOF 8
ENDMDL
MODEL 4
REMARK VINA RESULT:      -8.6     11.763     14.225
REMARK  Name = 445227
REMARK  8 active torsions:
REMARK  status: ('A' for Active; 'I' for Inactive)
REMARK    1  A    between atoms: C_3  and  O_8
REMARK    2  A    between atoms: C_4  and  O_10
REMARK    3  A    between atoms: C_5  and  C_25
REMARK    4  A    between atoms: C_7  and  O_12
REMARK    5  A    between atoms: O_12  and  C_13
REMARK    6  A    between atoms: C_14  and  N_21
REMARK    7  A    between atoms: C_18  and  N_24
REMARK    8  A    between atoms: C_25  and  O_26
REMARK                            x       y       z     vdW  Elec       q    Type
REMARK                         _______ _______ _______ _____ _____    ______ ____
ROOT
ATOM      1  F   UNL     1      34.191 -14.244 -20.572  0.00  0.00    -0.228 F 
ATOM      2  O   UNL     1      33.542 -15.241 -23.967  0.00  0.00    -0.316 OA
ATOM      3  C   UNL     1      34.854 -16.998 -22.924  0.00  0.00    +0.170 C 
ATOM      4  C   UNL     1      34.987 -16.157 -21.655  0.00  0.00    +0.179 C 
ATOM      5  C   UNL     1      34.670 -16.099 -24.150  0.00  0.00    +0.177 C 
ATOM      6  C   UNL     1      33.867 -15.131 -21.557  0.00  0.00    +0.259 C 
ATOM      7  C   UNL     1      33.696 -14.356 -22.859  0.00  0.00    +0.324 C 
ENDROOT
BRANCH   3   8
ATOM      8  O   UNL     1      36.029 -17.788 -23.090  0.00  0.00    -0.379 OA
ATOM      9  H   UNL     1      36.496 -17.508 -23.892  0.00  0.00    +0.211 HD
ENDBRANCH   3   8
BRANCH   4  10
ATOM     10  O   UNL     1      34.920 -17.028 -20.527  0.00  0.00    -0.379 OA
ATOM     11  H   UNL     1      35.774 -17.026 -20.065  0.00  0.00    +0.211 HD
ENDBRANCH   4  10
BRANCH   7  12
ATOM     12  O   UNL     1      32.564 -13.493 -22.764  0.00  0.00    -0.449 OA
BRANCH  12  13
ATOM     13  C   UNL     1      32.795 -12.157 -22.949  0.00  0.00    +0.164 C 
ATOM     14  C   UNL     1      32.214 -11.209 -22.111  0.00  0.00    +0.178 C 
ATOM     15  C   UNL     1      33.626 -11.758 -23.993  0.00  0.00    +0.040 C 
ATOM     16  C   UNL     1      32.466  -9.852 -22.318  0.00  0.00    +0.051 C 
ATOM     17  C   UNL     1      33.879 -10.402 -24.200  0.00  0.00    +0.027 C 
ATOM     18  C   UNL     1      33.298  -9.450 -23.363  0.00  0.00    +0.145 C 
BRANCH  14  21
ATOM     19  O   UNL     1      31.875 -12.132 -20.025  0.00  0.00    -0.126 OA
ATOM     20  O   UNL     1      30.130 -11.410 -21.144  0.00  0.00    -0.126 OA
ATOM     21  N   UNL     1      31.364 -11.603 -21.041  0.00  0.00    +0.061 N 
ENDBRANCH  14  21
BRANCH  18  24
ATOM     22  O   UNL     1      32.636  -7.339 -24.014  0.00  0.00    -0.126 OA
ATOM     23  O   UNL     1      34.697  -7.617 -23.310  0.00  0.00    -0.126 OA
ATOM     24  N   UNL     1      33.556  -8.069 -23.573  0.00  0.00    +0.058 N 
ENDBRANCH  18  24
ENDBRANCH  12  13
ENDBRANCH   7  12
BRANCH   5  25
ATOM     25  C   UNL     1      34.426 -16.915 -25.415  0.00  0.00    +0.169 C 
BRANCH  25  26
ATOM     26  O   UNL     1      33.610 -16.157 -26.290  0.00  0.00    -0.379 OA
ATOM     27  H   UNL     1      33.460 -15.276 -25.911  0.00  0.00    +0.211 HD
ENDBRANCH  25  26
ENDBRANCH   5  25
TORSDOF 8
ENDMDL
MODEL 5
REMARK VINA RESULT:      -8.5     11.705     14.650
REMARK  Name = 445227
REMARK  8 active torsions:
REMARK  status: ('A' for Active; 'I' for Inactive)
REMARK    1  A    between atoms: C_3  and  O_8
REMARK    2  A    between atoms: C_4  and  O_10
REMARK    3  A    between atoms: C_5  and  C_25
REMARK    4  A    between atoms: C_7  and  O_12
REMARK    5  A    between atoms: O_12  and  C_13
REMARK    6  A    between atoms: C_14  and  N_21
REMARK    7  A    between atoms: C_18  and  N_24
REMARK    8  A    between atoms: C_25  and  O_26
REMARK                            x       y       z     vdW  Elec       q    Type
REMARK                         _______ _______ _______ _____ _____    ______ ____
ROOT
ATOM      1  F   UNL     1      34.702 -10.941 -24.730  0.00  0.00    -0.228 F 
ATOM      2  O   UNL     1      31.950 -12.206 -22.790  0.00  0.00    -0.316 OA
ATOM      3  C   UNL     1      32.125  -9.825 -22.350  0.00  0.00    +0.170 C 
ATOM      4  C   UNL     1      33.388  -9.751 -23.207  0.00  0.00    +0.179 C 
ATOM      5  C   UNL     1      31.961 -11.225 -21.751  0.00  0.00    +0.177 C 
ATOM      6  C   UNL     1      33.446 -10.903 -24.200  0.00  0.00    +0.259 C 
ATOM      7  C   UNL     1      33.172 -12.243 -23.527  0.00  0.00    +0.324 C 
ENDROOT
BRANCH   3   8
ATOM      8  O   UNL     1      32.214  -8.869 -21.297  0.00  0.00    -0.379 OA
ATOM      9  H   UNL     1      32.057  -9.308 -20.447  0.00  0.00    +0.211 HD
ENDBRANCH   3   8
BRANCH   4  10
ATOM     10  O   UNL     1      33.375  -8.518 -23.924  0.00  0.00    -0.379 OA
ATOM     11  H   UNL     1      32.497  -8.379 -24.314  0.00  0.00    +0.211 HD
ENDBRANCH   4  10
BRANCH   7  12
ATOM     12  O   UNL     1      33.117 -13.277 -24.508  0.00  0.00    -0.449 OA
BRANCH  12  13
ATOM     13  C   UNL     1      33.709 -14.466 -24.180  0.00  0.00    +0.164 C 
ATOM     14  C   UNL     1      33.775 -15.509 -25.098  0.00  0.00    +0.178 C 
ATOM     15  C   UNL     1      34.249 -14.615 -22.905  0.00  0.00    +0.040 C 
ATOM     16  C   UNL     1      34.385 -16.712 -24.741  0.00  0.00    +0.051 C 
ATOM     17  C   UNL     1      34.860 -15.817 -22.547  0.00  0.00    +0.027 C 
ATOM     18  C   UNL     1      34.927 -16.865 -23.464  0.00  0.00    +0.145 C 
BRANCH  14  21
ATOM     19  O   UNL     1      33.716 -14.509 -27.176  0.00  0.00    -0.126 OA
ATOM     20  O   UNL     1      32.275 -16.107 -26.745  0.00  0.00    -0.126 OA
ATOM     21  N   UNL     1      33.228 -15.368 -26.404  0.00  0.00    +0.061 N 
ENDBRANCH  14  21
BRANCH  18  24
ATOM     22  O   UNL     1      35.399 -19.090 -23.840  0.00  0.00    -0.126 OA
ATOM     23  O   UNL     1      36.235 -18.133 -22.050  0.00  0.00    -0.126 OA
ATOM     24  N   UNL     1      35.550 -18.089 -23.100  0.00  0.00    +0.058 N 
ENDBRANCH  18  24
ENDBRANCH  12  13
ENDBRANCH   7  12
BRANCH   5  25
ATOM     25  C   UNL     1      30.651 -11.358 -20.981  0.00  0.00    +0.169 C 
BRANCH  25  26
ATOM     26  O   UNL     1      30.884 -10.997 -19.631  0.00  0.00    -0.379 OA
ATOM     27  H   UNL     1      30.798 -10.035 -19.534  0.00  0.00    +0.211 HD
ENDBRANCH  25  26
ENDBRANCH   5  25
TORSDOF 8
ENDMDL
MODEL 6
REMARK VINA RESULT:      -8.4      2.680      6.855
REMARK  Name = 445227
REMARK  8 active torsions:
REMARK  status: ('A' for Active; 'I' for Inactive)
REMARK    1  A    between atoms: C_3  and  O_8
REMARK    2  A    between atoms: C_4  and  O_10
REMARK    3  A    between atoms: C_5  and  C_25
REMARK    4  A    between atoms: C_7  and  O_12
REMARK    5  A    between atoms: O_12  and  C_13
REMARK    6  A    between atoms: C_14  and  N_21
REMARK    7  A    between atoms: C_18  and  N_24
REMARK    8  A    between atoms: C_25  and  O_26
REMARK                            x       y       z     vdW  Elec       q    Type
REMARK                         _______ _______ _______ _____ _____    ______ ____
ROOT
ATOM      1  F   UNL     1      33.791 -25.042 -12.549  0.00  0.00    -0.228 F 
ATOM      2  O   UNL     1      33.676 -23.106 -15.578  0.00  0.00    -0.316 OA
ATOM      3  C   UNL     1      31.426 -23.900 -15.128  0.00  0.00    +0.170 C 
ATOM      4  C   UNL     1      31.940 -24.704 -13.934  0.00  0.00    +0.179 C 
ATOM      5  C   UNL     1      32.532 -23.721 -16.173  0.00  0.00    +0.177 C 
ATOM      6  C   UNL     1      33.252 -24.135 -13.413  0.00  0.00    +0.259 C 
ATOM      7  C   UNL     1      34.251 -23.898 -14.540  0.00  0.00    +0.324 C 
ENDROOT
BRANCH   3   8
ATOM      8  O   UNL     1      30.326 -24.587 -15.719  0.00  0.00    -0.379 OA
ATOM      9  H   UNL     1      29.772 -23.955 -16.202  0.00  0.00    +0.211 HD
ENDBRANCH   3   8
BRANCH   4  10
ATOM     10  O   UNL     1      30.962 -24.645 -12.896  0.00  0.00    -0.379 OA
ATOM     11  H   UNL     1      30.075 -24.610 -13.289  0.00  0.00    +0.211 HD
ENDBRANCH   4  10
BRANCH   7  12
ATOM     12  O   UNL     1      35.417 -23.257 -14.027  0.00  0.00    -0.449 OA
BRANCH  12  13
ATOM     13  C   UNL     1      36.610 -23.895 -14.233  0.00  0.00    +0.164 C 
ATOM     14  C   UNL     1      37.421 -23.565 -15.314  0.00  0.00    +0.178 C 
ATOM     15  C   UNL     1      37.002 -24.887 -13.337  0.00  0.00    +0.040 C 
ATOM     16  C   UNL     1      38.633 -24.229 -15.502  0.00  0.00    +0.051 C 
ATOM     17  C   UNL     1      38.214 -25.551 -13.524  0.00  0.00    +0.027 C 
ATOM     18  C   UNL     1      39.029 -25.223 -14.606  0.00  0.00    +0.145 C 
BRANCH  14  21
ATOM     19  O   UNL     1      36.176 -22.827 -17.111  0.00  0.00    -0.126 OA
ATOM     20  O   UNL     1      37.555 -21.418 -16.146  0.00  0.00    -0.126 OA
ATOM     21  N   UNL     1      37.032 -22.553 -16.236  0.00  0.00    +0.061 N 
ENDBRANCH  14  21
BRANCH  18  24
ATOM     22  O   UNL     1      40.672 -26.101 -15.965  0.00  0.00    -0.126 OA
ATOM     23  O   UNL     1      40.913 -26.272 -13.790  0.00  0.00    -0.126 OA
ATOM     24  N   UNL     1      40.264 -25.898 -14.796  0.00  0.00    +0.058 N 
ENDBRANCH  18  24
ENDBRANCH  12  13
ENDBRANCH   7  12
BRANCH   5  25
ATOM     25  C   UNL     1      32.078 -22.830 -17.325  0.00  0.00    +0.169 C 
BRANCH  25  26
ATOM     26  O   UNL     1      33.124 -22.759 -18.278  0.00  0.00    -0.379 OA
ATOM     27  H   UNL     1      32.836 -23.177 -19.105  0.00  0.00    +0.211 HD
ENDBRANCH  25  26
ENDBRANCH   5  25
TORSDOF 8
ENDMDL
MODEL 7
REMARK VINA RESULT:      -8.1      1.980      3.791
REMARK  Name = 445227
REMARK  8 active torsions:
REMARK  status: ('A' for Active; 'I' for Inactive)
REMARK    1  A    between atoms: C_3  and  O_8
REMARK    2  A    between atoms: C_4  and  O_10
REMARK    3  A    between atoms: C_5  and  C_25
REMARK    4  A    between atoms: C_7  and  O_12
REMARK    5  A    between atoms: O_12  and  C_13
REMARK    6  A    between atoms: C_14  and  N_21
REMARK    7  A    between atoms: C_18  and  N_24
REMARK    8  A    between atoms: C_25  and  O_26
REMARK                            x       y       z     vdW  Elec       q    Type
REMARK                         _______ _______ _______ _____ _____    ______ ____
ROOT
ATOM      1  F   UNL     1      34.110 -23.263 -12.208  0.00  0.00    -0.228 F 
ATOM      2  O   UNL     1      35.598 -25.444 -14.650  0.00  0.00    -0.316 OA
ATOM      3  C   UNL     1      36.757 -25.799 -12.546  0.00  0.00    +0.170 C 
ATOM      4  C   UNL     1      35.947 -24.674 -11.902  0.00  0.00    +0.179 C 
ATOM      5  C   UNL     1      36.891 -25.570 -14.055  0.00  0.00    +0.177 C 
ATOM      6  C   UNL     1      34.643 -24.438 -12.650  0.00  0.00    +0.259 C 
ATOM      7  C   UNL     1      34.869 -24.323 -14.154  0.00  0.00    +0.324 C 
ENDROOT
BRANCH   3   8
ATOM      8  O   UNL     1      38.054 -25.841 -11.958  0.00  0.00    -0.379 OA
ATOM      9  H   UNL     1      37.976 -25.767 -10.995  0.00  0.00    +0.211 HD
ENDBRANCH   3   8
BRANCH   4  10
ATOM     10  O   UNL     1      35.651 -25.045 -10.556  0.00  0.00    -0.379 OA
ATOM     11  H   UNL     1      36.248 -25.759 -10.278  0.00  0.00    +0.211 HD
ENDBRANCH   4  10
BRANCH   7  12
ATOM     12  O   UNL     1      33.614 -24.222 -14.826  0.00  0.00    -0.449 OA
BRANCH  12  13
ATOM     13  C   UNL     1      33.607 -23.538 -16.011  0.00  0.00    +0.164 C 
ATOM     14  C   UNL     1      32.409 -23.156 -16.608  0.00  0.00    +0.178 C 
ATOM     15  C   UNL     1      34.824 -23.226 -16.612  0.00  0.00    +0.040 C 
ATOM     16  C   UNL     1      32.427 -22.458 -17.815  0.00  0.00    +0.051 C 
ATOM     17  C   UNL     1      34.843 -22.527 -17.818  0.00  0.00    +0.027 C 
ATOM     18  C   UNL     1      33.645 -22.143 -18.420  0.00  0.00    +0.145 C 
BRANCH  14  21
ATOM     19  O   UNL     1      30.645 -22.638 -15.216  0.00  0.00    -0.126 OA
ATOM     20  O   UNL     1      30.610 -24.560 -16.276  0.00  0.00    -0.126 OA
ATOM     21  N   UNL     1      31.160 -23.468 -16.004  0.00  0.00    +0.061 N 
ENDBRANCH  14  21
BRANCH  18  24
ATOM     22  O   UNL     1      34.768 -21.090 -20.136  0.00  0.00    -0.126 OA
ATOM     23  O   UNL     1      32.576 -21.161 -20.213  0.00  0.00    -0.126 OA
ATOM     24  N   UNL     1      33.664 -21.430 -19.649  0.00  0.00    +0.058 N 
ENDBRANCH  18  24
ENDBRANCH  12  13
ENDBRANCH   7  12
BRANCH   5  25
ATOM     25  C   UNL     1      37.601 -26.734 -14.740  0.00  0.00    +0.169 C 
BRANCH  25  26
ATOM     26  O   UNL     1      38.984 -26.655 -14.444  0.00  0.00    -0.379 OA
ATOM     27  H   UNL     1      39.288 -27.506 -14.091  0.00  0.00    +0.211 HD
ENDBRANCH  25  26
ENDBRANCH   5  25
TORSDOF 8
ENDMDL
MODEL 8
REMARK VINA RESULT:      -8.1     11.799     14.886
REMARK  Name = 445227
REMARK  8 active torsions:
REMARK  status: ('A' for Active; 'I' for Inactive)
REMARK    1  A    between atoms: C_3  and  O_8
REMARK    2  A    between atoms: C_4  and  O_10
REMARK    3  A    between atoms: C_5  and  C_25
REMARK    4  A    between atoms: C_7  and  O_12
REMARK    5  A    between atoms: O_12  and  C_13
REMARK    6  A    between atoms: C_14  and  N_21
REMARK    7  A    between atoms: C_18  and  N_24
REMARK    8  A    between atoms: C_25  and  O_26
REMARK                            x       y       z     vdW  Elec       q    Type
REMARK                         _______ _______ _______ _____ _____    ______ ____
ROOT
ATOM      1  F   UNL     1      30.550 -11.033 -21.140  0.00  0.00    -0.228 F 
ATOM      2  O   UNL     1      33.332 -11.628 -23.340  0.00  0.00    -0.316 OA
ATOM      3  C   UNL     1      33.110  -9.225 -23.071  0.00  0.00    +0.170 C 
ATOM      4  C   UNL     1      31.843  -9.428 -22.240  0.00  0.00    +0.179 C 
ATOM      5  C   UNL     1      33.305 -10.388 -24.049  0.00  0.00    +0.177 C 
ATOM      6  C   UNL     1      31.806 -10.819 -21.625  0.00  0.00    +0.259 C 
ATOM      7  C   UNL     1      32.110 -11.900 -22.657  0.00  0.00    +0.324 C 
ENDROOT
BRANCH   3   8
ATOM      8  O   UNL     1      33.005  -8.006 -23.801  0.00  0.00    -0.379 OA
ATOM      9  H   UNL     1      32.727  -8.196 -24.710  0.00  0.00    +0.211 HD
ENDBRANCH   3   8
BRANCH   4  10
ATOM     10  O   UNL     1      31.829  -8.456 -21.195  0.00  0.00    -0.379 OA
ATOM     11  H   UNL     1      31.883  -8.904 -20.335  0.00  0.00    +0.211 HD
ENDBRANCH   4  10
BRANCH   7  12
ATOM     12  O   UNL     1      32.183 -13.173 -22.017  0.00  0.00    -0.449 OA
BRANCH  12  13
ATOM     13  C   UNL     1      32.858 -14.158 -22.686  0.00  0.00    +0.164 C 
ATOM     14  C   UNL     1      33.605 -15.108 -21.997  0.00  0.00    +0.178 C 
ATOM     15  C   UNL     1      32.784 -14.194 -24.077  0.00  0.00    +0.040 C 
ATOM     16  C   UNL     1      34.284 -16.103 -22.701  0.00  0.00    +0.051 C 
ATOM     17  C   UNL     1      33.461 -15.189 -24.782  0.00  0.00    +0.027 C 
ATOM     18  C   UNL     1      34.212 -16.143 -24.094  0.00  0.00    +0.145 C 
BRANCH  14  21
ATOM     19  O   UNL     1      32.629 -15.136 -19.907  0.00  0.00    -0.126 OA
ATOM     20  O   UNL     1      34.816 -15.006 -20.037  0.00  0.00    -0.126 OA
ATOM     21  N   UNL     1      33.688 -15.082 -20.577  0.00  0.00    +0.061 N 
ENDBRANCH  14  21
BRANCH  18  24
ATOM     22  O   UNL     1      35.019 -17.046 -26.055  0.00  0.00    -0.126 OA
ATOM     23  O   UNL     1      35.372 -18.134 -24.181  0.00  0.00    -0.126 OA
ATOM     24  N   UNL     1      34.901 -17.156 -24.811  0.00  0.00    +0.058 N 
ENDBRANCH  18  24
ENDBRANCH  12  13
ENDBRANCH   7  12
BRANCH   5  25
ATOM     25  C   UNL     1      34.619 -10.266 -24.814  0.00  0.00    +0.169 C 
BRANCH  25  26
ATOM     26  O   UNL     1      35.566  -9.619 -23.982  0.00  0.00    -0.379 OA
ATOM     27  H   UNL     1      35.576  -8.669 -24.182  0.00  0.00    +0.211 HD
ENDBRANCH  25  26
ENDBRANCH   5  25
TORSDOF 8
ENDMDL
MODEL 9
REMARK VINA RESULT:      -8.1      1.858      2.614
REMARK  Name = 445227
REMARK  8 active torsions:
REMARK  status: ('A' for Active; 'I' for Inactive)
REMARK    1  A    between atoms: C_3  and  O_8
REMARK    2  A    between atoms: C_4  and  O_10
REMARK    3  A    between atoms: C_5  and  C_25
REMARK    4  A    between atoms: C_7  and  O_12
REMARK    5  A    between atoms: O_12  and  C_13
REMARK    6  A    between atoms: C_14  and  N_21
REMARK    7  A    between atoms: C_18  and  N_24
REMARK    8  A    between atoms: C_25  and  O_26
REMARK                            x       y       z     vdW  Elec       q    Type
REMARK                         _______ _______ _______ _____ _____    ______ ____
ROOT
ATOM      1  F   UNL     1      33.880 -23.666 -12.020  0.00  0.00    -0.228 F 
ATOM      2  O   UNL     1      36.203 -24.694 -14.567  0.00  0.00    -0.316 OA
ATOM      3  C   UNL     1      37.494 -24.036 -12.618  0.00  0.00    +0.170 C 
ATOM      4  C   UNL     1      36.213 -23.595 -11.910  0.00  0.00    +0.179 C 
ATOM      5  C   UNL     1      37.332 -23.931 -14.138  0.00  0.00    +0.177 C 
ATOM      6  C   UNL     1      34.994 -24.295 -12.492  0.00  0.00    +0.259 C 
ATOM      7  C   UNL     1      34.975 -24.222 -14.015  0.00  0.00    +0.324 C 
ENDROOT
BRANCH   3   8
ATOM      8  O   UNL     1      38.573 -23.205 -12.200  0.00  0.00    -0.379 OA
ATOM      9  H   UNL     1      38.867 -22.657 -12.943  0.00  0.00    +0.211 HD
ENDBRANCH   3   8
BRANCH   4  10
ATOM     10  O   UNL     1      36.326 -23.929 -10.527  0.00  0.00    -0.379 OA
ATOM     11  H   UNL     1      37.258 -24.086 -10.306  0.00  0.00    +0.211 HD
ENDBRANCH   4  10
BRANCH   7  12
ATOM     12  O   UNL     1      33.885 -24.989 -14.524  0.00  0.00    -0.449 OA
BRANCH  12  13
ATOM     13  C   UNL     1      32.747 -24.300 -14.844  0.00  0.00    +0.164 C 
ATOM     14  C   UNL     1      32.675 -23.540 -16.008  0.00  0.00    +0.178 C 
ATOM     15  C   UNL     1      31.655 -24.374 -13.983  0.00  0.00    +0.040 C 
ATOM     16  C   UNL     1      31.503 -22.848 -16.314  0.00  0.00    +0.051 C 
ATOM     17  C   UNL     1      30.483 -23.683 -14.289  0.00  0.00    +0.027 C 
ATOM     18  C   UNL     1      30.407 -22.920 -15.454  0.00  0.00    +0.145 C 
BRANCH  14  21
ATOM     19  O   UNL     1      33.791 -24.178 -17.923  0.00  0.00    -0.126 OA
ATOM     20  O   UNL     1      34.719 -22.669 -16.626  0.00  0.00    -0.126 OA
ATOM     21  N   UNL     1      33.783 -23.458 -16.896  0.00  0.00    +0.061 N 
ENDBRANCH  14  21
BRANCH  18  24
ATOM     22  O   UNL     1      28.510 -21.768 -14.829  0.00  0.00    -0.126 OA
ATOM     23  O   UNL     1      28.895 -22.063 -16.970  0.00  0.00    -0.126 OA
ATOM     24  N   UNL     1      29.213 -22.217 -15.766  0.00  0.00    +0.058 N 
ENDBRANCH  18  24
ENDBRANCH  12  13
ENDBRANCH   7  12
BRANCH   5  25
ATOM     25  C   UNL     1      38.556 -24.467 -14.873  0.00  0.00    +0.169 C 
BRANCH  25  26
ATOM     26  O   UNL     1      38.905 -23.551 -15.895  0.00  0.00    -0.379 OA
ATOM     27  H   UNL     1      39.370 -24.021 -16.606  0.00  0.00    +0.211 HD
ENDBRANCH  25  26
ENDBRANCH   5  25
TORSDOF 8
ENDMDL
