MODEL 1
REMARK VINA RESULT:     -13.0      0.000      0.000
REMARK  Name = 1712
REMARK  5 active torsions:
REMARK  status: ('A' for Active; 'I' for Inactive)
REMARK    1  A    between atoms: C_1  and  N_18
REMARK    2  A    between atoms: C_2  and  S_7
REMARK    3  A    between atoms: S_7  and  N_10
REMARK    4  A    between atoms: N_18  and  C_20
REMARK    5  A    between atoms: C_20  and  C_26
REMARK                            x       y       z     vdW  Elec       q    Type
REMARK                         _______ _______ _______ _____ _____    ______ ____
ROOT
ATOM      1  C   UNL     1      34.950 -19.908 -20.873  0.00  0.00    +0.045 C 
ATOM      2  C   UNL     1      34.187 -21.925 -19.066  0.00  0.00    +0.125 C 
ATOM      3  C   UNL     1      33.593 -20.152 -20.596  0.00  0.00    +0.016 C 
ATOM      4  C   UNL     1      35.917 -20.699 -20.225  0.00  0.00    +0.016 C 
ATOM      5  C   UNL     1      33.215 -21.151 -19.699  0.00  0.00    +0.021 C 
ATOM      6  C   UNL     1      35.538 -21.698 -19.329  0.00  0.00    +0.021 C 
ENDROOT
BRANCH   2   7
ATOM      7  S   UNL     1      33.714 -23.177 -17.945  0.00  0.00    +0.075 S 
ATOM      8  O   UNL     1      34.649 -23.150 -16.827  0.00  0.00    -0.150 OA
ATOM      9  O   UNL     1      33.537 -24.421 -18.683  0.00  0.00    -0.150 OA
BRANCH   7  10
ATOM     10  N   UNL     1      32.185 -22.621 -17.376  0.00  0.00    -0.199 N 
ATOM     11  H   UNL     1      31.681 -21.934 -17.868  0.00  0.00    +0.175 HD
ATOM     12  N   UNL     1      32.347 -22.893 -15.038  0.00  0.00    -0.228 NA
ATOM     13  C   UNL     1      31.667 -23.193 -16.162  0.00  0.00    +0.147 C 
ATOM     14  C   UNL     1      30.540 -23.991 -16.213  0.00  0.00    +0.036 C 
ATOM     15  C   UNL     1      30.075 -24.522 -15.015  0.00  0.00    +0.005 C 
ATOM     16  C   UNL     1      31.865 -23.427 -13.894  0.00  0.00    +0.100 C 
ATOM     17  C   UNL     1      30.744 -24.239 -13.829  0.00  0.00    +0.021 C 
ENDBRANCH   7  10
ENDBRANCH   2   7
BRANCH   1  18
ATOM     18  N   UNL     1      35.327 -18.913 -21.763  0.00  0.00    -0.328 N 
ATOM     19  H   UNL     1      35.964 -19.146 -22.477  0.00  0.00    +0.147 HD
BRANCH  18  20
ATOM     20  C   UNL     1      34.841 -17.557 -21.703  0.00  0.00    +0.127 C 
BRANCH  20  26
ATOM     21  S   UNL     1      33.135 -14.393 -21.393  0.00  0.00    -0.104 S 
ATOM     22  O   UNL     1      35.560 -18.951 -24.190  0.00  0.00    -0.210 OA
ATOM     23  N   UNL     1      34.609 -17.213 -25.415  0.00  0.00    -0.333 NA
ATOM     24  N   UNL     1      32.241 -12.775 -23.213  0.00  0.00    -0.262 NA
ATOM     25  C   UNL     1      33.968 -15.983 -23.560  0.00  0.00    +0.033 C 
ATOM     26  C   UNL     1      34.561 -17.071 -23.076  0.00  0.00    +0.092 C 
ATOM     27  C   UNL     1      34.029 -16.128 -25.023  0.00  0.00    +0.142 C 
ATOM     28  C   UNL     1      33.358 -14.841 -23.019  0.00  0.00    +0.114 C 
ATOM     29  C   UNL     1      34.981 -17.876 -24.263  0.00  0.00    +0.202 C 
ATOM     30  C   UNL     1      32.817 -13.856 -23.830  0.00  0.00    +0.069 C 
ATOM     31  C   UNL     1      33.437 -15.048 -25.859  0.00  0.00    +0.034 C 
ATOM     32  C   UNL     1      32.869 -13.985 -25.254  0.00  0.00    +0.018 C 
ATOM     33  C   UNL     1      32.350 -12.951 -21.913  0.00  0.00    +0.183 C 
ENDBRANCH  20  26
ENDBRANCH  18  20
ENDBRANCH   1  18
TORSDOF 5
ENDMDL
MODEL 2
REMARK VINA RESULT:     -12.9      1.714      2.571
REMARK  Name = 1712
REMARK  5 active torsions:
REMARK  status: ('A' for Active; 'I' for Inactive)
REMARK    1  A    between atoms: C_1  and  N_18
REMARK    2  A    between atoms: C_2  and  S_7
REMARK    3  A    between atoms: S_7  and  N_10
REMARK    4  A    between atoms: N_18  and  C_20
REMARK    5  A    between atoms: C_20  and  C_26
REMARK                            x       y       z     vdW  Elec       q    Type
REMARK                         _______ _______ _______ _____ _____    ______ ____
ROOT
ATOM      1  C   UNL     1      34.302 -19.572 -21.351  0.00  0.00    +0.045 C 
ATOM      2  C   UNL     1      34.014 -21.600 -19.422  0.00  0.00    +0.125 C 
ATOM      3  C   UNL     1      35.424 -20.263 -20.858  0.00  0.00    +0.016 C 
ATOM      4  C   UNL     1      33.033 -19.921 -20.855  0.00  0.00    +0.016 C 
ATOM      5  C   UNL     1      35.281 -21.268 -19.901  0.00  0.00    +0.021 C 
ATOM      6  C   UNL     1      32.890 -20.926 -19.899  0.00  0.00    +0.021 C 
ENDROOT
BRANCH   2   7
ATOM      7  S   UNL     1      33.836 -22.858 -18.225  0.00  0.00    +0.075 S 
ATOM      8  O   UNL     1      34.929 -22.721 -17.269  0.00  0.00    -0.150 OA
ATOM      9  O   UNL     1      33.656 -24.132 -18.909  0.00  0.00    -0.150 OA
BRANCH   7  10
ATOM     10  N   UNL     1      32.371 -22.421 -17.428  0.00  0.00    -0.199 N 
ATOM     11  H   UNL     1      31.841 -21.649 -17.730  0.00  0.00    +0.175 HD
ATOM     12  N   UNL     1      32.725 -23.145 -15.211  0.00  0.00    -0.228 NA
ATOM     13  C   UNL     1      31.947 -23.218 -16.308  0.00  0.00    +0.147 C 
ATOM     14  C   UNL     1      30.805 -23.987 -16.415  0.00  0.00    +0.036 C 
ATOM     15  C   UNL     1      30.433 -24.741 -15.308  0.00  0.00    +0.005 C 
ATOM     16  C   UNL     1      32.332 -23.892 -14.155  0.00  0.00    +0.100 C 
ATOM     17  C   UNL     1      31.206 -24.698 -14.152  0.00  0.00    +0.021 C 
ENDBRANCH   7  10
ENDBRANCH   2   7
BRANCH   1  18
ATOM     18  N   UNL     1      34.444 -18.573 -22.302  0.00  0.00    -0.328 N 
ATOM     19  H   UNL     1      33.863 -18.604 -23.098  0.00  0.00    +0.147 HD
BRANCH  18  20
ATOM     20  C   UNL     1      35.393 -17.493 -22.196  0.00  0.00    +0.127 C 
BRANCH  20  26
ATOM     21  S   UNL     1      34.071 -16.365 -25.358  0.00  0.00    -0.104 S 
ATOM     22  O   UNL     1      35.116 -16.173 -19.584  0.00  0.00    -0.210 OA
ATOM     23  N   UNL     1      33.878 -14.479 -20.593  0.00  0.00    -0.333 NA
ATOM     24  N   UNL     1      32.669 -14.263 -25.945  0.00  0.00    -0.262 NA
ATOM     25  C   UNL     1      33.998 -15.380 -22.724  0.00  0.00    +0.033 C 
ATOM     26  C   UNL     1      34.670 -16.223 -21.944  0.00  0.00    +0.092 C 
ATOM     27  C   UNL     1      33.528 -14.313 -21.825  0.00  0.00    +0.142 C 
ATOM     28  C   UNL     1      33.677 -15.304 -24.088  0.00  0.00    +0.114 C 
ATOM     29  C   UNL     1      34.601 -15.654 -20.563  0.00  0.00    +0.202 C 
ATOM     30  C   UNL     1      32.933 -14.253 -24.600  0.00  0.00    +0.069 C 
ATOM     31  C   UNL     1      32.732 -13.203 -22.414  0.00  0.00    +0.034 C 
ATOM     32  C   UNL     1      32.471 -13.209 -23.737  0.00  0.00    +0.018 C 
ATOM     33  C   UNL     1      33.226 -15.341 -26.455  0.00  0.00    +0.183 C 
ENDBRANCH  20  26
ENDBRANCH  18  20
ENDBRANCH   1  18
TORSDOF 5
ENDMDL
MODEL 3
REMARK VINA RESULT:     -12.4      2.641      3.370
REMARK  Name = 1712
REMARK  5 active torsions:
REMARK  status: ('A' for Active; 'I' for Inactive)
REMARK    1  A    between atoms: C_1  and  N_18
REMARK    2  A    between atoms: C_2  and  S_7
REMARK    3  A    between atoms: S_7  and  N_10
REMARK    4  A    between atoms: N_18  and  C_20
REMARK    5  A    between atoms: C_20  and  C_26
REMARK                            x       y       z     vdW  Elec       q    Type
REMARK                         _______ _______ _______ _____ _____    ______ ____
ROOT
ATOM      1  C   UNL     1      34.312 -19.483 -21.378  0.00  0.00    +0.045 C 
ATOM      2  C   UNL     1      34.014 -21.512 -19.452  0.00  0.00    +0.125 C 
ATOM      3  C   UNL     1      35.433 -20.163 -20.869  0.00  0.00    +0.016 C 
ATOM      4  C   UNL     1      33.039 -19.841 -20.900  0.00  0.00    +0.016 C 
ATOM      5  C   UNL     1      35.285 -21.170 -19.914  0.00  0.00    +0.021 C 
ATOM      6  C   UNL     1      32.891 -20.847 -19.946  0.00  0.00    +0.021 C 
ENDROOT
BRANCH   2   7
ATOM      7  S   UNL     1      33.829 -22.770 -18.257  0.00  0.00    +0.075 S 
ATOM      8  O   UNL     1      33.832 -24.051 -18.954  0.00  0.00    -0.150 OA
ATOM      9  O   UNL     1      32.695 -22.439 -17.402  0.00  0.00    -0.150 OA
BRANCH   7  10
ATOM     10  N   UNL     1      35.289 -22.652 -17.349  0.00  0.00    -0.199 N 
ATOM     11  H   UNL     1      36.062 -22.152 -17.696  0.00  0.00    +0.175 HD
ATOM     12  N   UNL     1      35.311 -24.652 -16.098  0.00  0.00    -0.228 NA
ATOM     13  C   UNL     1      35.343 -23.306 -16.068  0.00  0.00    +0.147 C 
ATOM     14  C   UNL     1      35.424 -22.543 -14.919  0.00  0.00    +0.036 C 
ATOM     15  C   UNL     1      35.475 -23.217 -13.704  0.00  0.00    +0.005 C 
ATOM     16  C   UNL     1      35.362 -25.272 -14.897  0.00  0.00    +0.100 C 
ATOM     17  C   UNL     1      35.444 -24.607 -13.685  0.00  0.00    +0.021 C 
ENDBRANCH   7  10
ENDBRANCH   2   7
BRANCH   1  18
ATOM     18  N   UNL     1      34.459 -18.483 -22.328  0.00  0.00    -0.328 N 
ATOM     19  H   UNL     1      33.894 -18.522 -23.134  0.00  0.00    +0.147 HD
BRANCH  18  20
ATOM     20  C   UNL     1      35.393 -17.391 -22.206  0.00  0.00    +0.127 C 
BRANCH  20  26
ATOM     21  S   UNL     1      34.063 -16.301 -25.378  0.00  0.00    -0.104 S 
ATOM     22  O   UNL     1      35.090 -16.061 -19.602  0.00  0.00    -0.210 OA
ATOM     23  N   UNL     1      33.828 -14.391 -20.623  0.00  0.00    -0.333 NA
ATOM     24  N   UNL     1      32.632 -14.223 -25.980  0.00  0.00    -0.262 NA
ATOM     25  C   UNL     1      33.968 -15.302 -22.749  0.00  0.00    +0.033 C 
ATOM     26  C   UNL     1      34.650 -16.131 -21.963  0.00  0.00    +0.092 C 
ATOM     27  C   UNL     1      33.480 -14.237 -21.858  0.00  0.00    +0.142 C 
ATOM     28  C   UNL     1      33.650 -15.239 -24.114  0.00  0.00    +0.114 C 
ATOM     29  C   UNL     1      34.569 -15.555 -20.585  0.00  0.00    +0.202 C 
ATOM     30  C   UNL     1      32.892 -14.202 -24.634  0.00  0.00    +0.069 C 
ATOM     31  C   UNL     1      32.669 -13.142 -22.455  0.00  0.00    +0.034 C 
ATOM     32  C   UNL     1      32.411 -13.160 -23.778  0.00  0.00    +0.018 C 
ATOM     33  C   UNL     1      33.206 -15.296 -26.482  0.00  0.00    +0.183 C 
ENDBRANCH  20  26
ENDBRANCH  18  20
ENDBRANCH   1  18
TORSDOF 5
ENDMDL
MODEL 4
REMARK VINA RESULT:     -12.2      3.705      6.499
REMARK  Name = 1712
REMARK  5 active torsions:
REMARK  status: ('A' for Active; 'I' for Inactive)
REMARK    1  A    between atoms: C_1  and  N_18
REMARK    2  A    between atoms: C_2  and  S_7
REMARK    3  A    between atoms: S_7  and  N_10
REMARK    4  A    between atoms: N_18  and  C_20
REMARK    5  A    between atoms: C_20  and  C_26
REMARK                            x       y       z     vdW  Elec       q    Type
REMARK                         _______ _______ _______ _____ _____    ______ ____
ROOT
ATOM      1  C   UNL     1      33.923 -14.537 -23.896  0.00  0.00    +0.045 C 
ATOM      2  C   UNL     1      34.860 -17.032 -22.993  0.00  0.00    +0.125 C 
ATOM      3  C   UNL     1      34.263 -14.733 -22.546  0.00  0.00    +0.016 C 
ATOM      4  C   UNL     1      34.062 -15.620 -24.784  0.00  0.00    +0.016 C 
ATOM      5  C   UNL     1      34.728 -15.970 -22.098  0.00  0.00    +0.021 C 
ATOM      6  C   UNL     1      34.527 -16.856 -24.336  0.00  0.00    +0.021 C 
ENDROOT
BRANCH   2   7
ATOM      7  S   UNL     1      35.441 -18.579 -22.432  0.00  0.00    +0.075 S 
ATOM      8  O   UNL     1      36.889 -18.485 -22.284  0.00  0.00    -0.150 OA
ATOM      9  O   UNL     1      34.889 -19.623 -23.288  0.00  0.00    -0.150 OA
BRANCH   7  10
ATOM     10  N   UNL     1      34.749 -18.699 -20.858  0.00  0.00    -0.199 N 
ATOM     11  H   UNL     1      34.427 -17.899 -20.385  0.00  0.00    +0.175 HD
ATOM     12  N   UNL     1      35.829 -20.583 -19.935  0.00  0.00    -0.228 NA
ATOM     13  C   UNL     1      34.657 -20.003 -20.258  0.00  0.00    +0.147 C 
ATOM     14  C   UNL     1      33.414 -20.570 -20.053  0.00  0.00    +0.036 C 
ATOM     15  C   UNL     1      33.372 -21.832 -19.469  0.00  0.00    +0.005 C 
ATOM     16  C   UNL     1      35.749 -21.809 -19.371  0.00  0.00    +0.100 C 
ATOM     17  C   UNL     1      34.557 -22.469 -19.119  0.00  0.00    +0.021 C 
ENDBRANCH   7  10
ENDBRANCH   2   7
BRANCH   1  18
ATOM     18  N   UNL     1      33.462 -13.308 -24.342  0.00  0.00    -0.328 N 
ATOM     19  H   UNL     1      33.806 -12.966 -25.199  0.00  0.00    +0.147 HD
BRANCH  18  20
ATOM     20  C   UNL     1      32.510 -12.499 -23.622  0.00  0.00    +0.127 C 
BRANCH  20  26
ATOM     21  S   UNL     1      31.349 -11.113 -20.500  0.00  0.00    -0.104 S 
ATOM     22  O   UNL     1      34.129 -11.149 -25.672  0.00  0.00    -0.210 OA
ATOM     23  N   UNL     1      34.154  -9.226 -24.357  0.00  0.00    -0.333 NA
ATOM     24  N   UNL     1      31.691  -8.757 -19.471  0.00  0.00    -0.262 NA
ATOM     25  C   UNL     1      32.883 -10.133 -22.646  0.00  0.00    +0.033 C 
ATOM     26  C   UNL     1      33.003 -11.102 -23.550  0.00  0.00    +0.092 C 
ATOM     27  C   UNL     1      33.621  -8.989 -23.204  0.00  0.00    +0.142 C 
ATOM     28  C   UNL     1      32.262  -9.991 -21.395  0.00  0.00    +0.114 C 
ATOM     29  C   UNL     1      33.821 -10.530 -24.663  0.00  0.00    +0.202 C 
ATOM     30  C   UNL     1      32.330  -8.804 -20.684  0.00  0.00    +0.069 C 
ATOM     31  C   UNL     1      33.671  -7.733 -22.409  0.00  0.00    +0.034 C 
ATOM     32  C   UNL     1      33.044  -7.683 -21.217  0.00  0.00    +0.018 C 
ATOM     33  C   UNL     1      31.132  -9.931 -19.267  0.00  0.00    +0.183 C 
ENDBRANCH  20  26
ENDBRANCH  18  20
ENDBRANCH   1  18
TORSDOF 5
ENDMDL
MODEL 5
REMARK VINA RESULT:     -12.1      5.941     13.081
REMARK  Name = 1712
REMARK  5 active torsions:
REMARK  status: ('A' for Active; 'I' for Inactive)
REMARK    1  A    between atoms: C_1  and  N_18
REMARK    2  A    between atoms: C_2  and  S_7
REMARK    3  A    between atoms: S_7  and  N_10
REMARK    4  A    between atoms: N_18  and  C_20
REMARK    5  A    between atoms: C_20  and  C_26
REMARK                            x       y       z     vdW  Elec       q    Type
REMARK                         _______ _______ _______ _____ _____    ______ ____
ROOT
ATOM      1  C   UNL     1      33.590 -11.477 -23.583  0.00  0.00    +0.045 C 
ATOM      2  C   UNL     1      32.411  -8.929 -23.401  0.00  0.00    +0.125 C 
ATOM      3  C   UNL     1      34.216 -10.351 -24.147  0.00  0.00    +0.016 C 
ATOM      4  C   UNL     1      32.359 -11.298 -22.927  0.00  0.00    +0.016 C 
ATOM      5  C   UNL     1      33.632  -9.087 -24.056  0.00  0.00    +0.021 C 
ATOM      6  C   UNL     1      31.774 -10.034 -22.836  0.00  0.00    +0.021 C 
ENDROOT
BRANCH   2   7
ATOM      7  S   UNL     1      31.679  -7.348 -23.289  0.00  0.00    +0.075 S 
ATOM      8  O   UNL     1      31.467  -7.055 -21.876  0.00  0.00    -0.150 OA
ATOM      9  O   UNL     1      30.538  -7.297 -24.195  0.00  0.00    -0.150 OA
BRANCH   7  10
ATOM     10  N   UNL     1      32.924  -6.308 -23.870  0.00  0.00    -0.199 N 
ATOM     11  H   UNL     1      33.863  -6.449 -23.610  0.00  0.00    +0.175 HD
ATOM     12  N   UNL     1      31.809  -4.254 -24.186  0.00  0.00    -0.228 NA
ATOM     13  C   UNL     1      32.551  -5.230 -24.745  0.00  0.00    +0.147 C 
ATOM     14  C   UNL     1      32.958  -5.253 -26.064  0.00  0.00    +0.036 C 
ATOM     15  C   UNL     1      32.575  -4.189 -26.874  0.00  0.00    +0.005 C 
ATOM     16  C   UNL     1      31.455  -3.237 -25.004  0.00  0.00    +0.100 C 
ATOM     17  C   UNL     1      31.809  -3.158 -26.341  0.00  0.00    +0.021 C 
ENDBRANCH   7  10
ENDBRANCH   2   7
BRANCH   1  18
ATOM     18  N   UNL     1      34.172 -12.733 -23.672  0.00  0.00    -0.328 N 
ATOM     19  H   UNL     1      35.010 -12.821 -24.180  0.00  0.00    +0.147 HD
BRANCH  18  20
ATOM     20  C   UNL     1      33.618 -13.918 -23.065  0.00  0.00    +0.127 C 
BRANCH  20  26
ATOM     21  S   UNL     1      34.921 -16.685 -21.151  0.00  0.00    -0.104 S 
ATOM     22  O   UNL     1      32.963 -13.893 -25.931  0.00  0.00    -0.210 OA
ATOM     23  N   UNL     1      33.624 -16.121 -26.081  0.00  0.00    -0.333 NA
ATOM     24  N   UNL     1      35.514 -19.104 -21.875  0.00  0.00    -0.262 NA
ATOM     25  C   UNL     1      34.193 -16.316 -23.843  0.00  0.00    +0.033 C 
ATOM     26  C   UNL     1      33.767 -15.064 -23.993  0.00  0.00    +0.092 C 
ATOM     27  C   UNL     1      34.081 -16.925 -25.178  0.00  0.00    +0.142 C 
ATOM     28  C   UNL     1      34.678 -17.097 -22.783  0.00  0.00    +0.114 C 
ATOM     29  C   UNL     1      33.396 -14.923 -25.435  0.00  0.00    +0.202 C 
ATOM     30  C   UNL     1      35.050 -18.419 -22.968  0.00  0.00    +0.069 C 
ATOM     31  C   UNL     1      34.490 -18.347 -25.336  0.00  0.00    +0.034 C 
ATOM     32  C   UNL     1      34.946 -19.023 -24.262  0.00  0.00    +0.018 C 
ATOM     33  C   UNL     1      35.491 -18.281 -20.848  0.00  0.00    +0.183 C 
ENDBRANCH  20  26
ENDBRANCH  18  20
ENDBRANCH   1  18
TORSDOF 5
ENDMDL
MODEL 6
REMARK VINA RESULT:     -12.0      2.195      2.547
REMARK  Name = 1712
REMARK  5 active torsions:
REMARK  status: ('A' for Active; 'I' for Inactive)
REMARK    1  A    between atoms: C_1  and  N_18
REMARK    2  A    between atoms: C_2  and  S_7
REMARK    3  A    between atoms: S_7  and  N_10
REMARK    4  A    between atoms: N_18  and  C_20
REMARK    5  A    between atoms: C_20  and  C_26
REMARK                            x       y       z     vdW  Elec       q    Type
REMARK                         _______ _______ _______ _____ _____    ______ ____
ROOT
ATOM      1  C   UNL     1      34.237 -19.938 -21.099  0.00  0.00    +0.045 C 
ATOM      2  C   UNL     1      34.009 -21.814 -19.014  0.00  0.00    +0.125 C 
ATOM      3  C   UNL     1      35.380 -20.543 -20.545  0.00  0.00    +0.016 C 
ATOM      4  C   UNL     1      32.977 -20.293 -20.583  0.00  0.00    +0.016 C 
ATOM      5  C   UNL     1      35.267 -21.473 -19.512  0.00  0.00    +0.021 C 
ATOM      6  C   UNL     1      32.864 -21.223 -19.550  0.00  0.00    +0.021 C 
ENDROOT
BRANCH   2   7
ATOM      7  S   UNL     1      33.868 -22.977 -17.721  0.00  0.00    +0.075 S 
ATOM      8  O   UNL     1      33.809 -24.305 -18.321  0.00  0.00    -0.150 OA
ATOM      9  O   UNL     1      32.790 -22.559 -16.833  0.00  0.00    -0.150 OA
BRANCH   7  10
ATOM     10  N   UNL     1      35.378 -22.826 -16.904  0.00  0.00    -0.199 N 
ATOM     11  H   UNL     1      36.095 -22.259 -17.268  0.00  0.00    +0.175 HD
ATOM     12  N   UNL     1      35.602 -24.894 -15.793  0.00  0.00    -0.228 NA
ATOM     13  C   UNL     1      35.559 -23.553 -15.677  0.00  0.00    +0.147 C 
ATOM     14  C   UNL     1      35.675 -22.860 -14.487  0.00  0.00    +0.036 C 
ATOM     15  C   UNL     1      35.849 -23.604 -13.325  0.00  0.00    +0.005 C 
ATOM     16  C   UNL     1      35.771 -25.584 -14.642  0.00  0.00    +0.100 C 
ATOM     17  C   UNL     1      35.899 -24.992 -13.396  0.00  0.00    +0.021 C 
ENDBRANCH   7  10
ENDBRANCH   2   7
BRANCH   1  18
ATOM     18  N   UNL     1      34.349 -19.013 -22.127  0.00  0.00    -0.328 N 
ATOM     19  H   UNL     1      34.174 -19.319 -23.047  0.00  0.00    +0.147 HD
BRANCH  18  20
ATOM     20  C   UNL     1      34.709 -17.631 -21.927  0.00  0.00    +0.127 C 
BRANCH  20  26
ATOM     21  S   UNL     1      33.050 -14.605 -20.877  0.00  0.00    -0.104 S 
ATOM     22  O   UNL     1      35.331 -18.452 -24.681  0.00  0.00    -0.210 OA
ATOM     23  N   UNL     1      34.361 -16.485 -25.465  0.00  0.00    -0.333 NA
ATOM     24  N   UNL     1      32.116 -12.625 -22.269  0.00  0.00    -0.262 NA
ATOM     25  C   UNL     1      33.795 -15.686 -23.366  0.00  0.00    +0.033 C 
ATOM     26  C   UNL     1      34.391 -16.857 -23.151  0.00  0.00    +0.092 C 
ATOM     27  C   UNL     1      33.806 -15.509 -24.827  0.00  0.00    +0.142 C 
ATOM     28  C   UNL     1      33.216 -14.687 -22.568  0.00  0.00    +0.114 C 
ATOM     29  C   UNL     1      34.762 -17.385 -24.499  0.00  0.00    +0.202 C 
ATOM     30  C   UNL     1      32.660 -13.547 -23.126  0.00  0.00    +0.069 C 
ATOM     31  C   UNL     1      33.200 -14.271 -25.386  0.00  0.00    +0.034 C 
ATOM     32  C   UNL     1      32.664 -13.362 -24.545  0.00  0.00    +0.018 C 
ATOM     33  C   UNL     1      32.266 -13.081 -21.043  0.00  0.00    +0.183 C 
ENDBRANCH  20  26
ENDBRANCH  18  20
ENDBRANCH   1  18
TORSDOF 5
ENDMDL
MODEL 7
REMARK VINA RESULT:     -11.9      5.748     12.671
REMARK  Name = 1712
REMARK  5 active torsions:
REMARK  status: ('A' for Active; 'I' for Inactive)
REMARK    1  A    between atoms: C_1  and  N_18
REMARK    2  A    between atoms: C_2  and  S_7
REMARK    3  A    between atoms: S_7  and  N_10
REMARK    4  A    between atoms: N_18  and  C_20
REMARK    5  A    between atoms: C_20  and  C_26
REMARK                            x       y       z     vdW  Elec       q    Type
REMARK                         _______ _______ _______ _____ _____    ______ ____
ROOT
ATOM      1  C   UNL     1      32.573 -11.918 -22.895  0.00  0.00    +0.045 C 
ATOM      2  C   UNL     1      32.337  -9.143 -22.490  0.00  0.00    +0.125 C 
ATOM      3  C   UNL     1      31.712 -11.404 -21.909  0.00  0.00    +0.016 C 
ATOM      4  C   UNL     1      33.314 -11.010 -23.673  0.00  0.00    +0.016 C 
ATOM      5  C   UNL     1      31.594 -10.029 -21.708  0.00  0.00    +0.021 C 
ATOM      6  C   UNL     1      33.197  -9.634 -23.472  0.00  0.00    +0.021 C 
ENDROOT
BRANCH   2   7
ATOM      7  S   UNL     1      32.190  -7.423 -22.237  0.00  0.00    +0.075 S 
ATOM      8  O   UNL     1      33.500  -6.825 -22.474  0.00  0.00    -0.150 OA
ATOM      9  O   UNL     1      31.535  -7.193 -20.956  0.00  0.00    -0.150 OA
BRANCH   7  10
ATOM     10  N   UNL     1      31.142  -6.937 -23.516  0.00  0.00    -0.199 N 
ATOM     11  H   UNL     1      30.267  -7.368 -23.645  0.00  0.00    +0.175 HD
ATOM     12  N   UNL     1      32.634  -6.181 -25.181  0.00  0.00    -0.228 NA
ATOM     13  C   UNL     1      31.585  -5.883 -24.390  0.00  0.00    +0.147 C 
ATOM     14  C   UNL     1      30.932  -4.666 -24.371  0.00  0.00    +0.036 C 
ATOM     15  C   UNL     1      31.393  -3.676 -25.232  0.00  0.00    +0.005 C 
ATOM     16  C   UNL     1      33.054  -5.195 -26.004  0.00  0.00    +0.100 C 
ATOM     17  C   UNL     1      32.474  -3.938 -26.067  0.00  0.00    +0.021 C 
ENDBRANCH   7  10
ENDBRANCH   2   7
BRANCH   1  18
ATOM     18  N   UNL     1      32.689 -13.285 -23.096  0.00  0.00    -0.328 N 
ATOM     19  H   UNL     1      31.884 -13.785 -23.363  0.00  0.00    +0.147 HD
BRANCH  18  20
ATOM     20  C   UNL     1      33.920 -14.018 -22.934  0.00  0.00    +0.127 C 
BRANCH  20  26
ATOM     21  S   UNL     1      34.997 -16.953 -21.133  0.00  0.00    -0.104 S 
ATOM     22  O   UNL     1      33.239 -13.836 -25.788  0.00  0.00    -0.210 OA
ATOM     23  N   UNL     1      33.703 -16.106 -26.023  0.00  0.00    -0.333 NA
ATOM     24  N   UNL     1      35.369 -19.387 -21.947  0.00  0.00    -0.262 NA
ATOM     25  C   UNL     1      34.276 -16.428 -23.801  0.00  0.00    +0.033 C 
ATOM     26  C   UNL     1      33.959 -15.139 -23.902  0.00  0.00    +0.092 C 
ATOM     27  C   UNL     1      34.097 -16.978 -25.155  0.00  0.00    +0.142 C 
ATOM     28  C   UNL     1      34.702 -17.285 -22.775  0.00  0.00    +0.114 C 
ATOM     29  C   UNL     1      33.587 -14.917 -25.333  0.00  0.00    +0.202 C 
ATOM     30  C   UNL     1      34.956 -18.627 -23.010  0.00  0.00    +0.069 C 
ATOM     31  C   UNL     1      34.379 -18.424 -25.365  0.00  0.00    +0.034 C 
ATOM     32  C   UNL     1      34.786 -19.174 -24.322  0.00  0.00    +0.018 C 
ATOM     33  C   UNL     1      35.429 -18.602 -20.892  0.00  0.00    +0.183 C 
ENDBRANCH  20  26
ENDBRANCH  18  20
ENDBRANCH   1  18
TORSDOF 5
ENDMDL
MODEL 8
REMARK VINA RESULT:     -11.8      4.131      7.615
REMARK  Name = 1712
REMARK  5 active torsions:
REMARK  status: ('A' for Active; 'I' for Inactive)
REMARK    1  A    between atoms: C_1  and  N_18
REMARK    2  A    between atoms: C_2  and  S_7
REMARK    3  A    between atoms: S_7  and  N_10
REMARK    4  A    between atoms: N_18  and  C_20
REMARK    5  A    between atoms: C_20  and  C_26
REMARK                            x       y       z     vdW  Elec       q    Type
REMARK                         _______ _______ _______ _____ _____    ______ ____
ROOT
ATOM      1  C   UNL     1      33.104 -13.295 -22.837  0.00  0.00    +0.045 C 
ATOM      2  C   UNL     1      34.099 -15.921 -22.656  0.00  0.00    +0.125 C 
ATOM      3  C   UNL     1      33.197 -13.947 -21.594  0.00  0.00    +0.016 C 
ATOM      4  C   UNL     1      33.520 -13.989 -23.988  0.00  0.00    +0.016 C 
ATOM      5  C   UNL     1      33.691 -15.248 -21.504  0.00  0.00    +0.021 C 
ATOM      6  C   UNL     1      34.014 -15.291 -23.898  0.00  0.00    +0.021 C 
ENDROOT
BRANCH   2   7
ATOM      7  S   UNL     1      34.716 -17.550 -22.544  0.00  0.00    +0.075 S 
ATOM      8  O   UNL     1      36.173 -17.475 -22.543  0.00  0.00    -0.150 OA
ATOM      9  O   UNL     1      34.056 -18.369 -23.553  0.00  0.00    -0.150 OA
BRANCH   7  10
ATOM     10  N   UNL     1      34.205 -18.045 -20.975  0.00  0.00    -0.199 N 
ATOM     11  H   UNL     1      33.744 -17.418 -20.372  0.00  0.00    +0.175 HD
ATOM     12  N   UNL     1      35.769 -19.713 -20.397  0.00  0.00    -0.228 NA
ATOM     13  C   UNL     1      34.471 -19.400 -20.573  0.00  0.00    +0.147 C 
ATOM     14  C   UNL     1      33.418 -20.275 -20.395  0.00  0.00    +0.036 C 
ATOM     15  C   UNL     1      33.721 -21.575 -20.006  0.00  0.00    +0.005 C 
ATOM     16  C   UNL     1      36.026 -20.986 -20.020  0.00  0.00    +0.100 C 
ATOM     17  C   UNL     1      35.048 -21.945 -19.813  0.00  0.00    +0.021 C 
ENDBRANCH   7  10
ENDBRANCH   2   7
BRANCH   1  18
ATOM     18  N   UNL     1      32.614 -12.001 -22.926  0.00  0.00    -0.328 N 
ATOM     19  H   UNL     1      33.137 -11.341 -23.436  0.00  0.00    +0.147 HD
BRANCH  18  20
ATOM     20  C   UNL     1      31.384 -11.565 -22.313  0.00  0.00    +0.127 C 
BRANCH  20  26
ATOM     21  S   UNL     1      31.576  -8.416 -24.065  0.00  0.00    -0.104 S 
ATOM     22  O   UNL     1      31.740 -12.018 -19.430  0.00  0.00    -0.210 OA
ATOM     23  N   UNL     1      32.102  -9.736 -19.136  0.00  0.00    -0.333 NA
ATOM     24  N   UNL     1      32.041  -6.022 -23.181  0.00  0.00    -0.262 NA
ATOM     25  C   UNL     1      31.853  -9.200 -21.376  0.00  0.00    +0.033 C 
ATOM     26  C   UNL     1      31.678 -10.518 -21.306  0.00  0.00    +0.092 C 
ATOM     27  C   UNL     1      32.114  -8.770 -19.994  0.00  0.00    +0.142 C 
ATOM     28  C   UNL     1      31.842  -8.234 -22.394  0.00  0.00    +0.114 C 
ATOM     29  C   UNL     1      31.836 -10.879 -19.864  0.00  0.00    +0.202 C 
ATOM     30  C   UNL     1      32.070  -6.894 -22.123  0.00  0.00    +0.069 C 
ATOM     31  C   UNL     1      32.354  -7.323 -19.744  0.00  0.00    +0.034 C 
ATOM     32  C   UNL     1      32.326  -6.463 -20.782  0.00  0.00    +0.018 C 
ATOM     33  C   UNL     1      31.787  -6.719 -24.268  0.00  0.00    +0.183 C 
ENDBRANCH  20  26
ENDBRANCH  18  20
ENDBRANCH   1  18
TORSDOF 5
ENDMDL
MODEL 9
REMARK VINA RESULT:     -11.6      2.336     10.171
REMARK  Name = 1712
REMARK  5 active torsions:
REMARK  status: ('A' for Active; 'I' for Inactive)
REMARK    1  A    between atoms: C_1  and  N_18
REMARK    2  A    between atoms: C_2  and  S_7
REMARK    3  A    between atoms: S_7  and  N_10
REMARK    4  A    between atoms: N_18  and  C_20
REMARK    5  A    between atoms: C_20  and  C_26
REMARK                            x       y       z     vdW  Elec       q    Type
REMARK                         _______ _______ _______ _____ _____    ______ ____
ROOT
ATOM      1  C   UNL     1      34.320 -21.426 -19.501  0.00  0.00    +0.045 C 
ATOM      2  C   UNL     1      34.942 -19.486 -21.441  0.00  0.00    +0.125 C 
ATOM      3  C   UNL     1      33.301 -20.735 -20.183  0.00  0.00    +0.016 C 
ATOM      4  C   UNL     1      35.657 -21.122 -19.813  0.00  0.00    +0.016 C 
ATOM      5  C   UNL     1      33.610 -19.773 -21.145  0.00  0.00    +0.021 C 
ATOM      6  C   UNL     1      35.966 -20.160 -20.775  0.00  0.00    +0.021 C 
ENDROOT
BRANCH   2   7
ATOM      7  S   UNL     1      35.328 -18.282 -22.645  0.00  0.00    +0.075 S 
ATOM      8  O   UNL     1      34.155 -18.109 -23.494  0.00  0.00    -0.150 OA
ATOM      9  O   UNL     1      36.600 -18.633 -23.266  0.00  0.00    -0.150 OA
BRANCH   7  10
ATOM     10  N   UNL     1      35.523 -16.851 -21.704  0.00  0.00    -0.199 N 
ATOM     11  H   UNL     1      36.357 -16.679 -21.210  0.00  0.00    +0.175 HD
ATOM     12  N   UNL     1      33.320 -16.342 -21.031  0.00  0.00    -0.228 NA
ATOM     13  C   UNL     1      34.431 -15.915 -21.662  0.00  0.00    +0.147 C 
ATOM     14  C   UNL     1      34.576 -14.674 -22.251  0.00  0.00    +0.036 C 
ATOM     15  C   UNL     1      33.495 -13.802 -22.186  0.00  0.00    +0.005 C 
ATOM     16  C   UNL     1      32.290 -15.467 -20.989  0.00  0.00    +0.100 C 
ATOM     17  C   UNL     1      32.327 -14.199 -21.545  0.00  0.00    +0.021 C 
ENDBRANCH   7  10
ENDBRANCH   2   7
BRANCH   1  18
ATOM     18  N   UNL     1      34.013 -22.383 -18.545  0.00  0.00    -0.328 N 
ATOM     19  H   UNL     1      34.707 -23.039 -18.307  0.00  0.00    +0.147 HD
BRANCH  18  20
ATOM     20  C   UNL     1      32.736 -22.473 -17.881  0.00  0.00    +0.127 C 
BRANCH  20  26
ATOM     21  S   UNL     1      29.429 -23.296 -16.697  0.00  0.00    -0.104 S 
ATOM     22  O   UNL     1      35.297 -23.103 -16.581  0.00  0.00    -0.210 OA
ATOM     23  N   UNL     1      34.138 -24.148 -14.851  0.00  0.00    -0.333 NA
ATOM     24  N   UNL     1      28.670 -24.556 -14.560  0.00  0.00    -0.262 NA
ATOM     25  C   UNL     1      32.037 -23.735 -15.735  0.00  0.00    +0.033 C 
ATOM     26  C   UNL     1      32.896 -23.201 -16.600  0.00  0.00    +0.092 C 
ATOM     27  C   UNL     1      32.870 -24.310 -14.667  0.00  0.00    +0.142 C 
ATOM     28  C   UNL     1      30.642 -23.850 -15.640  0.00  0.00    +0.114 C 
ATOM     29  C   UNL     1      34.259 -23.460 -16.041  0.00  0.00    +0.202 C 
ATOM     30  C   UNL     1      30.039 -24.491 -14.569  0.00  0.00    +0.069 C 
ATOM     31  C   UNL     1      32.185 -24.990 -13.535  0.00  0.00    +0.034 C 
ATOM     32  C   UNL     1      30.838 -25.055 -13.523  0.00  0.00    +0.018 C 
ATOM     33  C   UNL     1      28.234 -23.951 -15.645  0.00  0.00    +0.183 C 
ENDBRANCH  20  26
ENDBRANCH  18  20
ENDBRANCH   1  18
TORSDOF 5
ENDMDL
