MODEL 1
REMARK VINA RESULT:      -8.9      0.000      0.000
REMARK  Name = 5284371
REMARK  2 active torsions:
REMARK  status: ('A' for Active; 'I' for Inactive)
REMARK    1  A    between atoms: C_12  and  O_21
REMARK    2  A    between atoms: C_18  and  O_23
REMARK                            x       y       z     vdW  Elec       q    Type
REMARK                         _______ _______ _______ _____ _____    ______ ____
ROOT
ATOM      1  O   UNL     1      31.660 -11.181 -22.713  0.00  0.00    -0.473 OA
ATOM      2  N   UNL     1      31.508  -6.004 -23.549  0.00  0.00    +0.387 N 
ATOM      3  C   UNL     1      31.494  -8.753 -22.615  0.00  0.00    +0.061 C 
ATOM      4  C   UNL     1      31.849  -7.571 -21.702  0.00  0.00    +0.010 C 
ATOM      5  C   UNL     1      32.539  -6.495 -22.603  0.00  0.00    -0.049 C 
ATOM      6  C   UNL     1      31.065 -10.078 -21.944  0.00  0.00    +0.200 C 
ATOM      7  C   UNL     1      30.500  -8.283 -23.697  0.00  0.00    -0.015 C 
ATOM      8  C   UNL     1      32.748  -9.250 -23.253  0.00  0.00    +0.014 C 
ATOM      9  C   UNL     1      33.855  -7.020 -23.274  0.00  0.00    +0.006 C 
ATOM     10  C   UNL     1      30.990  -7.038 -24.452  0.00  0.00    -0.077 C 
ATOM     11  C   UNL     1      33.836  -8.482 -23.631  0.00  0.00    -0.025 C 
ATOM     12  C   UNL     1      31.437 -10.185 -20.441  0.00  0.00    +0.172 C 
ATOM     13  C   UNL     1      32.664  -8.012 -20.514  0.00  0.00    -0.030 C 
ATOM     14  C   UNL     1      32.748 -10.624 -23.329  0.00  0.00    +0.168 C 
ATOM     15  C   UNL     1      32.484  -9.218 -19.955  0.00  0.00    +0.002 C 
ATOM     16  C   UNL     1      31.914  -4.810 -24.283  0.00  0.00    -0.101 C 
ATOM     17  C   UNL     1      34.911  -9.148 -24.223  0.00  0.00    -0.001 C 
ATOM     18  C   UNL     1      33.792 -11.302 -23.917  0.00  0.00    +0.172 C 
ATOM     19  C   UNL     1      34.877 -10.548 -24.382  0.00  0.00    +0.040 C 
ATOM     20  H   UNL     1      30.730  -5.733 -22.947  0.00  0.00    -0.080 HD
ENDROOT
BRANCH  12  21
ATOM     21  O   UNL     1      31.815 -11.523 -20.129  0.00  0.00    -0.377 OA
ATOM     22  H   UNL     1      31.120 -12.132 -20.423  0.00  0.00    +0.211 HD
ENDBRANCH  12  21
BRANCH  18  23
ATOM     23  O   UNL     1      33.796 -12.655 -24.015  0.00  0.00    -0.468 OA
ATOM     24  C   UNL     1      33.368 -13.224 -25.254  0.00  0.00    +0.253 C 
ENDBRANCH  18  23
TORSDOF 2
ENDMDL
MODEL 2
REMARK VINA RESULT:      -6.1      6.994      9.604
REMARK  Name = 5284371
REMARK  2 active torsions:
REMARK  status: ('A' for Active; 'I' for Inactive)
REMARK    1  A    between atoms: C_12  and  O_21
REMARK    2  A    between atoms: C_18  and  O_23
REMARK                            x       y       z     vdW  Elec       q    Type
REMARK                         _______ _______ _______ _____ _____    ______ ____
ROOT
ATOM      1  O   UNL     1      34.960 -15.326 -23.278  0.00  0.00    -0.473 OA
ATOM      2  N   UNL     1      35.676 -19.665 -20.417  0.00  0.00    +0.387 N 
ATOM      3  C   UNL     1      34.994 -17.114 -21.625  0.00  0.00    +0.061 C 
ATOM      4  C   UNL     1      34.074 -17.828 -20.623  0.00  0.00    +0.010 C 
ATOM      5  C   UNL     1      34.285 -19.364 -20.831  0.00  0.00    -0.049 C 
ATOM      6  C   UNL     1      34.781 -15.599 -21.844  0.00  0.00    +0.200 C 
ATOM      7  C   UNL     1      36.462 -17.472 -21.315  0.00  0.00    -0.015 C 
ATOM      8  C   UNL     1      34.635 -17.568 -23.001  0.00  0.00    +0.014 C 
ATOM      9  C   UNL     1      33.910 -19.837 -22.278  0.00  0.00    +0.006 C 
ATOM     10  C   UNL     1      36.697 -18.988 -21.225  0.00  0.00    -0.077 C 
ATOM     11  C   UNL     1      34.191 -18.828 -23.360  0.00  0.00    -0.025 C 
ATOM     12  C   UNL     1      33.412 -15.065 -21.345  0.00  0.00    +0.172 C 
ATOM     13  C   UNL     1      32.645 -17.367 -20.755  0.00  0.00    -0.030 C 
ATOM     14  C   UNL     1      34.694 -16.521 -23.892  0.00  0.00    +0.168 C 
ATOM     15  C   UNL     1      32.351 -16.105 -21.105  0.00  0.00    +0.002 C 
ATOM     16  C   UNL     1      35.951 -21.093 -20.297  0.00  0.00    -0.101 C 
ATOM     17  C   UNL     1      33.918 -19.047 -24.711  0.00  0.00    -0.001 C 
ATOM     18  C   UNL     1      34.439 -16.713 -25.232  0.00  0.00    +0.172 C 
ATOM     19  C   UNL     1      34.062 -17.999 -25.643  0.00  0.00    +0.040 C 
ATOM     20  H   UNL     1      35.745 -19.269 -19.479  0.00  0.00    -0.080 HD
ENDROOT
BRANCH  12  21
ATOM     21  O   UNL     1      32.930 -14.060 -22.233  0.00  0.00    -0.377 OA
ATOM     22  H   UNL     1      32.920 -13.204 -21.777  0.00  0.00    +0.211 HD
ENDBRANCH  12  21
BRANCH  18  23
ATOM     23  O   UNL     1      34.512 -15.694 -26.123  0.00  0.00    -0.468 OA
ATOM     24  C   UNL     1      33.326 -14.927 -26.340  0.00  0.00    +0.253 C 
ENDBRANCH  18  23
TORSDOF 2
ENDMDL
