MODEL 1
REMARK VINA RESULT:      -9.6      0.000      0.000
REMARK  Name = 16122526
REMARK  10 active torsions:
REMARK  status: ('A' for Active; 'I' for Inactive)
REMARK    1  A    between atoms: S_1  and  C_4
REMARK    2  A    between atoms: S_1  and  N_15
REMARK    3  A    between atoms: C_9  and  O_10
REMARK    4  A    between atoms: O_10  and  C_14
REMARK    5  A    between atoms: N_15  and  C_17
REMARK    6  A    between atoms: C_17  and  C_18
REMARK    7  A    between atoms: C_18  and  O_19
REMARK    8  A    between atoms: O_19  and  P_20
REMARK    9  A    between atoms: P_20  and  O_22
REMARK   10  A    between atoms: P_20  and  O_24
REMARK                            x       y       z     vdW  Elec       q    Type
REMARK                         _______ _______ _______ _____ _____    ______ ____
ROOT
ATOM      1  S   UNL     1      33.874 -22.869 -18.501  0.00  0.00    +0.060 S 
ATOM      2  O   UNL     1      34.841 -22.768 -17.417  0.00  0.00    -0.153 OA
ATOM      3  O   UNL     1      33.853 -24.068 -19.330  0.00  0.00    -0.153 OA
ENDROOT
BRANCH   1   4
ATOM      4  C   UNL     1      34.085 -21.476 -19.535  0.00  0.00    +0.122 C 
ATOM      5  C   UNL     1      32.971 -20.772 -19.991  0.00  0.00    +0.023 C 
ATOM      6  C   UNL     1      35.367 -21.068 -19.905  0.00  0.00    +0.023 C 
ATOM      7  C   UNL     1      33.138 -19.660 -20.817  0.00  0.00    +0.039 C 
ATOM      8  C   UNL     1      35.534 -19.956 -20.730  0.00  0.00    +0.039 C 
ATOM      9  C   UNL     1      34.420 -19.252 -21.186  0.00  0.00    +0.147 C 
BRANCH   9  10
ATOM     10  O   UNL     1      34.582 -18.168 -21.992  0.00  0.00    -0.404 OA
BRANCH  10  14
ATOM     11  F   UNL     1      36.476 -18.434 -23.245  0.00  0.00    -0.133 F 
ATOM     12  F   UNL     1      34.790 -17.317 -24.072  0.00  0.00    -0.133 F 
ATOM     13  F   UNL     1      34.633 -19.486 -23.860  0.00  0.00    -0.133 F 
ATOM     14  C   UNL     1      35.128 -18.367 -23.290  0.00  0.00    +0.575 C 
ENDBRANCH  10  14
ENDBRANCH   9  10
ENDBRANCH   1   4
BRANCH   1  15
ATOM     15  N   UNL     1      32.308 -22.619 -17.864  0.00  0.00    -0.177 NA
ATOM     16  H   UNL     1      31.647 -22.901 -18.588  0.00  0.00    +0.149 HD
BRANCH  15  17
ATOM     17  C   UNL     1      31.903 -23.301 -16.628  0.00  0.00    +0.124 C 
BRANCH  17  18
ATOM     18  C   UNL     1      30.606 -22.734 -16.077  0.00  0.00    +0.172 C 
BRANCH  18  19
ATOM     19  O   UNL     1      29.694 -22.519 -17.146  0.00  0.00    -0.272 OA
BRANCH  19  20
ATOM     20  P   UNL     1      28.140 -22.901 -16.915  0.00  0.00    +0.473 P 
ATOM     21  O   UNL     1      27.684 -24.151 -17.611  0.00  0.00    -0.227 OA
BRANCH  20  22
ATOM     22  O   UNL     1      27.346 -21.553 -17.326  0.00  0.00    -0.303 OA
ATOM     23  H   UNL     1      26.468 -21.786 -17.665  0.00  0.00    +0.222 HD
ENDBRANCH  20  22
BRANCH  20  24
ATOM     24  O   UNL     1      28.014 -22.932 -15.303  0.00  0.00    -0.303 OA
ATOM     25  H   UNL     1      27.081 -22.851 -15.051  0.00  0.00    +0.222 HD
ENDBRANCH  20  24
ENDBRANCH  19  20
ENDBRANCH  18  19
ENDBRANCH  17  18
ENDBRANCH  15  17
ENDBRANCH   1  15
TORSDOF 10
ENDMDL
MODEL 2
REMARK VINA RESULT:      -9.5      1.283      2.094
REMARK  Name = 16122526
REMARK  10 active torsions:
REMARK  status: ('A' for Active; 'I' for Inactive)
REMARK    1  A    between atoms: S_1  and  C_4
REMARK    2  A    between atoms: S_1  and  N_15
REMARK    3  A    between atoms: C_9  and  O_10
REMARK    4  A    between atoms: O_10  and  C_14
REMARK    5  A    between atoms: N_15  and  C_17
REMARK    6  A    between atoms: C_17  and  C_18
REMARK    7  A    between atoms: C_18  and  O_19
REMARK    8  A    between atoms: O_19  and  P_20
REMARK    9  A    between atoms: P_20  and  O_22
REMARK   10  A    between atoms: P_20  and  O_24
REMARK                            x       y       z     vdW  Elec       q    Type
REMARK                         _______ _______ _______ _____ _____    ______ ____
ROOT
ATOM      1  S   UNL     1      33.957 -22.713 -18.639  0.00  0.00    +0.060 S 
ATOM      2  O   UNL     1      34.974 -22.617 -17.600  0.00  0.00    -0.153 OA
ATOM      3  O   UNL     1      33.896 -23.908 -19.470  0.00  0.00    -0.153 OA
ENDROOT
BRANCH   1   4
ATOM      4  C   UNL     1      34.120 -21.316 -19.675  0.00  0.00    +0.122 C 
ATOM      5  C   UNL     1      35.385 -20.904 -20.094  0.00  0.00    +0.023 C 
ATOM      6  C   UNL     1      32.986 -20.614 -20.085  0.00  0.00    +0.023 C 
ATOM      7  C   UNL     1      35.516 -19.789 -20.923  0.00  0.00    +0.039 C 
ATOM      8  C   UNL     1      33.117 -19.499 -20.913  0.00  0.00    +0.039 C 
ATOM      9  C   UNL     1      34.382 -19.087 -21.332  0.00  0.00    +0.147 C 
BRANCH   9  10
ATOM     10  O   UNL     1      34.511 -17.999 -22.139  0.00  0.00    -0.404 OA
BRANCH  10  14
ATOM     11  F   UNL     1      33.242 -16.279 -21.328  0.00  0.00    -0.133 F 
ATOM     12  F   UNL     1      35.106 -15.834 -22.378  0.00  0.00    -0.133 F 
ATOM     13  F   UNL     1      35.190 -16.708 -20.377  0.00  0.00    -0.133 F 
ATOM     14  C   UNL     1      34.504 -16.709 -21.540  0.00  0.00    +0.575 C 
ENDBRANCH  10  14
ENDBRANCH   9  10
ENDBRANCH   1   4
BRANCH   1  15
ATOM     15  N   UNL     1      32.423 -22.465 -17.927  0.00  0.00    -0.177 NA
ATOM     16  H   UNL     1      31.735 -22.538 -18.677  0.00  0.00    +0.149 HD
BRANCH  15  17
ATOM     17  C   UNL     1      31.967 -23.347 -16.844  0.00  0.00    +0.124 C 
BRANCH  17  18
ATOM     18  C   UNL     1      30.714 -22.807 -16.176  0.00  0.00    +0.172 C 
BRANCH  18  19
ATOM     19  O   UNL     1      29.739 -22.516 -17.169  0.00  0.00    -0.272 OA
BRANCH  19  20
ATOM     20  P   UNL     1      28.181 -22.750 -16.804  0.00  0.00    +0.473 P 
ATOM     21  O   UNL     1      27.292 -21.560 -17.025  0.00  0.00    -0.227 OA
BRANCH  20  22
ATOM     22  O   UNL     1      28.220 -23.312 -15.288  0.00  0.00    -0.303 OA
ATOM     23  H   UNL     1      28.535 -24.229 -15.292  0.00  0.00    +0.222 HD
ENDBRANCH  20  22
BRANCH  20  24
ATOM     24  O   UNL     1      27.801 -24.057 -17.676  0.00  0.00    -0.303 OA
ATOM     25  H   UNL     1      28.592 -24.379 -18.137  0.00  0.00    +0.222 HD
ENDBRANCH  20  24
ENDBRANCH  19  20
ENDBRANCH  18  19
ENDBRANCH  17  18
ENDBRANCH  15  17
ENDBRANCH   1  15
TORSDOF 10
ENDMDL
MODEL 3
REMARK VINA RESULT:      -9.4      3.259      5.178
REMARK  Name = 16122526
REMARK  10 active torsions:
REMARK  status: ('A' for Active; 'I' for Inactive)
REMARK    1  A    between atoms: S_1  and  C_4
REMARK    2  A    between atoms: S_1  and  N_15
REMARK    3  A    between atoms: C_9  and  O_10
REMARK    4  A    between atoms: O_10  and  C_14
REMARK    5  A    between atoms: N_15  and  C_17
REMARK    6  A    between atoms: C_17  and  C_18
REMARK    7  A    between atoms: C_18  and  O_19
REMARK    8  A    between atoms: O_19  and  P_20
REMARK    9  A    between atoms: P_20  and  O_22
REMARK   10  A    between atoms: P_20  and  O_24
REMARK                            x       y       z     vdW  Elec       q    Type
REMARK                         _______ _______ _______ _____ _____    ______ ____
ROOT
ATOM      1  S   UNL     1      33.686 -22.878 -18.539  0.00  0.00    +0.060 S 
ATOM      2  O   UNL     1      33.912 -24.064 -19.353  0.00  0.00    -0.153 OA
ATOM      3  O   UNL     1      32.388 -22.686 -17.903  0.00  0.00    -0.153 OA
ENDROOT
BRANCH   1   4
ATOM      4  C   UNL     1      34.041 -21.479 -19.522  0.00  0.00    +0.122 C 
ATOM      5  C   UNL     1      35.365 -21.160 -19.826  0.00  0.00    +0.023 C 
ATOM      6  C   UNL     1      33.003 -20.681 -20.003  0.00  0.00    +0.023 C 
ATOM      7  C   UNL     1      35.650 -20.043 -20.612  0.00  0.00    +0.039 C 
ATOM      8  C   UNL     1      33.289 -19.564 -20.789  0.00  0.00    +0.039 C 
ATOM      9  C   UNL     1      34.612 -19.245 -21.093  0.00  0.00    +0.147 C 
BRANCH   9  10
ATOM     10  O   UNL     1      34.891 -18.155 -21.859  0.00  0.00    -0.404 OA
BRANCH  10  14
ATOM     11  F   UNL     1      34.535 -19.439 -23.717  0.00  0.00    -0.133 F 
ATOM     12  F   UNL     1      36.510 -18.569 -23.376  0.00  0.00    -0.133 F 
ATOM     13  F   UNL     1      34.858 -17.267 -23.966  0.00  0.00    -0.133 F 
ATOM     14  C   UNL     1      35.182 -18.355 -23.237  0.00  0.00    +0.575 C 
ENDBRANCH  10  14
ENDBRANCH   9  10
ENDBRANCH   1   4
BRANCH   1  15
ATOM     15  N   UNL     1      34.899 -22.801 -17.337  0.00  0.00    -0.177 NA
ATOM     16  H   UNL     1      35.067 -21.811 -17.152  0.00  0.00    +0.149 HD
BRANCH  15  17
ATOM     17  C   UNL     1      34.683 -23.446 -16.035  0.00  0.00    +0.124 C 
BRANCH  17  18
ATOM     18  C   UNL     1      35.988 -23.930 -15.429  0.00  0.00    +0.172 C 
BRANCH  18  19
ATOM     19  O   UNL     1      35.799 -25.226 -14.875  0.00  0.00    -0.272 OA
BRANCH  19  20
ATOM     20  P   UNL     1      37.043 -26.258 -14.898  0.00  0.00    +0.473 P 
ATOM     21  O   UNL     1      37.245 -27.038 -13.632  0.00  0.00    -0.227 OA
BRANCH  20  22
ATOM     22  O   UNL     1      38.296 -25.342 -15.353  0.00  0.00    -0.303 OA
ATOM     23  H   UNL     1      38.029 -24.409 -15.357  0.00  0.00    +0.222 HD
ENDBRANCH  20  22
BRANCH  20  24
ATOM     24  O   UNL     1      36.742 -27.154 -16.211  0.00  0.00    -0.303 OA
ATOM     25  H   UNL     1      37.320 -27.932 -16.210  0.00  0.00    +0.222 HD
ENDBRANCH  20  24
ENDBRANCH  19  20
ENDBRANCH  18  19
ENDBRANCH  17  18
ENDBRANCH  15  17
ENDBRANCH   1  15
TORSDOF 10
ENDMDL
MODEL 4
REMARK VINA RESULT:      -9.1      6.843      9.310
REMARK  Name = 16122526
REMARK  10 active torsions:
REMARK  status: ('A' for Active; 'I' for Inactive)
REMARK    1  A    between atoms: S_1  and  C_4
REMARK    2  A    between atoms: S_1  and  N_15
REMARK    3  A    between atoms: C_9  and  O_10
REMARK    4  A    between atoms: O_10  and  C_14
REMARK    5  A    between atoms: N_15  and  C_17
REMARK    6  A    between atoms: C_17  and  C_18
REMARK    7  A    between atoms: C_18  and  O_19
REMARK    8  A    between atoms: O_19  and  P_20
REMARK    9  A    between atoms: P_20  and  O_22
REMARK   10  A    between atoms: P_20  and  O_24
REMARK                            x       y       z     vdW  Elec       q    Type
REMARK                         _______ _______ _______ _____ _____    ______ ____
ROOT
ATOM      1  S   UNL     1      35.692 -24.382 -14.585  0.00  0.00    +0.060 S 
ATOM      2  O   UNL     1      36.375 -23.096 -14.532  0.00  0.00    -0.153 OA
ATOM      3  O   UNL     1      36.103 -25.368 -15.577  0.00  0.00    -0.153 OA
ENDROOT
BRANCH   1   4
ATOM      4  C   UNL     1      33.984 -24.071 -14.777  0.00  0.00    +0.122 C 
ATOM      5  C   UNL     1      33.511 -23.477 -15.947  0.00  0.00    +0.023 C 
ATOM      6  C   UNL     1      33.093 -24.417 -13.761  0.00  0.00    +0.023 C 
ATOM      7  C   UNL     1      32.147 -23.229 -16.101  0.00  0.00    +0.039 C 
ATOM      8  C   UNL     1      31.729 -24.168 -13.915  0.00  0.00    +0.039 C 
ATOM      9  C   UNL     1      31.256 -23.574 -15.086  0.00  0.00    +0.147 C 
BRANCH   9  10
ATOM     10  O   UNL     1      29.926 -23.332 -15.236  0.00  0.00    -0.404 OA
BRANCH  10  14
ATOM     11  F   UNL     1      28.046 -23.973 -16.368  0.00  0.00    -0.133 F 
ATOM     12  F   UNL     1      28.576 -24.987 -14.507  0.00  0.00    -0.133 F 
ATOM     13  F   UNL     1      29.773 -25.351 -16.299  0.00  0.00    -0.133 F 
ATOM     14  C   UNL     1      29.082 -24.410 -15.621  0.00  0.00    +0.575 C 
ENDBRANCH  10  14
ENDBRANCH   9  10
ENDBRANCH   1   4
BRANCH   1  15
ATOM     15  N   UNL     1      35.763 -25.103 -13.037  0.00  0.00    -0.177 NA
ATOM     16  H   UNL     1      35.774 -26.113 -13.184  0.00  0.00    +0.149 HD
BRANCH  15  17
ATOM     17  C   UNL     1      36.880 -24.793 -12.135  0.00  0.00    +0.124 C 
BRANCH  17  18
ATOM     18  C   UNL     1      38.099 -25.645 -12.442  0.00  0.00    +0.172 C 
BRANCH  18  19
ATOM     19  O   UNL     1      39.081 -24.847 -13.091  0.00  0.00    -0.272 OA
BRANCH  19  20
ATOM     20  P   UNL     1      39.630 -25.332 -14.533  0.00  0.00    +0.473 P 
ATOM     21  O   UNL     1      41.115 -25.541 -14.609  0.00  0.00    -0.227 OA
BRANCH  20  22
ATOM     22  O   UNL     1      39.033 -24.236 -15.561  0.00  0.00    -0.303 OA
ATOM     23  H   UNL     1      39.562 -23.424 -15.512  0.00  0.00    +0.222 HD
ENDBRANCH  20  22
BRANCH  20  24
ATOM     24  O   UNL     1      38.739 -26.648 -14.832  0.00  0.00    -0.303 OA
ATOM     25  H   UNL     1      39.034 -27.056 -15.661  0.00  0.00    +0.222 HD
ENDBRANCH  20  24
ENDBRANCH  19  20
ENDBRANCH  18  19
ENDBRANCH  17  18
ENDBRANCH  15  17
ENDBRANCH   1  15
TORSDOF 10
ENDMDL
MODEL 5
REMARK VINA RESULT:      -9.0      6.461      9.069
REMARK  Name = 16122526
REMARK  10 active torsions:
REMARK  status: ('A' for Active; 'I' for Inactive)
REMARK    1  A    between atoms: S_1  and  C_4
REMARK    2  A    between atoms: S_1  and  N_15
REMARK    3  A    between atoms: C_9  and  O_10
REMARK    4  A    between atoms: O_10  and  C_14
REMARK    5  A    between atoms: N_15  and  C_17
REMARK    6  A    between atoms: C_17  and  C_18
REMARK    7  A    between atoms: C_18  and  O_19
REMARK    8  A    between atoms: O_19  and  P_20
REMARK    9  A    between atoms: P_20  and  O_22
REMARK   10  A    between atoms: P_20  and  O_24
REMARK                            x       y       z     vdW  Elec       q    Type
REMARK                         _______ _______ _______ _____ _____    ______ ____
ROOT
ATOM      1  S   UNL     1      34.857 -23.946 -13.863  0.00  0.00    +0.060 S 
ATOM      2  O   UNL     1      34.534 -24.112 -12.453  0.00  0.00    -0.153 OA
ATOM      3  O   UNL     1      35.889 -22.994 -14.252  0.00  0.00    -0.153 OA
ENDROOT
BRANCH   1   4
ATOM      4  C   UNL     1      33.379 -23.547 -14.706  0.00  0.00    +0.122 C 
ATOM      5  C   UNL     1      32.209 -23.310 -13.985  0.00  0.00    +0.023 C 
ATOM      6  C   UNL     1      33.370 -23.464 -16.098  0.00  0.00    +0.023 C 
ATOM      7  C   UNL     1      31.029 -22.991 -14.656  0.00  0.00    +0.039 C 
ATOM      8  C   UNL     1      32.189 -23.145 -16.770  0.00  0.00    +0.039 C 
ATOM      9  C   UNL     1      31.019 -22.909 -16.049  0.00  0.00    +0.147 C 
BRANCH   9  10
ATOM     10  O   UNL     1      29.867 -22.598 -16.703  0.00  0.00    -0.404 OA
BRANCH  10  14
ATOM     11  F   UNL     1      28.050 -23.219 -15.462  0.00  0.00    -0.133 F 
ATOM     12  F   UNL     1      29.223 -24.751 -16.489  0.00  0.00    -0.133 F 
ATOM     13  F   UNL     1      27.956 -23.411 -17.662  0.00  0.00    -0.133 F 
ATOM     14  C   UNL     1      28.760 -23.483 -16.580  0.00  0.00    +0.575 C 
ENDBRANCH  10  14
ENDBRANCH   9  10
ENDBRANCH   1   4
BRANCH   1  15
ATOM     15  N   UNL     1      35.251 -25.475 -14.518  0.00  0.00    -0.177 NA
ATOM     16  H   UNL     1      34.625 -25.627 -15.310  0.00  0.00    +0.149 HD
BRANCH  15  17
ATOM     17  C   UNL     1      36.615 -25.737 -14.997  0.00  0.00    +0.124 C 
BRANCH  17  18
ATOM     18  C   UNL     1      37.413 -26.548 -13.992  0.00  0.00    +0.172 C 
BRANCH  18  19
ATOM     19  O   UNL     1      38.660 -26.918 -14.568  0.00  0.00    -0.272 OA
BRANCH  19  20
ATOM     20  P   UNL     1      39.875 -25.853 -14.512  0.00  0.00    +0.473 P 
ATOM     21  O   UNL     1      39.560 -24.567 -13.805  0.00  0.00    -0.227 OA
BRANCH  20  22
ATOM     22  O   UNL     1      40.325 -25.700 -16.058  0.00  0.00    -0.303 OA
ATOM     23  H   UNL     1      41.067 -26.298 -16.239  0.00  0.00    +0.222 HD
ENDBRANCH  20  22
BRANCH  20  24
ATOM     24  O   UNL     1      41.077 -26.714 -13.858  0.00  0.00    -0.303 OA
ATOM     25  H   UNL     1      40.764 -27.139 -13.044  0.00  0.00    +0.222 HD
ENDBRANCH  20  24
ENDBRANCH  19  20
ENDBRANCH  18  19
ENDBRANCH  17  18
ENDBRANCH  15  17
ENDBRANCH   1  15
TORSDOF 10
ENDMDL
MODEL 6
REMARK VINA RESULT:      -8.8      3.396      4.875
REMARK  Name = 16122526
REMARK  10 active torsions:
REMARK  status: ('A' for Active; 'I' for Inactive)
REMARK    1  A    between atoms: S_1  and  C_4
REMARK    2  A    between atoms: S_1  and  N_15
REMARK    3  A    between atoms: C_9  and  O_10
REMARK    4  A    between atoms: O_10  and  C_14
REMARK    5  A    between atoms: N_15  and  C_17
REMARK    6  A    between atoms: C_17  and  C_18
REMARK    7  A    between atoms: C_18  and  O_19
REMARK    8  A    between atoms: O_19  and  P_20
REMARK    9  A    between atoms: P_20  and  O_22
REMARK   10  A    between atoms: P_20  and  O_24
REMARK                            x       y       z     vdW  Elec       q    Type
REMARK                         _______ _______ _______ _____ _____    ______ ____
ROOT
ATOM      1  S   UNL     1      33.655 -22.810 -18.587  0.00  0.00    +0.060 S 
ATOM      2  O   UNL     1      33.892 -24.025 -19.353  0.00  0.00    -0.153 OA
ATOM      3  O   UNL     1      32.344 -22.585 -17.991  0.00  0.00    -0.153 OA
ENDROOT
BRANCH   1   4
ATOM      4  C   UNL     1      34.047 -21.449 -19.610  0.00  0.00    +0.122 C 
ATOM      5  C   UNL     1      35.381 -21.113 -19.841  0.00  0.00    +0.023 C 
ATOM      6  C   UNL     1      33.027 -20.700 -20.196  0.00  0.00    +0.023 C 
ATOM      7  C   UNL     1      35.695 -20.027 -20.658  0.00  0.00    +0.039 C 
ATOM      8  C   UNL     1      33.341 -19.614 -21.013  0.00  0.00    +0.039 C 
ATOM      9  C   UNL     1      34.675 -19.277 -21.244  0.00  0.00    +0.147 C 
BRANCH   9  10
ATOM     10  O   UNL     1      34.982 -18.218 -22.041  0.00  0.00    -0.404 OA
BRANCH  10  14
ATOM     11  F   UNL     1      35.283 -16.768 -20.299  0.00  0.00    -0.133 F 
ATOM     12  F   UNL     1      33.427 -16.692 -21.449  0.00  0.00    -0.133 F 
ATOM     13  F   UNL     1      35.278 -15.972 -22.361  0.00  0.00    -0.133 F 
ATOM     14  C   UNL     1      34.759 -16.906 -21.536  0.00  0.00    +0.575 C 
ENDBRANCH  10  14
ENDBRANCH   9  10
ENDBRANCH   1   4
BRANCH   1  15
ATOM     15  N   UNL     1      34.838 -22.698 -17.358  0.00  0.00    -0.177 NA
ATOM     16  H   UNL     1      34.992 -21.704 -17.187  0.00  0.00    +0.149 HD
BRANCH  15  17
ATOM     17  C   UNL     1      34.598 -23.322 -16.050  0.00  0.00    +0.124 C 
BRANCH  17  18
ATOM     18  C   UNL     1      35.797 -23.172 -15.131  0.00  0.00    +0.172 C 
BRANCH  18  19
ATOM     19  O   UNL     1      36.003 -24.388 -14.422  0.00  0.00    -0.272 OA
BRANCH  19  20
ATOM     20  P   UNL     1      35.722 -24.403 -12.830  0.00  0.00    +0.473 P 
ATOM     21  O   UNL     1      36.223 -23.200 -12.086  0.00  0.00    -0.227 OA
BRANCH  20  22
ATOM     22  O   UNL     1      36.332 -25.820 -12.344  0.00  0.00    -0.303 OA
ATOM     23  H   UNL     1      37.298 -25.752 -12.284  0.00  0.00    +0.222 HD
ENDBRANCH  20  22
BRANCH  20  24
ATOM     24  O   UNL     1      34.124 -24.639 -12.751  0.00  0.00    -0.303 OA
ATOM     25  H   UNL     1      33.791 -24.894 -13.625  0.00  0.00    +0.222 HD
ENDBRANCH  20  24
ENDBRANCH  19  20
ENDBRANCH  18  19
ENDBRANCH  17  18
ENDBRANCH  15  17
ENDBRANCH   1  15
TORSDOF 10
ENDMDL
MODEL 7
REMARK VINA RESULT:      -8.5      3.525      5.138
REMARK  Name = 16122526
REMARK  10 active torsions:
REMARK  status: ('A' for Active; 'I' for Inactive)
REMARK    1  A    between atoms: S_1  and  C_4
REMARK    2  A    between atoms: S_1  and  N_15
REMARK    3  A    between atoms: C_9  and  O_10
REMARK    4  A    between atoms: O_10  and  C_14
REMARK    5  A    between atoms: N_15  and  C_17
REMARK    6  A    between atoms: C_17  and  C_18
REMARK    7  A    between atoms: C_18  and  O_19
REMARK    8  A    between atoms: O_19  and  P_20
REMARK    9  A    between atoms: P_20  and  O_22
REMARK   10  A    between atoms: P_20  and  O_24
REMARK                            x       y       z     vdW  Elec       q    Type
REMARK                         _______ _______ _______ _____ _____    ______ ____
ROOT
ATOM      1  S   UNL     1      33.925 -22.784 -18.519  0.00  0.00    +0.060 S 
ATOM      2  O   UNL     1      33.889 -23.977 -19.354  0.00  0.00    -0.153 OA
ATOM      3  O   UNL     1      32.828 -22.526 -17.595  0.00  0.00    -0.153 OA
ENDROOT
BRANCH   1   4
ATOM      4  C   UNL     1      34.111 -21.402 -19.570  0.00  0.00    +0.122 C 
ATOM      5  C   UNL     1      32.985 -20.708 -20.014  0.00  0.00    +0.023 C 
ATOM      6  C   UNL     1      35.384 -20.991 -19.966  0.00  0.00    +0.023 C 
ATOM      7  C   UNL     1      33.132 -19.604 -20.853  0.00  0.00    +0.039 C 
ATOM      8  C   UNL     1      35.531 -19.887 -20.806  0.00  0.00    +0.039 C 
ATOM      9  C   UNL     1      34.405 -19.193 -21.249  0.00  0.00    +0.147 C 
BRANCH   9  10
ATOM     10  O   UNL     1      34.547 -18.116 -22.069  0.00  0.00    -0.404 OA
BRANCH  10  14
ATOM     11  F   UNL     1      34.996 -15.893 -22.355  0.00  0.00    -0.133 F 
ATOM     12  F   UNL     1      35.349 -16.817 -20.406  0.00  0.00    -0.133 F 
ATOM     13  F   UNL     1      33.295 -16.482 -21.073  0.00  0.00    -0.133 F 
ATOM     14  C   UNL     1      34.535 -16.819 -21.486  0.00  0.00    +0.575 C 
ENDBRANCH  10  14
ENDBRANCH   9  10
ENDBRANCH   1   4
BRANCH   1  15
ATOM     15  N   UNL     1      35.392 -22.777 -17.639  0.00  0.00    -0.177 NA
ATOM     16  H   UNL     1      36.045 -22.191 -18.161  0.00  0.00    +0.149 HD
BRANCH  15  17
ATOM     17  C   UNL     1      35.410 -22.300 -16.250  0.00  0.00    +0.124 C 
BRANCH  17  18
ATOM     18  C   UNL     1      35.214 -23.440 -15.266  0.00  0.00    +0.172 C 
BRANCH  18  19
ATOM     19  O   UNL     1      35.975 -24.564 -15.691  0.00  0.00    -0.272 OA
BRANCH  19  20
ATOM     20  P   UNL     1      37.108 -25.143 -14.693  0.00  0.00    +0.473 P 
ATOM     21  O   UNL     1      36.603 -25.601 -13.356  0.00  0.00    -0.227 OA
BRANCH  20  22
ATOM     22  O   UNL     1      38.218 -23.967 -14.647  0.00  0.00    -0.303 OA
ATOM     23  H   UNL     1      38.885 -24.179 -13.976  0.00  0.00    +0.222 HD
ENDBRANCH  20  22
BRANCH  20  24
ATOM     24  O   UNL     1      37.819 -26.291 -15.584  0.00  0.00    -0.303 OA
ATOM     25  H   UNL     1      37.682 -26.100 -16.525  0.00  0.00    +0.222 HD
ENDBRANCH  20  24
ENDBRANCH  19  20
ENDBRANCH  18  19
ENDBRANCH  17  18
ENDBRANCH  15  17
ENDBRANCH   1  15
TORSDOF 10
ENDMDL
MODEL 8
REMARK VINA RESULT:      -8.4      2.590      3.135
REMARK  Name = 16122526
REMARK  10 active torsions:
REMARK  status: ('A' for Active; 'I' for Inactive)
REMARK    1  A    between atoms: S_1  and  C_4
REMARK    2  A    between atoms: S_1  and  N_15
REMARK    3  A    between atoms: C_9  and  O_10
REMARK    4  A    between atoms: O_10  and  C_14
REMARK    5  A    between atoms: N_15  and  C_17
REMARK    6  A    between atoms: C_17  and  C_18
REMARK    7  A    between atoms: C_18  and  O_19
REMARK    8  A    between atoms: O_19  and  P_20
REMARK    9  A    between atoms: P_20  and  O_22
REMARK   10  A    between atoms: P_20  and  O_24
REMARK                            x       y       z     vdW  Elec       q    Type
REMARK                         _______ _______ _______ _____ _____    ______ ____
ROOT
ATOM      1  S   UNL     1      33.831 -22.948 -18.605  0.00  0.00    +0.060 S 
ATOM      2  O   UNL     1      34.701 -22.847 -17.442  0.00  0.00    -0.153 OA
ATOM      3  O   UNL     1      33.929 -24.117 -19.470  0.00  0.00    -0.153 OA
ENDROOT
BRANCH   1   4
ATOM      4  C   UNL     1      34.065 -21.513 -19.573  0.00  0.00    +0.122 C 
ATOM      5  C   UNL     1      35.354 -21.109 -19.920  0.00  0.00    +0.023 C 
ATOM      6  C   UNL     1      32.964 -20.770 -20.000  0.00  0.00    +0.023 C 
ATOM      7  C   UNL     1      35.543 -19.964 -20.693  0.00  0.00    +0.039 C 
ATOM      8  C   UNL     1      33.152 -19.625 -20.773  0.00  0.00    +0.039 C 
ATOM      9  C   UNL     1      34.441 -19.221 -21.119  0.00  0.00    +0.147 C 
BRANCH   9  10
ATOM     10  O   UNL     1      34.625 -18.103 -21.873  0.00  0.00    -0.404 OA
BRANCH  10  14
ATOM     11  F   UNL     1      34.591 -17.242 -23.991  0.00  0.00    -0.133 F 
ATOM     12  F   UNL     1      34.509 -19.407 -23.712  0.00  0.00    -0.133 F 
ATOM     13  F   UNL     1      36.381 -18.350 -23.319  0.00  0.00    -0.133 F 
ATOM     14  C   UNL     1      35.037 -18.261 -23.226  0.00  0.00    +0.575 C 
ENDBRANCH  10  14
ENDBRANCH   9  10
ENDBRANCH   1   4
BRANCH   1  15
ATOM     15  N   UNL     1      32.209 -22.784 -18.091  0.00  0.00    -0.177 NA
ATOM     16  H   UNL     1      31.731 -23.649 -18.346  0.00  0.00    +0.149 HD
BRANCH  15  17
ATOM     17  C   UNL     1      31.911 -22.535 -16.675  0.00  0.00    +0.124 C 
BRANCH  17  18
ATOM     18  C   UNL     1      31.709 -23.831 -15.911  0.00  0.00    +0.172 C 
BRANCH  18  19
ATOM     19  O   UNL     1      32.812 -24.042 -15.039  0.00  0.00    -0.272 OA
BRANCH  19  20
ATOM     20  P   UNL     1      32.512 -24.302 -13.472  0.00  0.00    +0.473 P 
ATOM     21  O   UNL     1      31.359 -25.221 -13.191  0.00  0.00    -0.227 OA
BRANCH  20  22
ATOM     22  O   UNL     1      32.376 -22.815 -12.852  0.00  0.00    -0.303 OA
ATOM     23  H   UNL     1      32.367 -22.867 -11.884  0.00  0.00    +0.222 HD
ENDBRANCH  20  22
BRANCH  20  24
ATOM     24  O   UNL     1      33.942 -24.810 -12.912  0.00  0.00    -0.303 OA
ATOM     25  H   UNL     1      34.358 -25.390 -13.568  0.00  0.00    +0.222 HD
ENDBRANCH  20  24
ENDBRANCH  19  20
ENDBRANCH  18  19
ENDBRANCH  17  18
ENDBRANCH  15  17
ENDBRANCH   1  15
TORSDOF 10
ENDMDL
MODEL 9
REMARK VINA RESULT:      -8.4      2.103      2.635
REMARK  Name = 16122526
REMARK  10 active torsions:
REMARK  status: ('A' for Active; 'I' for Inactive)
REMARK    1  A    between atoms: S_1  and  C_4
REMARK    2  A    between atoms: S_1  and  N_15
REMARK    3  A    between atoms: C_9  and  O_10
REMARK    4  A    between atoms: O_10  and  C_14
REMARK    5  A    between atoms: N_15  and  C_17
REMARK    6  A    between atoms: C_17  and  C_18
REMARK    7  A    between atoms: C_18  and  O_19
REMARK    8  A    between atoms: O_19  and  P_20
REMARK    9  A    between atoms: P_20  and  O_22
REMARK   10  A    between atoms: P_20  and  O_24
REMARK                            x       y       z     vdW  Elec       q    Type
REMARK                         _______ _______ _______ _____ _____    ______ ____
ROOT
ATOM      1  S   UNL     1      34.028 -22.678 -18.780  0.00  0.00    +0.060 S 
ATOM      2  O   UNL     1      35.058 -22.647 -17.751  0.00  0.00    -0.153 OA
ATOM      3  O   UNL     1      33.932 -23.837 -19.658  0.00  0.00    -0.153 OA
ENDROOT
BRANCH   1   4
ATOM      4  C   UNL     1      34.210 -21.244 -19.761  0.00  0.00    +0.122 C 
ATOM      5  C   UNL     1      35.482 -20.822 -20.147  0.00  0.00    +0.023 C 
ATOM      6  C   UNL     1      33.084 -20.522 -20.158  0.00  0.00    +0.023 C 
ATOM      7  C   UNL     1      35.628 -19.677 -20.931  0.00  0.00    +0.039 C 
ATOM      8  C   UNL     1      33.231 -19.378 -20.941  0.00  0.00    +0.039 C 
ATOM      9  C   UNL     1      34.502 -18.955 -21.328  0.00  0.00    +0.147 C 
BRANCH   9  10
ATOM     10  O   UNL     1      34.646 -17.838 -22.092  0.00  0.00    -0.404 OA
BRANCH  10  14
ATOM     11  F   UNL     1      33.220 -16.226 -21.320  0.00  0.00    -0.133 F 
ATOM     12  F   UNL     1      35.112 -15.634 -22.239  0.00  0.00    -0.133 F 
ATOM     13  F   UNL     1      35.129 -16.558 -20.259  0.00  0.00    -0.133 F 
ATOM     14  C   UNL     1      34.518 -16.569 -21.462  0.00  0.00    +0.575 C 
ENDBRANCH  10  14
ENDBRANCH   9  10
ENDBRANCH   1   4
BRANCH   1  15
ATOM     15  N   UNL     1      32.507 -22.427 -18.040  0.00  0.00    -0.177 NA
ATOM     16  H   UNL     1      31.809 -22.848 -18.654  0.00  0.00    +0.149 HD
BRANCH  15  17
ATOM     17  C   UNL     1      32.255 -22.947 -16.689  0.00  0.00    +0.124 C 
BRANCH  17  18
ATOM     18  C   UNL     1      30.826 -23.440 -16.539  0.00  0.00    +0.172 C 
BRANCH  18  19
ATOM     19  O   UNL     1      30.496 -23.516 -15.158  0.00  0.00    -0.272 OA
BRANCH  19  20
ATOM     20  P   UNL     1      30.056 -24.949 -14.553  0.00  0.00    +0.473 P 
ATOM     21  O   UNL     1      30.382 -26.130 -15.419  0.00  0.00    -0.227 OA
BRANCH  20  22
ATOM     22  O   UNL     1      28.487 -24.756 -14.210  0.00  0.00    -0.303 OA
ATOM     23  H   UNL     1      28.341 -24.917 -13.264  0.00  0.00    +0.222 HD
ENDBRANCH  20  22
BRANCH  20  24
ATOM     24  O   UNL     1      30.758 -24.954 -13.097  0.00  0.00    -0.303 OA
ATOM     25  H   UNL     1      30.133 -24.618 -12.435  0.00  0.00    +0.222 HD
ENDBRANCH  20  24
ENDBRANCH  19  20
ENDBRANCH  18  19
ENDBRANCH  17  18
ENDBRANCH  15  17
ENDBRANCH   1  15
TORSDOF 10
ENDMDL
