MODEL 1
REMARK VINA RESULT:      -8.8      0.000      0.000
REMARK  Name = 11149707
REMARK  3 active torsions:
REMARK  status: ('A' for Active; 'I' for Inactive)
REMARK    1  A    between atoms: C_3  and  N_9
REMARK    2  A    between atoms: C_8  and  O_18
REMARK    3  A    between atoms: O_18  and  C_19
REMARK                            x       y       z     vdW  Elec       q    Type
REMARK                         _______ _______ _______ _____ _____    ______ ____
ROOT
ATOM      1  O   UNL     1      33.046 -13.518 -23.883  0.00  0.00    -0.226 OA
ATOM      2  N   UNL     1      33.702 -15.712 -23.488  0.00  0.00    -0.246 N 
ATOM      3  C   UNL     1      35.316 -17.392 -21.752  0.00  0.00    +0.074 C 
ATOM      4  C   UNL     1      35.433 -17.457 -23.279  0.00  0.00    +0.041 C 
ATOM      5  C   UNL     1      34.765 -16.037 -21.291  0.00  0.00    +0.041 C 
ATOM      6  C   UNL     1      34.156 -17.011 -23.993  0.00  0.00    +0.098 C 
ATOM      7  C   UNL     1      33.496 -15.639 -22.043  0.00  0.00    +0.098 C 
ATOM      8  C   UNL     1      33.428 -14.609 -24.302  0.00  0.00    +0.405 C 
ENDROOT
BRANCH   3   9
ATOM      9  N   UNL     1      34.470 -18.463 -21.263  0.00  0.00    -0.320 N 
ATOM     10  N   UNL     1      36.292 -19.682 -20.330  0.00  0.00    -0.229 NA
ATOM     11  C   UNL     1      34.951 -19.562 -20.578  0.00  0.00    +0.128 C 
ATOM     12  C   UNL     1      34.038 -20.537 -20.151  0.00  0.00    +0.030 C 
ATOM     13  C   UNL     1      34.508 -21.649 -19.460  0.00  0.00    -0.018 C 
ATOM     14  C   UNL     1      36.712 -20.776 -19.656  0.00  0.00    +0.100 C 
ATOM     15  C   UNL     1      35.867 -21.778 -19.203  0.00  0.00    +0.017 C 
ATOM     16  C   UNL     1      33.555 -22.698 -18.995  0.00  0.00    +0.031 C 
ATOM     17  H   UNL     1      33.502 -18.404 -21.428  0.00  0.00    +0.148 HD
ENDBRANCH   3   9
BRANCH   8  18
ATOM     18  O   UNL     1      33.630 -14.869 -25.631  0.00  0.00    -0.435 OA
BRANCH  18  19
ATOM     19  C   UNL     1      32.724 -14.237 -26.543  0.00  0.00    +0.210 C 
ATOM     20  C   UNL     1      33.473 -13.184 -27.333  0.00  0.00    +0.051 C 
ENDBRANCH  18  19
ENDBRANCH   8  18
TORSDOF 3
ENDMDL
MODEL 2
REMARK VINA RESULT:      -8.6      3.761      8.248
REMARK  Name = 11149707
REMARK  3 active torsions:
REMARK  status: ('A' for Active; 'I' for Inactive)
REMARK    1  A    between atoms: C_3  and  N_9
REMARK    2  A    between atoms: C_8  and  O_18
REMARK    3  A    between atoms: O_18  and  C_19
REMARK                            x       y       z     vdW  Elec       q    Type
REMARK                         _______ _______ _______ _____ _____    ______ ____
ROOT
ATOM      1  O   UNL     1      35.207 -17.281 -20.650  0.00  0.00    -0.226 OA
ATOM      2  N   UNL     1      34.870 -15.846 -22.447  0.00  0.00    -0.246 N 
ATOM      3  C   UNL     1      33.048 -13.869 -23.547  0.00  0.00    +0.074 C 
ATOM      4  C   UNL     1      33.552 -15.055 -24.376  0.00  0.00    +0.041 C 
ATOM      5  C   UNL     1      33.112 -14.170 -22.045  0.00  0.00    +0.041 C 
ATOM      6  C   UNL     1      34.900 -15.591 -23.889  0.00  0.00    +0.098 C 
ATOM      7  C   UNL     1      34.476 -14.709 -21.617  0.00  0.00    +0.098 C 
ATOM      8  C   UNL     1      35.230 -17.063 -21.860  0.00  0.00    +0.405 C 
ENDROOT
BRANCH   3   9
ATOM      9  N   UNL     1      33.818 -12.678 -23.847  0.00  0.00    -0.320 N 
ATOM     10  N   UNL     1      32.190 -11.207 -22.919  0.00  0.00    -0.229 NA
ATOM     11  C   UNL     1      33.396 -11.399 -23.539  0.00  0.00    +0.128 C 
ATOM     12  C   UNL     1      34.226 -10.321 -23.876  0.00  0.00    +0.030 C 
ATOM     13  C   UNL     1      33.814  -9.028 -23.572  0.00  0.00    -0.018 C 
ATOM     14  C   UNL     1      31.823  -9.936 -22.639  0.00  0.00    +0.100 C 
ATOM     15  C   UNL     1      32.592  -8.823 -22.942  0.00  0.00    +0.017 C 
ATOM     16  C   UNL     1      34.681  -7.865 -23.920  0.00  0.00    +0.031 C 
ATOM     17  H   UNL     1      34.688 -12.786 -24.294  0.00  0.00    +0.148 HD
ENDBRANCH   3   9
BRANCH   8  18
ATOM     18  O   UNL     1      35.617 -18.001 -22.780  0.00  0.00    -0.435 OA
BRANCH  18  19
ATOM     19  C   UNL     1      34.678 -19.050 -23.044  0.00  0.00    +0.210 C 
ATOM     20  C   UNL     1      34.485 -19.172 -24.541  0.00  0.00    +0.051 C 
ENDBRANCH  18  19
ENDBRANCH   8  18
TORSDOF 3
ENDMDL
MODEL 3
REMARK VINA RESULT:      -8.4      3.349      7.736
REMARK  Name = 11149707
REMARK  3 active torsions:
REMARK  status: ('A' for Active; 'I' for Inactive)
REMARK    1  A    between atoms: C_3  and  N_9
REMARK    2  A    between atoms: C_8  and  O_18
REMARK    3  A    between atoms: O_18  and  C_19
REMARK                            x       y       z     vdW  Elec       q    Type
REMARK                         _______ _______ _______ _____ _____    ______ ____
ROOT
ATOM      1  O   UNL     1      34.119 -21.690 -19.823  0.00  0.00    -0.226 OA
ATOM      2  N   UNL     1      35.193 -19.796 -20.638  0.00  0.00    -0.246 N 
ATOM      3  C   UNL     1      35.643 -18.216 -23.034  0.00  0.00    +0.074 C 
ATOM      4  C   UNL     1      36.800 -18.693 -22.149  0.00  0.00    +0.041 C 
ATOM      5  C   UNL     1      34.408 -19.110 -22.868  0.00  0.00    +0.041 C 
ATOM      6  C   UNL     1      36.378 -18.937 -20.699  0.00  0.00    +0.098 C 
ATOM      7  C   UNL     1      34.038 -19.327 -21.402  0.00  0.00    +0.098 C 
ATOM      8  C   UNL     1      35.112 -20.966 -19.877  0.00  0.00    +0.405 C 
ENDROOT
BRANCH   3   9
ATOM      9  N   UNL     1      35.304 -16.841 -22.726  0.00  0.00    -0.320 N 
ATOM     10  N   UNL     1      34.226 -16.478 -24.819  0.00  0.00    -0.229 NA
ATOM     11  C   UNL     1      34.619 -16.012 -23.594  0.00  0.00    +0.128 C 
ATOM     12  C   UNL     1      34.345 -14.698 -23.188  0.00  0.00    +0.030 C 
ATOM     13  C   UNL     1      33.657 -13.852 -24.050  0.00  0.00    -0.018 C 
ATOM     14  C   UNL     1      33.559 -15.626 -25.631  0.00  0.00    +0.100 C 
ATOM     15  C   UNL     1      33.253 -14.317 -25.296  0.00  0.00    +0.017 C 
ATOM     16  C   UNL     1      33.352 -12.451 -23.639  0.00  0.00    +0.031 C 
ATOM     17  H   UNL     1      35.575 -16.479 -21.852  0.00  0.00    +0.148 HD
ENDBRANCH   3   9
BRANCH   8  18
ATOM     18  O   UNL     1      36.266 -21.231 -19.189  0.00  0.00    -0.435 OA
BRANCH  18  19
ATOM     19  C   UNL     1      36.118 -21.955 -17.962  0.00  0.00    +0.210 C 
ATOM     20  C   UNL     1      37.184 -21.496 -16.988  0.00  0.00    +0.051 C 
ENDBRANCH  18  19
ENDBRANCH   8  18
TORSDOF 3
ENDMDL
MODEL 4
REMARK VINA RESULT:      -8.3      9.590     10.604
REMARK  Name = 11149707
REMARK  3 active torsions:
REMARK  status: ('A' for Active; 'I' for Inactive)
REMARK    1  A    between atoms: C_3  and  N_9
REMARK    2  A    between atoms: C_8  and  O_18
REMARK    3  A    between atoms: O_18  and  C_19
REMARK                            x       y       z     vdW  Elec       q    Type
REMARK                         _______ _______ _______ _____ _____    ______ ____
ROOT
ATOM      1  O   UNL     1      27.598 -24.376 -17.236  0.00  0.00    -0.226 OA
ATOM      2  N   UNL     1      29.636 -23.672 -16.370  0.00  0.00    -0.246 N 
ATOM      3  C   UNL     1      31.525 -24.095 -14.203  0.00  0.00    +0.074 C 
ATOM      4  C   UNL     1      31.009 -22.698 -14.567  0.00  0.00    +0.041 C 
ATOM      5  C   UNL     1      30.548 -25.186 -14.656  0.00  0.00    +0.041 C 
ATOM      6  C   UNL     1      30.563 -22.590 -16.026  0.00  0.00    +0.098 C 
ATOM      7  C   UNL     1      30.130 -25.024 -16.117  0.00  0.00    +0.098 C 
ATOM      8  C   UNL     1      28.378 -23.472 -16.945  0.00  0.00    +0.405 C 
ENDROOT
BRANCH   3   9
ATOM      9  N   UNL     1      32.830 -24.322 -14.793  0.00  0.00    -0.320 N 
ATOM     10  N   UNL     1      33.965 -24.199 -12.702  0.00  0.00    -0.229 NA
ATOM     11  C   UNL     1      34.000 -24.371 -14.059  0.00  0.00    +0.128 C 
ATOM     12  C   UNL     1      35.206 -24.599 -14.738  0.00  0.00    +0.030 C 
ATOM     13  C   UNL     1      36.391 -24.651 -14.013  0.00  0.00    -0.018 C 
ATOM     14  C   UNL     1      35.138 -24.256 -12.031  0.00  0.00    +0.100 C 
ATOM     15  C   UNL     1      36.365 -24.478 -12.634  0.00  0.00    +0.017 C 
ATOM     16  C   UNL     1      37.686 -24.893 -14.713  0.00  0.00    +0.031 C 
ATOM     17  H   UNL     1      32.885 -24.448 -15.767  0.00  0.00    +0.148 HD
ENDBRANCH   3   9
BRANCH   8  18
ATOM     18  O   UNL     1      28.097 -22.148 -17.156  0.00  0.00    -0.435 OA
BRANCH  18  19
ATOM     19  C   UNL     1      26.769 -21.724 -16.827  0.00  0.00    +0.210 C 
ATOM     20  C   UNL     1      26.077 -21.250 -18.088  0.00  0.00    +0.051 C 
ENDBRANCH  18  19
ENDBRANCH   8  18
TORSDOF 3
ENDMDL
MODEL 5
REMARK VINA RESULT:      -7.9      1.877      3.154
REMARK  Name = 11149707
REMARK  3 active torsions:
REMARK  status: ('A' for Active; 'I' for Inactive)
REMARK    1  A    between atoms: C_3  and  N_9
REMARK    2  A    between atoms: C_8  and  O_18
REMARK    3  A    between atoms: O_18  and  C_19
REMARK                            x       y       z     vdW  Elec       q    Type
REMARK                         _______ _______ _______ _____ _____    ______ ____
ROOT
ATOM      1  O   UNL     1      35.173 -15.633 -24.101  0.00  0.00    -0.226 OA
ATOM      2  N   UNL     1      34.905 -17.066 -22.290  0.00  0.00    -0.246 N 
ATOM      3  C   UNL     1      34.599 -19.858 -21.547  0.00  0.00    +0.074 C 
ATOM      4  C   UNL     1      33.637 -18.776 -21.044  0.00  0.00    +0.041 C 
ATOM      5  C   UNL     1      35.285 -19.433 -22.851  0.00  0.00    +0.041 C 
ATOM      6  C   UNL     1      34.274 -17.385 -21.007  0.00  0.00    +0.098 C 
ATOM      7  C   UNL     1      35.894 -18.035 -22.760  0.00  0.00    +0.098 C 
ATOM      8  C   UNL     1      34.645 -15.905 -23.024  0.00  0.00    +0.405 C 
ENDROOT
BRANCH   3   9
ATOM      9  N   UNL     1      35.596 -20.157 -20.538  0.00  0.00    -0.320 N 
ATOM     10  N   UNL     1      34.179 -21.677 -19.372  0.00  0.00    -0.229 NA
ATOM     11  C   UNL     1      35.383 -21.037 -19.493  0.00  0.00    +0.128 C 
ATOM     12  C   UNL     1      36.422 -21.251 -18.576  0.00  0.00    +0.030 C 
ATOM     13  C   UNL     1      36.222 -22.133 -17.520  0.00  0.00    -0.018 C 
ATOM     14  C   UNL     1      34.021 -22.527 -18.332  0.00  0.00    +0.100 C 
ATOM     15  C   UNL     1      35.003 -22.788 -17.389  0.00  0.00    +0.017 C 
ATOM     16  C   UNL     1      37.313 -22.377 -16.533  0.00  0.00    +0.031 C 
ATOM     17  H   UNL     1      36.470 -19.711 -20.600  0.00  0.00    +0.148 HD
ENDBRANCH   3   9
BRANCH   8  18
ATOM     18  O   UNL     1      33.730 -15.088 -22.415  0.00  0.00    -0.435 OA
BRANCH  18  19
ATOM     19  C   UNL     1      33.215 -14.013 -23.209  0.00  0.00    +0.210 C 
ATOM     20  C   UNL     1      32.273 -13.182 -22.364  0.00  0.00    +0.051 C 
ENDBRANCH  18  19
ENDBRANCH   8  18
TORSDOF 3
ENDMDL
MODEL 6
REMARK VINA RESULT:      -7.8      1.973      2.363
REMARK  Name = 11149707
REMARK  3 active torsions:
REMARK  status: ('A' for Active; 'I' for Inactive)
REMARK    1  A    between atoms: C_3  and  N_9
REMARK    2  A    between atoms: C_8  and  O_18
REMARK    3  A    between atoms: O_18  and  C_19
REMARK                            x       y       z     vdW  Elec       q    Type
REMARK                         _______ _______ _______ _____ _____    ______ ____
ROOT
ATOM      1  O   UNL     1      32.225 -12.075 -20.681  0.00  0.00    -0.226 OA
ATOM      2  N   UNL     1      32.759 -14.144 -21.595  0.00  0.00    -0.246 N 
ATOM      3  C   UNL     1      34.759 -16.252 -21.593  0.00  0.00    +0.074 C 
ATOM      4  C   UNL     1      34.242 -15.626 -22.894  0.00  0.00    +0.041 C 
ATOM      5  C   UNL     1      34.580 -15.299 -20.406  0.00  0.00    +0.041 C 
ATOM      6  C   UNL     1      32.837 -15.037 -22.754  0.00  0.00    +0.098 C 
ATOM      7  C   UNL     1      33.162 -14.735 -20.320  0.00  0.00    +0.098 C 
ATOM      8  C   UNL     1      32.292 -12.827 -21.651  0.00  0.00    +0.405 C 
ENDROOT
BRANCH   3   9
ATOM      9  N   UNL     1      34.079 -17.504 -21.330  0.00  0.00    -0.320 N 
ATOM     10  N   UNL     1      36.074 -18.622 -20.661  0.00  0.00    -0.229 NA
ATOM     11  C   UNL     1      34.723 -18.642 -20.880  0.00  0.00    +0.128 C 
ATOM     12  C   UNL     1      33.962 -19.798 -20.657  0.00  0.00    +0.030 C 
ATOM     13  C   UNL     1      34.596 -20.949 -20.204  0.00  0.00    -0.018 C 
ATOM     14  C   UNL     1      36.656 -19.760 -20.221  0.00  0.00    +0.100 C 
ATOM     15  C   UNL     1      35.967 -20.939 -19.979  0.00  0.00    +0.017 C 
ATOM     16  C   UNL     1      33.807 -22.191 -19.960  0.00  0.00    +0.031 C 
ATOM     17  H   UNL     1      33.108 -17.548 -21.480  0.00  0.00    +0.148 HD
ENDBRANCH   3   9
BRANCH   8  18
ATOM     18  O   UNL     1      31.913 -12.454 -22.913  0.00  0.00    -0.435 OA
BRANCH  18  19
ATOM     19  C   UNL     1      32.586 -11.315 -23.463  0.00  0.00    +0.210 C 
ATOM     20  C   UNL     1      33.863 -11.774 -24.135  0.00  0.00    +0.051 C 
ENDBRANCH  18  19
ENDBRANCH   8  18
TORSDOF 3
ENDMDL
MODEL 7
REMARK VINA RESULT:      -7.6      5.721      8.354
REMARK  Name = 11149707
REMARK  3 active torsions:
REMARK  status: ('A' for Active; 'I' for Inactive)
REMARK    1  A    between atoms: C_3  and  N_9
REMARK    2  A    between atoms: C_8  and  O_18
REMARK    3  A    between atoms: O_18  and  C_19
REMARK                            x       y       z     vdW  Elec       q    Type
REMARK                         _______ _______ _______ _____ _____    ______ ____
ROOT
ATOM      1  O   UNL     1      32.823 -22.391 -18.981  0.00  0.00    -0.226 OA
ATOM      2  N   UNL     1      35.044 -22.270 -18.308  0.00  0.00    -0.246 N 
ATOM      3  C   UNL     1      36.772 -22.065 -15.981  0.00  0.00    +0.074 C 
ATOM      4  C   UNL     1      36.912 -21.119 -17.179  0.00  0.00    +0.041 C 
ATOM      5  C   UNL     1      35.359 -22.654 -15.896  0.00  0.00    +0.041 C 
ATOM      6  C   UNL     1      36.395 -21.732 -18.483  0.00  0.00    +0.098 C 
ATOM      7  C   UNL     1      34.892 -23.242 -17.227  0.00  0.00    +0.098 C 
ATOM      8  C   UNL     1      33.958 -21.941 -19.124  0.00  0.00    +0.405 C 
ENDROOT
BRANCH   3   9
ATOM      9  N   UNL     1      37.749 -23.132 -16.062  0.00  0.00    -0.320 N 
ATOM     10  N   UNL     1      37.690 -23.570 -13.720  0.00  0.00    -0.229 NA
ATOM     11  C   UNL     1      38.184 -23.852 -14.965  0.00  0.00    +0.128 C 
ATOM     12  C   UNL     1      39.133 -24.865 -15.163  0.00  0.00    +0.030 C 
ATOM     13  C   UNL     1      39.581 -25.597 -14.069  0.00  0.00    -0.018 C 
ATOM     14  C   UNL     1      38.148 -24.303 -12.681  0.00  0.00    +0.100 C 
ATOM     15  C   UNL     1      39.084 -25.318 -12.802  0.00  0.00    +0.017 C 
ATOM     16  C   UNL     1      40.589 -26.680 -14.256  0.00  0.00    +0.031 C 
ATOM     17  H   UNL     1      38.123 -23.356 -16.944  0.00  0.00    +0.148 HD
ENDBRANCH   3   9
BRANCH   8  18
ATOM     18  O   UNL     1      34.290 -21.054 -20.113  0.00  0.00    -0.435 OA
BRANCH  18  19
ATOM     19  C   UNL     1      33.273 -20.116 -20.488  0.00  0.00    +0.210 C 
ATOM     20  C   UNL     1      33.909 -18.988 -21.272  0.00  0.00    +0.051 C 
ENDBRANCH  18  19
ENDBRANCH   8  18
TORSDOF 3
ENDMDL
MODEL 8
REMARK VINA RESULT:      -7.5      4.790      8.901
REMARK  Name = 11149707
REMARK  3 active torsions:
REMARK  status: ('A' for Active; 'I' for Inactive)
REMARK    1  A    between atoms: C_3  and  N_9
REMARK    2  A    between atoms: C_8  and  O_18
REMARK    3  A    between atoms: O_18  and  C_19
REMARK                            x       y       z     vdW  Elec       q    Type
REMARK                         _______ _______ _______ _____ _____    ______ ____
ROOT
ATOM      1  O   UNL     1      34.209 -23.965 -16.420  0.00  0.00    -0.226 OA
ATOM      2  N   UNL     1      35.240 -22.303 -17.675  0.00  0.00    -0.246 N 
ATOM      3  C   UNL     1      35.471 -21.203 -20.355  0.00  0.00    +0.074 C 
ATOM      4  C   UNL     1      36.704 -21.568 -19.520  0.00  0.00    +0.041 C 
ATOM      5  C   UNL     1      34.237 -21.993 -19.902  0.00  0.00    +0.041 C 
ATOM      6  C   UNL     1      36.436 -21.527 -18.014  0.00  0.00    +0.098 C 
ATOM      7  C   UNL     1      34.023 -21.924 -18.391  0.00  0.00    +0.098 C 
ATOM      8  C   UNL     1      35.210 -23.311 -16.708  0.00  0.00    +0.405 C 
ENDROOT
BRANCH   3   9
ATOM      9  N   UNL     1      35.207 -19.781 -20.272  0.00  0.00    -0.320 N 
ATOM     10  N   UNL     1      35.242 -19.483 -22.636  0.00  0.00    -0.229 NA
ATOM     11  C   UNL     1      35.098 -18.960 -21.379  0.00  0.00    +0.128 C 
ATOM     12  C   UNL     1      34.838 -17.597 -21.178  0.00  0.00    +0.030 C 
ATOM     13  C   UNL     1      34.726 -16.759 -22.282  0.00  0.00    -0.018 C 
ATOM     14  C   UNL     1      35.126 -18.637 -23.685  0.00  0.00    +0.100 C 
ATOM     15  C   UNL     1      34.870 -17.281 -23.562  0.00  0.00    +0.017 C 
ATOM     16  C   UNL     1      34.450 -15.306 -22.093  0.00  0.00    +0.031 C 
ATOM     17  H   UNL     1      35.100 -19.378 -19.382  0.00  0.00    +0.148 HD
ENDBRANCH   3   9
BRANCH   8  18
ATOM     18  O   UNL     1      36.424 -23.503 -16.104  0.00  0.00    -0.435 OA
BRANCH  18  19
ATOM     19  C   UNL     1      36.400 -24.154 -14.829  0.00  0.00    +0.210 C 
ATOM     20  C   UNL     1      37.037 -25.521 -14.962  0.00  0.00    +0.051 C 
ENDBRANCH  18  19
ENDBRANCH   8  18
TORSDOF 3
ENDMDL
MODEL 9
REMARK VINA RESULT:      -7.5      7.659     12.790
REMARK  Name = 11149707
REMARK  3 active torsions:
REMARK  status: ('A' for Active; 'I' for Inactive)
REMARK    1  A    between atoms: C_3  and  N_9
REMARK    2  A    between atoms: C_8  and  O_18
REMARK    3  A    between atoms: O_18  and  C_19
REMARK                            x       y       z     vdW  Elec       q    Type
REMARK                         _______ _______ _______ _____ _____    ______ ____
ROOT
ATOM      1  O   UNL     1      32.125  -9.414 -19.175  0.00  0.00    -0.226 OA
ATOM      2  N   UNL     1      32.141  -8.860 -21.432  0.00  0.00    -0.246 N 
ATOM      3  C   UNL     1      31.754  -6.671 -23.303  0.00  0.00    +0.074 C 
ATOM      4  C   UNL     1      31.034  -8.014 -23.468  0.00  0.00    +0.041 C 
ATOM      5  C   UNL     1      32.164  -6.433 -21.845  0.00  0.00    +0.041 C 
ATOM      6  C   UNL     1      31.788  -9.176 -22.819  0.00  0.00    +0.098 C 
ATOM      7  C   UNL     1      32.904  -7.628 -21.246  0.00  0.00    +0.098 C 
ATOM      8  C   UNL     1      31.830  -9.675 -20.340  0.00  0.00    +0.405 C 
ENDROOT
BRANCH   3   9
ATOM      9  N   UNL     1      32.920  -6.613 -24.162  0.00  0.00    -0.320 N 
ATOM     10  N   UNL     1      32.107  -4.744 -25.396  0.00  0.00    -0.229 NA
ATOM     11  C   UNL     1      33.081  -5.679 -25.168  0.00  0.00    +0.128 C 
ATOM     12  C   UNL     1      34.253  -5.717 -25.935  0.00  0.00    +0.030 C 
ATOM     13  C   UNL     1      34.429  -4.784 -26.951  0.00  0.00    -0.018 C 
ATOM     14  C   UNL     1      32.313  -3.853 -26.392  0.00  0.00    +0.100 C 
ATOM     15  C   UNL     1      33.446  -3.831 -27.189  0.00  0.00    +0.017 C 
ATOM     16  C   UNL     1      35.668  -4.805 -27.780  0.00  0.00    +0.031 C 
ATOM     17  H   UNL     1      33.635  -7.273 -24.021  0.00  0.00    +0.148 HD
ENDBRANCH   3   9
BRANCH   8  18
ATOM     18  O   UNL     1      31.155 -10.811 -20.702  0.00  0.00    -0.435 OA
BRANCH  18  19
ATOM     19  C   UNL     1      31.746 -12.052 -20.300  0.00  0.00    +0.210 C 
ATOM     20  C   UNL     1      32.105 -12.849 -21.537  0.00  0.00    +0.051 C 
ENDBRANCH  18  19
ENDBRANCH   8  18
TORSDOF 3
ENDMDL
