MODEL 1
REMARK VINA RESULT:      -9.6      0.000      0.000
REMARK  Name = 46196517
REMARK  2 active torsions:
REMARK  status: ('A' for Active; 'I' for Inactive)
REMARK    1  A    between atoms: N_2  and  C_17
REMARK    2  A    between atoms: C_3  and  C_7
REMARK                            x       y       z     vdW  Elec       q    Type
REMARK                         _______ _______ _______ _____ _____    ______ ____
ROOT
ATOM      1  O   UNL     1      30.798 -11.934 -21.007  0.00  0.00    -0.270 OA
ATOM      2  N   UNL     1      32.227 -10.869 -22.491  0.00  0.00    -0.304 N 
ATOM      3  C   UNL     1      31.766 -11.956 -21.763  0.00  0.00    +0.252 C 
ATOM      4  H   UNL     1      33.013 -10.987 -23.072  0.00  0.00    +0.150 HD
ENDROOT
BRANCH   3   7
ATOM      5 CL   UNL     1      34.276 -16.247 -25.336  0.00  0.00    -0.082 Cl
ATOM      6  S   UNL     1      32.848 -13.818 -23.479  0.00  0.00    -0.082 S 
ATOM      7  C   UNL     1      32.538 -13.215 -21.915  0.00  0.00    +0.083 C 
ATOM      8  C   UNL     1      33.074 -14.019 -20.937  0.00  0.00    +0.012 C 
ATOM      9  C   UNL     1      33.759 -15.164 -21.468  0.00  0.00    +0.007 C 
ATOM     10  C   UNL     1      33.712 -15.179 -22.866  0.00  0.00    +0.040 C 
ATOM     11  C   UNL     1      34.435 -16.219 -20.810  0.00  0.00    +0.001 C 
ATOM     12  C   UNL     1      34.318 -16.208 -23.612  0.00  0.00    +0.064 C 
ATOM     13  C   UNL     1      35.037 -17.242 -21.547  0.00  0.00    +0.001 C 
ATOM     14  C   UNL     1      34.978 -17.235 -22.934  0.00  0.00    +0.012 C 
ENDBRANCH   3   7
BRANCH   2  17
ATOM     15  N   UNL     1      32.432  -7.384 -21.553  0.00  0.00    +0.388 N 
ATOM     16  C   UNL     1      31.866  -8.739 -23.700  0.00  0.00    +0.012 C 
ATOM     17  C   UNL     1      31.599  -9.571 -22.430  0.00  0.00    +0.051 C 
ATOM     18  C   UNL     1      33.334  -8.278 -23.703  0.00  0.00    -0.021 C 
ATOM     19  C   UNL     1      30.996  -7.475 -23.599  0.00  0.00    -0.021 C 
ATOM     20  C   UNL     1      32.060  -8.772 -21.195  0.00  0.00    -0.057 C 
ATOM     21  C   UNL     1      31.307  -6.752 -22.278  0.00  0.00    -0.077 C 
ATOM     22  C   UNL     1      33.607  -7.432 -22.449  0.00  0.00    -0.077 C 
ATOM     23  H   UNL     1      32.645  -6.848 -20.711  0.00  0.00    -0.080 HD
ENDBRANCH   2  17
TORSDOF 2
ENDMDL
MODEL 2
REMARK VINA RESULT:      -9.5      1.360      1.898
REMARK  Name = 46196517
REMARK  2 active torsions:
REMARK  status: ('A' for Active; 'I' for Inactive)
REMARK    1  A    between atoms: N_2  and  C_17
REMARK    2  A    between atoms: C_3  and  C_7
REMARK                            x       y       z     vdW  Elec       q    Type
REMARK                         _______ _______ _______ _____ _____    ______ ____
ROOT
ATOM      1  O   UNL     1      31.183 -12.055 -21.221  0.00  0.00    -0.270 OA
ATOM      2  N   UNL     1      32.261 -10.823 -22.864  0.00  0.00    -0.304 N 
ATOM      3  C   UNL     1      31.947 -11.989 -22.181  0.00  0.00    +0.252 C 
ATOM      4  H   UNL     1      32.886 -10.873 -23.623  0.00  0.00    +0.150 HD
ENDROOT
BRANCH   3   7
ATOM      5 CL   UNL     1      35.025 -17.148 -21.001  0.00  0.00    -0.082 Cl
ATOM      6  S   UNL     1      33.324 -14.279 -21.517  0.00  0.00    -0.082 S 
ATOM      7  C   UNL     1      32.622 -13.223 -22.656  0.00  0.00    +0.083 C 
ATOM      8  C   UNL     1      32.780 -13.676 -23.945  0.00  0.00    +0.012 C 
ATOM      9  C   UNL     1      33.496 -14.918 -24.017  0.00  0.00    +0.007 C 
ATOM     10  C   UNL     1      33.858 -15.368 -22.743  0.00  0.00    +0.040 C 
ATOM     11  C   UNL     1      33.863 -15.705 -25.134  0.00  0.00    +0.001 C 
ATOM     12  C   UNL     1      34.568 -16.571 -22.562  0.00  0.00    +0.064 C 
ATOM     13  C   UNL     1      34.568 -16.899 -24.958  0.00  0.00    +0.001 C 
ATOM     14  C   UNL     1      34.916 -17.325 -23.684  0.00  0.00    +0.012 C 
ENDBRANCH   3   7
BRANCH   2  17
ATOM     15  N   UNL     1      32.725  -7.580 -21.337  0.00  0.00    +0.388 N 
ATOM     16  C   UNL     1      31.894  -8.496 -23.625  0.00  0.00    +0.012 C 
ATOM     17  C   UNL     1      31.706  -9.540 -22.506  0.00  0.00    +0.051 C 
ATOM     18  C   UNL     1      33.376  -8.089 -23.693  0.00  0.00    -0.021 C 
ATOM     19  C   UNL     1      31.100  -7.246 -23.208  0.00  0.00    -0.021 C 
ATOM     20  C   UNL     1      32.320  -8.998 -21.199  0.00  0.00    -0.057 C 
ATOM     21  C   UNL     1      31.569  -6.790 -21.816  0.00  0.00    -0.077 C 
ATOM     22  C   UNL     1      33.807  -7.498 -22.341  0.00  0.00    -0.077 C 
ATOM     23  H   UNL     1      33.043  -7.216 -20.438  0.00  0.00    -0.080 HD
ENDBRANCH   2  17
TORSDOF 2
ENDMDL
MODEL 3
REMARK VINA RESULT:      -9.2      8.553     12.580
REMARK  Name = 46196517
REMARK  2 active torsions:
REMARK  status: ('A' for Active; 'I' for Inactive)
REMARK    1  A    between atoms: N_2  and  C_17
REMARK    2  A    between atoms: C_3  and  C_7
REMARK                            x       y       z     vdW  Elec       q    Type
REMARK                         _______ _______ _______ _____ _____    ______ ____
ROOT
ATOM      1  O   UNL     1      33.767 -24.141 -18.773  0.00  0.00    -0.270 OA
ATOM      2  N   UNL     1      32.695 -22.782 -17.229  0.00  0.00    -0.304 N 
ATOM      3  C   UNL     1      33.411 -23.029 -18.391  0.00  0.00    +0.252 C 
ATOM      4  H   UNL     1      32.455 -21.853 -17.009  0.00  0.00    +0.150 HD
ENDROOT
BRANCH   3   7
ATOM      5 CL   UNL     1      37.678 -19.468 -20.962  0.00  0.00    -0.082 Cl
ATOM      6  S   UNL     1      35.426 -21.512 -19.498  0.00  0.00    -0.082 S 
ATOM      7  C   UNL     1      33.780 -21.835 -19.194  0.00  0.00    +0.083 C 
ATOM      8  C   UNL     1      32.956 -20.893 -19.763  0.00  0.00    +0.012 C 
ATOM      9  C   UNL     1      33.678 -19.873 -20.469  0.00  0.00    +0.007 C 
ATOM     10  C   UNL     1      35.057 -20.091 -20.404  0.00  0.00    +0.040 C 
ATOM     11  C   UNL     1      33.212 -18.742 -21.181  0.00  0.00    +0.001 C 
ATOM     12  C   UNL     1      35.971 -19.219 -21.026  0.00  0.00    +0.064 C 
ATOM     13  C   UNL     1      34.116 -17.873 -21.799  0.00  0.00    +0.001 C 
ATOM     14  C   UNL     1      35.481 -18.111 -21.722  0.00  0.00    +0.012 C 
ENDBRANCH   3   7
BRANCH   2  17
ATOM     15  N   UNL     1      32.284 -23.957 -13.835  0.00  0.00    +0.388 N 
ATOM     16  C   UNL     1      30.794 -23.727 -15.956  0.00  0.00    +0.012 C 
ATOM     17  C   UNL     1      32.286 -23.835 -16.332  0.00  0.00    +0.051 C 
ATOM     18  C   UNL     1      30.597 -22.533 -15.005  0.00  0.00    -0.021 C 
ATOM     19  C   UNL     1      30.439 -24.998 -15.165  0.00  0.00    -0.021 C 
ATOM     20  C   UNL     1      33.133 -23.848 -15.044  0.00  0.00    -0.057 C 
ATOM     21  C   UNL     1      31.397 -25.134 -13.969  0.00  0.00    -0.077 C 
ATOM     22  C   UNL     1      31.448 -22.740 -13.742  0.00  0.00    -0.077 C 
ATOM     23  H   UNL     1      32.866 -24.056 -13.003  0.00  0.00    -0.080 HD
ENDBRANCH   2  17
TORSDOF 2
ENDMDL
MODEL 4
REMARK VINA RESULT:      -9.0      9.938     14.222
REMARK  Name = 46196517
REMARK  2 active torsions:
REMARK  status: ('A' for Active; 'I' for Inactive)
REMARK    1  A    between atoms: N_2  and  C_17
REMARK    2  A    between atoms: C_3  and  C_7
REMARK                            x       y       z     vdW  Elec       q    Type
REMARK                         _______ _______ _______ _____ _____    ______ ____
ROOT
ATOM      1  O   UNL     1      33.433 -24.013 -16.068  0.00  0.00    -0.270 OA
ATOM      2  N   UNL     1      35.708 -23.609 -15.861  0.00  0.00    -0.304 N 
ATOM      3  C   UNL     1      34.460 -23.455 -16.448  0.00  0.00    +0.252 C 
ATOM      4  H   UNL     1      36.473 -23.118 -16.240  0.00  0.00    +0.150 HD
ENDROOT
BRANCH   3   7
ATOM      5 CL   UNL     1      37.276 -19.845 -20.513  0.00  0.00    -0.082 Cl
ATOM      6  S   UNL     1      35.845 -21.858 -18.213  0.00  0.00    -0.082 S 
ATOM      7  C   UNL     1      34.405 -22.564 -17.634  0.00  0.00    +0.083 C 
ATOM      8  C   UNL     1      33.313 -22.195 -18.384  0.00  0.00    +0.012 C 
ATOM      9  C   UNL     1      33.649 -21.310 -19.463  0.00  0.00    +0.007 C 
ATOM     10  C   UNL     1      35.021 -21.039 -19.487  0.00  0.00    +0.040 C 
ATOM     11  C   UNL     1      32.831 -20.710 -20.450  0.00  0.00    +0.001 C 
ATOM     12  C   UNL     1      35.587 -20.194 -20.461  0.00  0.00    +0.064 C 
ATOM     13  C   UNL     1      33.389 -19.870 -21.417  0.00  0.00    +0.001 C 
ATOM     14  C   UNL     1      34.753 -19.616 -21.421  0.00  0.00    +0.012 C 
ENDBRANCH   3   7
BRANCH   2  17
ATOM     15  N   UNL     1      37.279 -26.548 -14.461  0.00  0.00    +0.388 N 
ATOM     16  C   UNL     1      37.150 -24.013 -13.891  0.00  0.00    +0.012 C 
ATOM     17  C   UNL     1      35.928 -24.461 -14.718  0.00  0.00    +0.051 C 
ATOM     18  C   UNL     1      38.436 -24.345 -14.668  0.00  0.00    -0.021 C 
ATOM     19  C   UNL     1      37.162 -24.869 -12.612  0.00  0.00    -0.021 C 
ATOM     20  C   UNL     1      36.109 -25.935 -15.132  0.00  0.00    -0.057 C 
ATOM     21  C   UNL     1      37.156 -26.357 -12.999  0.00  0.00    -0.077 C 
ATOM     22  C   UNL     1      38.499 -25.858 -14.930  0.00  0.00    -0.077 C 
ATOM     23  H   UNL     1      37.326 -27.545 -14.677  0.00  0.00    -0.080 HD
ENDBRANCH   2  17
TORSDOF 2
ENDMDL
MODEL 5
REMARK VINA RESULT:      -8.8      1.748      2.017
REMARK  Name = 46196517
REMARK  2 active torsions:
REMARK  status: ('A' for Active; 'I' for Inactive)
REMARK    1  A    between atoms: N_2  and  C_17
REMARK    2  A    between atoms: C_3  and  C_7
REMARK                            x       y       z     vdW  Elec       q    Type
REMARK                         _______ _______ _______ _____ _____    ______ ____
ROOT
ATOM      1  O   UNL     1      33.637 -11.518 -25.445  0.00  0.00    -0.270 OA
ATOM      2  N   UNL     1      33.101 -10.675 -23.352  0.00  0.00    -0.304 N 
ATOM      3  C   UNL     1      33.522 -11.663 -24.231  0.00  0.00    +0.252 C 
ATOM      4  H   UNL     1      33.041 -10.889 -22.393  0.00  0.00    +0.150 HD
ENDROOT
BRANCH   3   7
ATOM      5 CL   UNL     1      34.510 -17.674 -24.836  0.00  0.00    -0.082 Cl
ATOM      6  S   UNL     1      33.949 -14.353 -24.638  0.00  0.00    -0.082 S 
ATOM      7  C   UNL     1      33.820 -12.986 -23.627  0.00  0.00    +0.083 C 
ATOM      8  C   UNL     1      34.021 -13.303 -22.305  0.00  0.00    +0.012 C 
ATOM      9  C   UNL     1      34.286 -14.699 -22.098  0.00  0.00    +0.007 C 
ATOM     10  C   UNL     1      34.277 -15.400 -23.308  0.00  0.00    +0.040 C 
ATOM     11  C   UNL     1      34.542 -15.420 -20.908  0.00  0.00    +0.001 C 
ATOM     12  C   UNL     1      34.515 -16.787 -23.357  0.00  0.00    +0.064 C 
ATOM     13  C   UNL     1      34.778 -16.798 -20.952  0.00  0.00    +0.001 C 
ATOM     14  C   UNL     1      34.764 -17.472 -22.165  0.00  0.00    +0.012 C 
ENDBRANCH   3   7
BRANCH   2  17
ATOM     15  N   UNL     1      31.370  -7.569 -22.700  0.00  0.00    +0.388 N 
ATOM     16  C   UNL     1      33.785  -8.296 -23.338  0.00  0.00    +0.012 C 
ATOM     17  C   UNL     1      32.750  -9.346 -23.790  0.00  0.00    +0.051 C 
ATOM     18  C   UNL     1      33.653  -8.076 -21.820  0.00  0.00    -0.021 C 
ATOM     19  C   UNL     1      33.407  -6.971 -24.022  0.00  0.00    -0.021 C 
ATOM     20  C   UNL     1      31.354  -8.930 -23.285  0.00  0.00    -0.057 C 
ATOM     21  C   UNL     1      31.948  -6.625 -23.682  0.00  0.00    -0.077 C 
ATOM     22  C   UNL     1      32.230  -7.590 -21.497  0.00  0.00    -0.077 C 
ATOM     23  H   UNL     1      30.423  -7.279 -22.457  0.00  0.00    -0.080 HD
ENDBRANCH   2  17
TORSDOF 2
ENDMDL
MODEL 6
REMARK VINA RESULT:      -8.7      9.903     14.333
REMARK  Name = 46196517
REMARK  2 active torsions:
REMARK  status: ('A' for Active; 'I' for Inactive)
REMARK    1  A    between atoms: N_2  and  C_17
REMARK    2  A    between atoms: C_3  and  C_7
REMARK                            x       y       z     vdW  Elec       q    Type
REMARK                         _______ _______ _______ _____ _____    ______ ____
ROOT
ATOM      1  O   UNL     1      34.055 -23.888 -16.257  0.00  0.00    -0.270 OA
ATOM      2  N   UNL     1      36.289 -23.537 -15.744  0.00  0.00    -0.304 N 
ATOM      3  C   UNL     1      35.131 -23.341 -16.483  0.00  0.00    +0.252 C 
ATOM      4  H   UNL     1      37.105 -23.051 -16.005  0.00  0.00    +0.150 HD
ENDROOT
BRANCH   3   7
ATOM      5 CL   UNL     1      32.542 -20.271 -21.104  0.00  0.00    -0.082 Cl
ATOM      6  S   UNL     1      33.846 -22.013 -18.525  0.00  0.00    -0.082 S 
ATOM      7  C   UNL     1      35.246 -22.416 -17.639  0.00  0.00    +0.083 C 
ATOM      8  C   UNL     1      36.367 -21.797 -18.138  0.00  0.00    +0.012 C 
ATOM      9  C   UNL     1      36.089 -20.969 -19.277  0.00  0.00    +0.007 C 
ATOM     10  C   UNL     1      34.729 -20.995 -19.601  0.00  0.00    +0.040 C 
ATOM     11  C   UNL     1      36.951 -20.176 -20.071  0.00  0.00    +0.001 C 
ATOM     12  C   UNL     1      34.216 -20.257 -20.685  0.00  0.00    +0.064 C 
ATOM     13  C   UNL     1      36.446 -19.442 -21.148  0.00  0.00    +0.001 C 
ATOM     14  C   UNL     1      35.092 -19.483 -21.450  0.00  0.00    +0.012 C 
ENDBRANCH   3   7
BRANCH   2  17
ATOM     15  N   UNL     1      37.428 -26.658 -14.321  0.00  0.00    +0.388 N 
ATOM     16  C   UNL     1      37.561 -24.134 -13.706  0.00  0.00    +0.012 C 
ATOM     17  C   UNL     1      36.344 -24.424 -14.608  0.00  0.00    +0.051 C 
ATOM     18  C   UNL     1      38.842 -24.602 -14.420  0.00  0.00    -0.021 C 
ATOM     19  C   UNL     1      37.402 -25.003 -12.447  0.00  0.00    -0.021 C 
ATOM     20  C   UNL     1      36.376 -25.904 -15.041  0.00  0.00    -0.057 C 
ATOM     21  C   UNL     1      37.245 -26.475 -12.864  0.00  0.00    -0.077 C 
ATOM     22  C   UNL     1      38.745 -26.109 -14.708  0.00  0.00    -0.077 C 
ATOM     23  H   UNL     1      37.371 -27.650 -14.554  0.00  0.00    -0.080 HD
ENDBRANCH   2  17
TORSDOF 2
ENDMDL
MODEL 7
REMARK VINA RESULT:      -8.5     13.806     16.008
REMARK  Name = 46196517
REMARK  2 active torsions:
REMARK  status: ('A' for Active; 'I' for Inactive)
REMARK    1  A    between atoms: N_2  and  C_17
REMARK    2  A    between atoms: C_3  and  C_7
REMARK                            x       y       z     vdW  Elec       q    Type
REMARK                         _______ _______ _______ _____ _____    ______ ____
ROOT
ATOM      1  O   UNL     1      34.368 -23.946 -12.344  0.00  0.00    -0.270 OA
ATOM      2  N   UNL     1      35.165 -25.007 -14.246  0.00  0.00    -0.304 N 
ATOM      3  C   UNL     1      34.209 -24.336 -13.498  0.00  0.00    +0.252 C 
ATOM      4  H   UNL     1      34.941 -25.280 -15.165  0.00  0.00    +0.150 HD
ENDROOT
BRANCH   3   7
ATOM      5 CL   UNL     1      28.358 -25.912 -14.372  0.00  0.00    -0.082 Cl
ATOM      6  S   UNL     1      31.594 -25.146 -13.801  0.00  0.00    -0.082 S 
ATOM      7  C   UNL     1      32.901 -24.113 -14.164  0.00  0.00    +0.083 C 
ATOM      8  C   UNL     1      32.556 -23.149 -15.082  0.00  0.00    +0.012 C 
ATOM      9  C   UNL     1      31.189 -23.248 -15.509  0.00  0.00    +0.007 C 
ATOM     10  C   UNL     1      30.537 -24.312 -14.879  0.00  0.00    +0.040 C 
ATOM     11  C   UNL     1      30.453 -22.462 -16.428  0.00  0.00    +0.001 C 
ATOM     12  C   UNL     1      29.185 -24.606 -15.139  0.00  0.00    +0.064 C 
ATOM     13  C   UNL     1      29.110 -22.751 -16.690  0.00  0.00    +0.001 C 
ATOM     14  C   UNL     1      28.485 -23.812 -16.051  0.00  0.00    +0.012 C 
ENDBRANCH   3   7
BRANCH   2  17
ATOM     15  N   UNL     1      38.676 -25.588 -14.882  0.00  0.00    +0.388 N 
ATOM     16  C   UNL     1      37.258 -24.053 -13.332  0.00  0.00    +0.012 C 
ATOM     17  C   UNL     1      36.475 -25.321 -13.728  0.00  0.00    +0.051 C 
ATOM     18  C   UNL     1      37.693 -23.308 -14.607  0.00  0.00    -0.021 C 
ATOM     19  C   UNL     1      38.541 -24.523 -12.624  0.00  0.00    -0.021 C 
ATOM     20  C   UNL     1      37.307 -26.136 -14.739  0.00  0.00    -0.057 C 
ATOM     21  C   UNL     1      39.302 -25.490 -13.546  0.00  0.00    -0.077 C 
ATOM     22  C   UNL     1      38.576 -24.231 -15.462  0.00  0.00    -0.077 C 
ATOM     23  H   UNL     1      39.236 -26.193 -15.484  0.00  0.00    -0.080 HD
ENDBRANCH   2  17
TORSDOF 2
ENDMDL
MODEL 8
REMARK VINA RESULT:      -8.5      9.647     12.865
REMARK  Name = 46196517
REMARK  2 active torsions:
REMARK  status: ('A' for Active; 'I' for Inactive)
REMARK    1  A    between atoms: N_2  and  C_17
REMARK    2  A    between atoms: C_3  and  C_7
REMARK                            x       y       z     vdW  Elec       q    Type
REMARK                         _______ _______ _______ _____ _____    ______ ____
ROOT
ATOM      1  O   UNL     1      34.772 -24.129 -16.570  0.00  0.00    -0.270 OA
ATOM      2  N   UNL     1      32.681 -23.135 -16.710  0.00  0.00    -0.304 N 
ATOM      3  C   UNL     1      34.016 -23.292 -17.056  0.00  0.00    +0.252 C 
ATOM      4  H   UNL     1      32.156 -22.433 -17.157  0.00  0.00    +0.150 HD
ENDROOT
BRANCH   3   7
ATOM      5 CL   UNL     1      33.063 -19.506 -21.772  0.00  0.00    -0.082 Cl
ATOM      6  S   UNL     1      33.454 -21.619 -19.170  0.00  0.00    -0.082 S 
ATOM      7  C   UNL     1      34.539 -22.346 -18.074  0.00  0.00    +0.083 C 
ATOM      8  C   UNL     1      35.835 -21.940 -18.286  0.00  0.00    +0.012 C 
ATOM      9  C   UNL     1      35.959 -21.010 -19.372  0.00  0.00    +0.007 C 
ATOM     10  C   UNL     1      34.715 -20.742 -19.953  0.00  0.00    +0.040 C 
ATOM     11  C   UNL     1      37.100 -20.364 -19.905  0.00  0.00    +0.001 C 
ATOM     12  C   UNL     1      34.586 -19.855 -21.039  0.00  0.00    +0.064 C 
ATOM     13  C   UNL     1      36.976 -19.483 -20.983  0.00  0.00    +0.001 C 
ATOM     14  C   UNL     1      35.731 -19.232 -21.543  0.00  0.00    +0.012 C 
ENDBRANCH   3   7
BRANCH   2  17
ATOM     15  N   UNL     1      30.654 -23.355 -13.725  0.00  0.00    +0.388 N 
ATOM     16  C   UNL     1      30.599 -24.342 -16.131  0.00  0.00    +0.012 C 
ATOM     17  C   UNL     1      32.035 -23.960 -15.718  0.00  0.00    +0.051 C 
ATOM     18  C   UNL     1      29.694 -23.102 -16.017  0.00  0.00    -0.021 C 
ATOM     19  C   UNL     1      30.094 -25.366 -15.101  0.00  0.00    -0.021 C 
ATOM     20  C   UNL     1      32.000 -23.273 -14.339  0.00  0.00    -0.057 C 
ATOM     21  C   UNL     1      30.222 -24.769 -13.690  0.00  0.00    -0.077 C 
ATOM     22  C   UNL     1      29.709 -22.590 -14.567  0.00  0.00    -0.077 C 
ATOM     23  H   UNL     1      30.675 -22.976 -12.778  0.00  0.00    -0.080 HD
ENDBRANCH   2  17
TORSDOF 2
ENDMDL
MODEL 9
REMARK VINA RESULT:      -8.4      8.259     11.003
REMARK  Name = 46196517
REMARK  2 active torsions:
REMARK  status: ('A' for Active; 'I' for Inactive)
REMARK    1  A    between atoms: N_2  and  C_17
REMARK    2  A    between atoms: C_3  and  C_7
REMARK                            x       y       z     vdW  Elec       q    Type
REMARK                         _______ _______ _______ _____ _____    ______ ____
ROOT
ATOM      1  O   UNL     1      32.985 -22.397 -19.842  0.00  0.00    -0.270 OA
ATOM      2  N   UNL     1      34.669 -20.803 -19.795  0.00  0.00    -0.304 N 
ATOM      3  C   UNL     1      33.952 -21.878 -19.290  0.00  0.00    +0.252 C 
ATOM      4  H   UNL     1      35.430 -20.456 -19.276  0.00  0.00    +0.150 HD
ENDROOT
BRANCH   3   7
ATOM      5 CL   UNL     1      32.741 -24.790 -14.043  0.00  0.00    -0.082 Cl
ATOM      6  S   UNL     1      33.278 -23.204 -16.972  0.00  0.00    -0.082 S 
ATOM      7  C   UNL     1      34.398 -22.395 -17.971  0.00  0.00    +0.083 C 
ATOM      8  C   UNL     1      35.644 -22.321 -17.395  0.00  0.00    +0.012 C 
ATOM      9  C   UNL     1      35.697 -22.937 -16.099  0.00  0.00    +0.007 C 
ATOM     10  C   UNL     1      34.455 -23.469 -15.739  0.00  0.00    +0.040 C 
ATOM     11  C   UNL     1      36.772 -23.073 -15.189  0.00  0.00    +0.001 C 
ATOM     12  C   UNL     1      34.263 -24.125 -14.509  0.00  0.00    +0.064 C 
ATOM     13  C   UNL     1      36.586 -23.724 -13.966  0.00  0.00    +0.001 C 
ATOM     14  C   UNL     1      35.344 -24.244 -13.631  0.00  0.00    +0.012 C 
ENDBRANCH   3   7
BRANCH   2  17
ATOM     15  N   UNL     1      33.999 -17.769 -21.643  0.00  0.00    +0.388 N 
ATOM     16  C   UNL     1      35.603 -19.806 -21.859  0.00  0.00    +0.012 C 
ATOM     17  C   UNL     1      34.341 -20.173 -21.051  0.00  0.00    +0.051 C 
ATOM     18  C   UNL     1      36.305 -18.613 -21.187  0.00  0.00    -0.021 C 
ATOM     19  C   UNL     1      35.125 -19.328 -23.241  0.00  0.00    -0.021 C 
ATOM     20  C   UNL     1      33.484 -18.908 -20.848  0.00  0.00    -0.057 C 
ATOM     21  C   UNL     1      34.119 -18.179 -23.059  0.00  0.00    -0.077 C 
ATOM     22  C   UNL     1      35.342 -17.416 -21.135  0.00  0.00    -0.077 C 
ATOM     23  H   UNL     1      33.367 -16.971 -21.566  0.00  0.00    -0.080 HD
ENDBRANCH   2  17
TORSDOF 2
ENDMDL
