MODEL 1
REMARK VINA RESULT:      -9.5      0.000      0.000
REMARK  Name = 53465279
REMARK  6 active torsions:
REMARK  status: ('A' for Active; 'I' for Inactive)
REMARK    1  A    between atoms: C_1  and  C_23
REMARK    2  A    between atoms: C_5  and  N_12
REMARK    3  A    between atoms: C_15  and  S_17
REMARK    4  A    between atoms: S_17  and  C_18
REMARK    5  A    between atoms: C_18  and  C_20
REMARK    6  A    between atoms: C_20  and  O_21
REMARK                            x       y       z     vdW  Elec       q    Type
REMARK                         _______ _______ _______ _____ _____    ______ ____
ROOT
ATOM      1  C   UNL     1      33.936  -9.370 -23.623  0.00  0.00    -0.022 C 
ATOM      2  C   UNL     1      32.987 -10.139 -22.931  0.00  0.00    -0.003 C 
ATOM      3  C   UNL     1      34.731  -9.945 -24.615  0.00  0.00    -0.003 C 
ATOM      4  C   UNL     1      32.841 -11.510 -23.248  0.00  0.00    +0.016 C 
ATOM      5  C   UNL     1      33.650 -12.072 -24.250  0.00  0.00    +0.068 C 
ATOM      6  C   UNL     1      34.588 -11.294 -24.928  0.00  0.00    +0.017 C 
ATOM      7  C   UNL     1      32.179  -9.576 -21.930  0.00  0.00    -0.000 C 
ATOM      8  C   UNL     1      31.892 -12.279 -22.556  0.00  0.00    +0.001 C 
ATOM      9  C   UNL     1      31.240 -10.355 -21.251  0.00  0.00    -0.000 C 
ATOM     10  C   UNL     1      31.097 -11.704 -21.564  0.00  0.00    +0.000 C 
ENDROOT
BRANCH   5  12
ATOM     11 BR   UNL     1      32.543 -12.900 -27.308  0.00  0.00    -0.006 Br
ATOM     12  N   UNL     1      33.555 -13.410 -24.607  0.00  0.00    -0.264 N 
ATOM     13  N   UNL     1      33.635 -15.595 -24.541  0.00  0.00    -0.121 NA
ATOM     14  N   UNL     1      33.168 -15.214 -25.783  0.00  0.00    -0.121 NA
ATOM     15  C   UNL     1      33.861 -14.500 -23.850  0.00  0.00    +0.198 A 
ATOM     16  C   UNL     1      33.127 -13.901 -25.802  0.00  0.00    +0.205 A 
BRANCH  15  17
ATOM     17  S   UNL     1      34.457 -14.423 -22.232  0.00  0.00    -0.063 S 
BRANCH  17  18
ATOM     18  C   UNL     1      33.965 -16.034 -21.521  0.00  0.00    +0.174 C 
BRANCH  18  20
ATOM     19  O   UNL     1      35.503 -17.664 -20.633  0.00  0.00    -0.249 OA
ATOM     20  C   UNL     1      35.128 -16.981 -21.579  0.00  0.00    +0.325 C 
BRANCH  20  21
ATOM     21  O   UNL     1      35.718 -17.014 -22.801  0.00  0.00    -0.480 OA
ATOM     22  H   UNL     1      36.628 -17.219 -22.877  0.00  0.00    +0.295 HD
ENDBRANCH  20  21
ENDBRANCH  18  20
ENDBRANCH  17  18
ENDBRANCH  15  17
ENDBRANCH   5  12
BRANCH   1  23
ATOM     23  C   UNL     1      34.139  -7.915 -23.335  0.00  0.00    +0.022 C 
ATOM     24  C   UNL     1      34.588  -6.999 -24.437  0.00  0.00    +0.005 C 
ATOM     25  C   UNL     1      33.186  -6.908 -23.909  0.00  0.00    +0.005 C 
ENDBRANCH   1  23
TORSDOF 6
ENDMDL
MODEL 2
REMARK VINA RESULT:      -9.4      1.004      2.739
REMARK  Name = 53465279
REMARK  6 active torsions:
REMARK  status: ('A' for Active; 'I' for Inactive)
REMARK    1  A    between atoms: C_1  and  C_23
REMARK    2  A    between atoms: C_5  and  N_12
REMARK    3  A    between atoms: C_15  and  S_17
REMARK    4  A    between atoms: S_17  and  C_18
REMARK    5  A    between atoms: C_18  and  C_20
REMARK    6  A    between atoms: C_20  and  O_21
REMARK                            x       y       z     vdW  Elec       q    Type
REMARK                         _______ _______ _______ _____ _____    ______ ____
ROOT
ATOM      1  C   UNL     1      32.208 -10.596 -22.438  0.00  0.00    -0.022 C 
ATOM      2  C   UNL     1      33.218 -10.479 -23.407  0.00  0.00    -0.003 C 
ATOM      3  C   UNL     1      31.639 -11.837 -22.149  0.00  0.00    -0.003 C 
ATOM      4  C   UNL     1      33.657 -11.636 -24.093  0.00  0.00    +0.016 C 
ATOM      5  C   UNL     1      33.073 -12.878 -23.789  0.00  0.00    +0.068 C 
ATOM      6  C   UNL     1      32.071 -12.976 -22.823  0.00  0.00    +0.017 C 
ATOM      7  C   UNL     1      33.801  -9.239 -23.711  0.00  0.00    -0.000 C 
ATOM      8  C   UNL     1      34.667 -11.520 -25.062  0.00  0.00    +0.001 C 
ATOM      9  C   UNL     1      34.804  -9.140 -24.677  0.00  0.00    -0.000 C 
ATOM     10  C   UNL     1      35.235 -10.279 -25.351  0.00  0.00    +0.000 C 
ENDROOT
BRANCH   5  12
ATOM     11 BR   UNL     1      32.415 -13.288 -27.055  0.00  0.00    -0.006 Br
ATOM     12  N   UNL     1      33.461 -14.048 -24.426  0.00  0.00    -0.264 N 
ATOM     13  N   UNL     1      34.296 -16.034 -24.809  0.00  0.00    -0.121 NA
ATOM     14  N   UNL     1      33.763 -15.551 -25.987  0.00  0.00    -0.121 NA
ATOM     15  C   UNL     1      34.105 -15.120 -23.885  0.00  0.00    +0.198 A 
ATOM     16  C   UNL     1      33.267 -14.361 -25.736  0.00  0.00    +0.205 A 
BRANCH  15  17
ATOM     17  S   UNL     1      34.588 -15.229 -22.231  0.00  0.00    -0.063 S 
BRANCH  17  18
ATOM     18  C   UNL     1      34.200 -16.959 -21.789  0.00  0.00    +0.174 C 
BRANCH  18  20
ATOM     19  O   UNL     1      35.872 -18.330 -20.723  0.00  0.00    -0.249 OA
ATOM     20  C   UNL     1      35.471 -17.756 -21.727  0.00  0.00    +0.325 C 
BRANCH  20  21
ATOM     21  O   UNL     1      36.129 -17.785 -22.914  0.00  0.00    -0.480 OA
ATOM     22  H   UNL     1      35.660 -17.960 -23.706  0.00  0.00    +0.295 HD
ENDBRANCH  20  21
ENDBRANCH  18  20
ENDBRANCH  17  18
ENDBRANCH  15  17
ENDBRANCH   5  12
BRANCH   1  23
ATOM     23  C   UNL     1      31.699  -9.411 -21.678  0.00  0.00    +0.022 C 
ATOM     24  C   UNL     1      31.905  -9.342 -20.192  0.00  0.00    +0.005 C 
ATOM     25  C   UNL     1      32.675  -8.429 -21.100  0.00  0.00    +0.005 C 
ENDBRANCH   1  23
TORSDOF 6
ENDMDL
MODEL 3
REMARK VINA RESULT:      -8.9      4.619      8.867
REMARK  Name = 53465279
REMARK  6 active torsions:
REMARK  status: ('A' for Active; 'I' for Inactive)
REMARK    1  A    between atoms: C_1  and  C_23
REMARK    2  A    between atoms: C_5  and  N_12
REMARK    3  A    between atoms: C_15  and  S_17
REMARK    4  A    between atoms: S_17  and  C_18
REMARK    5  A    between atoms: C_18  and  C_20
REMARK    6  A    between atoms: C_20  and  O_21
REMARK                            x       y       z     vdW  Elec       q    Type
REMARK                         _______ _______ _______ _____ _____    ______ ____
ROOT
ATOM      1  C   UNL     1      36.332 -20.479 -19.928  0.00  0.00    -0.022 C 
ATOM      2  C   UNL     1      34.945 -20.401 -20.137  0.00  0.00    -0.003 C 
ATOM      3  C   UNL     1      37.204 -19.639 -20.620  0.00  0.00    -0.003 C 
ATOM      4  C   UNL     1      34.437 -19.457 -21.060  0.00  0.00    +0.016 C 
ATOM      5  C   UNL     1      35.330 -18.620 -21.749  0.00  0.00    +0.068 C 
ATOM      6  C   UNL     1      36.705 -18.711 -21.529  0.00  0.00    +0.017 C 
ATOM      7  C   UNL     1      34.053 -21.238 -19.449  0.00  0.00    -0.000 C 
ATOM      8  C   UNL     1      33.050 -19.379 -21.270  0.00  0.00    +0.001 C 
ATOM      9  C   UNL     1      32.677 -21.147 -19.669  0.00  0.00    -0.000 C 
ATOM     10  C   UNL     1      32.177 -20.219 -20.578  0.00  0.00    +0.000 C 
ENDROOT
BRANCH   5  12
ATOM     11 BR   UNL     1      34.993 -19.471 -24.978  0.00  0.00    -0.006 Br
ATOM     12  N   UNL     1      34.893 -17.674 -22.667  0.00  0.00    -0.264 N 
ATOM     13  N   UNL     1      34.199 -15.801 -23.558  0.00  0.00    -0.121 NA
ATOM     14  N   UNL     1      34.289 -16.751 -24.556  0.00  0.00    -0.121 NA
ATOM     15  C   UNL     1      34.565 -16.373 -22.433  0.00  0.00    +0.198 A 
ATOM     16  C   UNL     1      34.708 -17.866 -24.001  0.00  0.00    +0.205 A 
BRANCH  15  17
ATOM     17  S   UNL     1      34.628 -15.619 -20.882  0.00  0.00    -0.063 S 
BRANCH  17  18
ATOM     18  C   UNL     1      32.867 -15.367 -20.461  0.00  0.00    +0.174 C 
BRANCH  18  20
ATOM     19  O   UNL     1      32.394 -13.006 -20.350  0.00  0.00    -0.249 OA
ATOM     20  C   UNL     1      32.409 -14.043 -21.001  0.00  0.00    +0.325 C 
BRANCH  20  21
ATOM     21  O   UNL     1      32.024 -14.112 -22.300  0.00  0.00    -0.480 OA
ATOM     22  H   UNL     1      31.405 -14.760 -22.572  0.00  0.00    +0.295 HD
ENDBRANCH  20  21
ENDBRANCH  18  20
ENDBRANCH  17  18
ENDBRANCH  15  17
ENDBRANCH   5  12
BRANCH   1  23
ATOM     23  C   UNL     1      36.933 -21.454 -18.964  0.00  0.00    +0.022 C 
ATOM     24  C   UNL     1      37.197 -21.029 -17.549  0.00  0.00    +0.005 C 
ATOM     25  C   UNL     1      36.095 -22.003 -17.847  0.00  0.00    +0.005 C 
ENDBRANCH   1  23
TORSDOF 6
ENDMDL
MODEL 4
REMARK VINA RESULT:      -8.7      4.529      9.137
REMARK  Name = 53465279
REMARK  6 active torsions:
REMARK  status: ('A' for Active; 'I' for Inactive)
REMARK    1  A    between atoms: C_1  and  C_23
REMARK    2  A    between atoms: C_5  and  N_12
REMARK    3  A    between atoms: C_15  and  S_17
REMARK    4  A    between atoms: S_17  and  C_18
REMARK    5  A    between atoms: C_18  and  C_20
REMARK    6  A    between atoms: C_20  and  O_21
REMARK                            x       y       z     vdW  Elec       q    Type
REMARK                         _______ _______ _______ _____ _____    ______ ____
ROOT
ATOM      1  C   UNL     1      33.577 -20.656 -19.969  0.00  0.00    -0.022 C 
ATOM      2  C   UNL     1      34.927 -20.347 -20.202  0.00  0.00    -0.003 C 
ATOM      3  C   UNL     1      32.563 -19.898 -20.553  0.00  0.00    -0.003 C 
ATOM      4  C   UNL     1      35.253 -19.254 -21.039  0.00  0.00    +0.016 C 
ATOM      5  C   UNL     1      34.218 -18.501 -21.619  0.00  0.00    +0.068 C 
ATOM      6  C   UNL     1      32.882 -18.822 -21.377  0.00  0.00    +0.017 C 
ATOM      7  C   UNL     1      35.961 -21.099 -19.622  0.00  0.00    -0.000 C 
ATOM      8  C   UNL     1      36.603 -18.944 -21.272  0.00  0.00    +0.001 C 
ATOM      9  C   UNL     1      37.298 -20.778 -19.864  0.00  0.00    -0.000 C 
ATOM     10  C   UNL     1      37.618 -19.702 -20.687  0.00  0.00    +0.000 C 
ENDROOT
BRANCH   5  12
ATOM     11 BR   UNL     1      34.629 -18.994 -24.913  0.00  0.00    -0.006 Br
ATOM     12  N   UNL     1      34.472 -17.418 -22.449  0.00  0.00    -0.264 N 
ATOM     13  N   UNL     1      34.835 -15.384 -23.169  0.00  0.00    -0.121 NA
ATOM     14  N   UNL     1      34.880 -16.242 -24.248  0.00  0.00    -0.121 NA
ATOM     15  C   UNL     1      34.590 -16.107 -22.099  0.00  0.00    +0.198 A 
ATOM     16  C   UNL     1      34.661 -17.456 -23.796  0.00  0.00    +0.205 A 
BRANCH  15  17
ATOM     17  S   UNL     1      34.432 -15.514 -20.485  0.00  0.00    -0.063 S 
BRANCH  17  18
ATOM     18  C   UNL     1      32.642 -15.178 -20.330  0.00  0.00    +0.174 C 
BRANCH  18  20
ATOM     19  O   UNL     1      32.313 -12.795 -20.467  0.00  0.00    -0.249 OA
ATOM     20  C   UNL     1      32.314 -13.887 -21.021  0.00  0.00    +0.325 C 
BRANCH  20  21
ATOM     21  O   UNL     1      32.032 -14.055 -22.338  0.00  0.00    -0.480 OA
ATOM     22  H   UNL     1      31.199 -14.394 -22.599  0.00  0.00    +0.295 HD
ENDBRANCH  20  21
ENDBRANCH  18  20
ENDBRANCH  17  18
ENDBRANCH  15  17
ENDBRANCH   5  12
BRANCH   1  23
ATOM     23  C   UNL     1      33.167 -21.799 -19.094  0.00  0.00    +0.022 C 
ATOM     24  C   UNL     1      33.694 -23.176 -19.380  0.00  0.00    +0.005 C 
ATOM     25  C   UNL     1      34.173 -22.424 -18.173  0.00  0.00    +0.005 C 
ENDBRANCH   1  23
TORSDOF 6
ENDMDL
MODEL 5
REMARK VINA RESULT:      -8.2     12.733     15.148
REMARK  Name = 53465279
REMARK  6 active torsions:
REMARK  status: ('A' for Active; 'I' for Inactive)
REMARK    1  A    between atoms: C_1  and  C_23
REMARK    2  A    between atoms: C_5  and  N_12
REMARK    3  A    between atoms: C_15  and  S_17
REMARK    4  A    between atoms: S_17  and  C_18
REMARK    5  A    between atoms: C_18  and  C_20
REMARK    6  A    between atoms: C_20  and  O_21
REMARK                            x       y       z     vdW  Elec       q    Type
REMARK                         _______ _______ _______ _____ _____    ______ ____
ROOT
ATOM      1  C   UNL     1      36.082 -22.310 -17.097  0.00  0.00    -0.022 C 
ATOM      2  C   UNL     1      35.084 -23.001 -16.390  0.00  0.00    -0.003 C 
ATOM      3  C   UNL     1      37.428 -22.473 -16.769  0.00  0.00    -0.003 C 
ATOM      4  C   UNL     1      35.456 -23.868 -15.336  0.00  0.00    +0.016 C 
ATOM      5  C   UNL     1      36.816 -24.019 -15.019  0.00  0.00    +0.068 C 
ATOM      6  C   UNL     1      37.795 -23.326 -15.731  0.00  0.00    +0.017 C 
ATOM      7  C   UNL     1      33.725 -22.849 -16.707  0.00  0.00    -0.000 C 
ATOM      8  C   UNL     1      34.458 -24.558 -14.629  0.00  0.00    +0.001 C 
ATOM      9  C   UNL     1      32.745 -23.543 -15.994  0.00  0.00    -0.000 C 
ATOM     10  C   UNL     1      33.112 -24.395 -14.957  0.00  0.00    +0.000 C 
ENDROOT
BRANCH   5  12
ATOM     11 BR   UNL     1      37.148 -27.309 -15.592  0.00  0.00    -0.006 Br
ATOM     12  N   UNL     1      37.245 -24.855 -13.997  0.00  0.00    -0.264 N 
ATOM     13  N   UNL     1      37.925 -25.586 -12.050  0.00  0.00    -0.121 NA
ATOM     14  N   UNL     1      37.837 -26.660 -12.912  0.00  0.00    -0.121 NA
ATOM     15  C   UNL     1      37.566 -24.513 -12.718  0.00  0.00    +0.198 A 
ATOM     16  C   UNL     1      37.427 -26.201 -14.073  0.00  0.00    +0.205 A 
BRANCH  15  17
ATOM     17  S   UNL     1      37.504 -22.903 -12.098  0.00  0.00    -0.063 S 
BRANCH  17  18
ATOM     18  C   UNL     1      36.561 -23.083 -10.542  0.00  0.00    +0.174 C 
BRANCH  18  20
ATOM     19  O   UNL     1      35.248 -25.069 -10.164  0.00  0.00    -0.249 OA
ATOM     20  C   UNL     1      35.403 -24.013 -10.765  0.00  0.00    +0.325 C 
BRANCH  20  21
ATOM     21  O   UNL     1      34.533 -23.552 -11.698  0.00  0.00    -0.480 OA
ATOM     22  H   UNL     1      33.611 -23.656 -11.572  0.00  0.00    +0.295 HD
ENDBRANCH  20  21
ENDBRANCH  18  20
ENDBRANCH  17  18
ENDBRANCH  15  17
ENDBRANCH   5  12
BRANCH   1  23
ATOM     23  C   UNL     1      35.755 -21.379 -18.222  0.00  0.00    +0.022 C 
ATOM     24  C   UNL     1      36.625 -21.364 -19.446  0.00  0.00    +0.005 C 
ATOM     25  C   UNL     1      35.239 -21.936 -19.516  0.00  0.00    +0.005 C 
ENDBRANCH   1  23
TORSDOF 6
ENDMDL
MODEL 6
REMARK VINA RESULT:      -8.1      3.469      6.460
REMARK  Name = 53465279
REMARK  6 active torsions:
REMARK  status: ('A' for Active; 'I' for Inactive)
REMARK    1  A    between atoms: C_1  and  C_23
REMARK    2  A    between atoms: C_5  and  N_12
REMARK    3  A    between atoms: C_15  and  S_17
REMARK    4  A    between atoms: S_17  and  C_18
REMARK    5  A    between atoms: C_18  and  C_20
REMARK    6  A    between atoms: C_20  and  O_21
REMARK                            x       y       z     vdW  Elec       q    Type
REMARK                         _______ _______ _______ _____ _____    ______ ____
ROOT
ATOM      1  C   UNL     1      34.599 -15.597 -22.967  0.00  0.00    -0.022 C 
ATOM      2  C   UNL     1      33.946 -15.215 -24.150  0.00  0.00    -0.003 C 
ATOM      3  C   UNL     1      34.733 -14.701 -21.906  0.00  0.00    -0.003 C 
ATOM      4  C   UNL     1      33.420 -13.906 -24.258  0.00  0.00    +0.016 C 
ATOM      5  C   UNL     1      33.563 -13.017 -23.180  0.00  0.00    +0.068 C 
ATOM      6  C   UNL     1      34.215 -13.413 -22.012  0.00  0.00    +0.017 C 
ATOM      7  C   UNL     1      33.803 -16.104 -25.227  0.00  0.00    -0.000 C 
ATOM      8  C   UNL     1      32.766 -13.524 -25.441  0.00  0.00    +0.001 C 
ATOM      9  C   UNL     1      33.150 -15.708 -26.396  0.00  0.00    -0.000 C 
ATOM     10  C   UNL     1      32.633 -14.420 -26.502  0.00  0.00    +0.000 C 
ENDROOT
BRANCH   5  12
ATOM     11 BR   UNL     1      34.979 -10.769 -25.231  0.00  0.00    -0.006 Br
ATOM     12  N   UNL     1      33.069 -11.721 -23.225  0.00  0.00    -0.264 N 
ATOM     13  N   UNL     1      31.870  -9.933 -22.834  0.00  0.00    -0.121 NA
ATOM     14  N   UNL     1      32.824  -9.618 -23.780  0.00  0.00    -0.121 NA
ATOM     15  C   UNL     1      32.032 -11.197 -22.513  0.00  0.00    +0.198 A 
ATOM     16  C   UNL     1      33.533 -10.702 -24.000  0.00  0.00    +0.205 A 
BRANCH  15  17
ATOM     17  S   UNL     1      31.091 -12.086 -21.372  0.00  0.00    -0.063 S 
BRANCH  17  18
ATOM     18  C   UNL     1      31.956 -11.793 -19.788  0.00  0.00    +0.174 C 
BRANCH  18  20
ATOM     19  O   UNL     1      30.435 -10.088 -19.020  0.00  0.00    -0.249 OA
ATOM     20  C   UNL     1      31.584 -10.438 -19.259  0.00  0.00    +0.325 C 
BRANCH  20  21
ATOM     21  O   UNL     1      32.663  -9.640 -19.059  0.00  0.00    -0.480 OA
ATOM     22  H   UNL     1      33.311  -9.551 -19.728  0.00  0.00    +0.295 HD
ENDBRANCH  20  21
ENDBRANCH  18  20
ENDBRANCH  17  18
ENDBRANCH  15  17
ENDBRANCH   5  12
BRANCH   1  23
ATOM     23  C   UNL     1      35.178 -16.966 -22.788  0.00  0.00    +0.022 C 
ATOM     24  C   UNL     1      35.381 -17.508 -21.403  0.00  0.00    +0.005 C 
ATOM     25  C   UNL     1      34.305 -18.077 -22.282  0.00  0.00    +0.005 C 
ENDBRANCH   1  23
TORSDOF 6
ENDMDL
MODEL 7
REMARK VINA RESULT:      -8.0     12.965     15.391
REMARK  Name = 53465279
REMARK  6 active torsions:
REMARK  status: ('A' for Active; 'I' for Inactive)
REMARK    1  A    between atoms: C_1  and  C_23
REMARK    2  A    between atoms: C_5  and  N_12
REMARK    3  A    between atoms: C_15  and  S_17
REMARK    4  A    between atoms: S_17  and  C_18
REMARK    5  A    between atoms: C_18  and  C_20
REMARK    6  A    between atoms: C_20  and  O_21
REMARK                            x       y       z     vdW  Elec       q    Type
REMARK                         _______ _______ _______ _____ _____    ______ ____
ROOT
ATOM      1  C   UNL     1      35.962 -22.421 -16.715  0.00  0.00    -0.022 C 
ATOM      2  C   UNL     1      35.020 -23.089 -15.916  0.00  0.00    -0.003 C 
ATOM      3  C   UNL     1      37.325 -22.503 -16.427  0.00  0.00    -0.003 C 
ATOM      4  C   UNL     1      35.465 -23.852 -14.811  0.00  0.00    +0.016 C 
ATOM      5  C   UNL     1      36.841 -23.923 -14.535  0.00  0.00    +0.068 C 
ATOM      6  C   UNL     1      37.763 -23.253 -15.339  0.00  0.00    +0.017 C 
ATOM      7  C   UNL     1      33.645 -23.018 -16.192  0.00  0.00    -0.000 C 
ATOM      8  C   UNL     1      34.522 -24.520 -14.012  0.00  0.00    +0.001 C 
ATOM      9  C   UNL     1      32.721 -23.688 -15.389  0.00  0.00    -0.000 C 
ATOM     10  C   UNL     1      33.160 -24.437 -14.301  0.00  0.00    +0.000 C 
ENDROOT
BRANCH   5  12
ATOM     11 BR   UNL     1      36.696 -22.643 -11.436  0.00  0.00    -0.006 Br
ATOM     12  N   UNL     1      37.339 -24.654 -13.466  0.00  0.00    -0.264 N 
ATOM     13  N   UNL     1      38.261 -26.243 -12.277  0.00  0.00    -0.121 NA
ATOM     14  N   UNL     1      37.903 -25.215 -11.428  0.00  0.00    -0.121 NA
ATOM     15  C   UNL     1      37.916 -25.888 -13.494  0.00  0.00    +0.198 A 
ATOM     16  C   UNL     1      37.353 -24.273 -12.159  0.00  0.00    +0.205 A 
BRANCH  15  17
ATOM     17  S   UNL     1      38.142 -26.822 -14.928  0.00  0.00    -0.063 S 
BRANCH  17  18
ATOM     18  C   UNL     1      39.722 -26.194 -15.599  0.00  0.00    +0.174 C 
BRANCH  18  20
ATOM     19  O   UNL     1      41.357 -26.898 -13.974  0.00  0.00    -0.249 OA
ATOM     20  C   UNL     1      40.698 -25.996 -14.475  0.00  0.00    +0.325 C 
BRANCH  20  21
ATOM     21  O   UNL     1      40.784 -24.701 -14.079  0.00  0.00    -0.480 OA
ATOM     22  H   UNL     1      41.614 -24.339 -13.837  0.00  0.00    +0.295 HD
ENDBRANCH  20  21
ENDBRANCH  18  20
ENDBRANCH  17  18
ENDBRANCH  15  17
ENDBRANCH   5  12
BRANCH   1  23
ATOM     23  C   UNL     1      35.557 -21.599 -17.898  0.00  0.00    +0.022 C 
ATOM     24  C   UNL     1      36.484 -21.488 -19.074  0.00  0.00    +0.005 C 
ATOM     25  C   UNL     1      35.215 -22.281 -19.190  0.00  0.00    +0.005 C 
ENDBRANCH   1  23
TORSDOF 6
ENDMDL
MODEL 8
REMARK VINA RESULT:      -8.0     11.603     14.139
REMARK  Name = 53465279
REMARK  6 active torsions:
REMARK  status: ('A' for Active; 'I' for Inactive)
REMARK    1  A    between atoms: C_1  and  C_23
REMARK    2  A    between atoms: C_5  and  N_12
REMARK    3  A    between atoms: C_15  and  S_17
REMARK    4  A    between atoms: S_17  and  C_18
REMARK    5  A    between atoms: C_18  and  C_20
REMARK    6  A    between atoms: C_20  and  O_21
REMARK                            x       y       z     vdW  Elec       q    Type
REMARK                         _______ _______ _______ _____ _____    ______ ____
ROOT
ATOM      1  C   UNL     1      34.188 -22.561 -18.351  0.00  0.00    -0.022 C 
ATOM      2  C   UNL     1      35.353 -22.231 -17.640  0.00  0.00    -0.003 C 
ATOM      3  C   UNL     1      33.207 -23.369 -17.774  0.00  0.00    -0.003 C 
ATOM      4  C   UNL     1      35.526 -22.726 -16.326  0.00  0.00    +0.016 C 
ATOM      5  C   UNL     1      34.528 -23.538 -15.761  0.00  0.00    +0.068 C 
ATOM      6  C   UNL     1      33.377 -23.856 -16.481  0.00  0.00    +0.017 C 
ATOM      7  C   UNL     1      36.350 -21.419 -18.204  0.00  0.00    -0.000 C 
ATOM      8  C   UNL     1      36.691 -22.395 -15.614  0.00  0.00    +0.001 C 
ATOM      9  C   UNL     1      37.502 -21.100 -17.484  0.00  0.00    -0.000 C 
ATOM     10  C   UNL     1      37.672 -21.588 -16.191  0.00  0.00    +0.000 C 
ENDROOT
BRANCH   5  12
ATOM     11 BR   UNL     1      32.110 -22.933 -13.513  0.00  0.00    -0.006 Br
ATOM     12  N   UNL     1      34.639 -24.053 -14.477  0.00  0.00    -0.264 N 
ATOM     13  N   UNL     1      35.391 -25.102 -12.710  0.00  0.00    -0.121 NA
ATOM     14  N   UNL     1      34.181 -24.520 -12.389  0.00  0.00    -0.121 NA
ATOM     15  C   UNL     1      35.649 -24.811 -13.965  0.00  0.00    +0.198 A 
ATOM     16  C   UNL     1      33.748 -23.896 -13.460  0.00  0.00    +0.205 A 
BRANCH  15  17
ATOM     17  S   UNL     1      37.043 -25.302 -14.858  0.00  0.00    -0.063 S 
BRANCH  17  18
ATOM     18  C   UNL     1      38.421 -24.984 -13.700  0.00  0.00    +0.174 C 
BRANCH  18  20
ATOM     19  O   UNL     1      40.758 -24.903 -14.288  0.00  0.00    -0.249 OA
ATOM     20  C   UNL     1      39.698 -25.516 -14.286  0.00  0.00    +0.325 C 
BRANCH  20  21
ATOM     21  O   UNL     1      39.557 -26.762 -14.804  0.00  0.00    -0.480 OA
ATOM     22  H   UNL     1      40.115 -27.047 -15.500  0.00  0.00    +0.295 HD
ENDBRANCH  20  21
ENDBRANCH  18  20
ENDBRANCH  17  18
ENDBRANCH  15  17
ENDBRANCH   5  12
BRANCH   1  23
ATOM     23  C   UNL     1      33.944 -22.070 -19.744  0.00  0.00    +0.022 C 
ATOM     24  C   UNL     1      32.948 -20.971 -19.976  0.00  0.00    +0.005 C 
ATOM     25  C   UNL     1      34.415 -20.701 -20.138  0.00  0.00    +0.005 C 
ENDBRANCH   1  23
TORSDOF 6
ENDMDL
MODEL 9
REMARK VINA RESULT:      -8.0      6.451      8.315
REMARK  Name = 53465279
REMARK  6 active torsions:
REMARK  status: ('A' for Active; 'I' for Inactive)
REMARK    1  A    between atoms: C_1  and  C_23
REMARK    2  A    between atoms: C_5  and  N_12
REMARK    3  A    between atoms: C_15  and  S_17
REMARK    4  A    between atoms: S_17  and  C_18
REMARK    5  A    between atoms: C_18  and  C_20
REMARK    6  A    between atoms: C_20  and  O_21
REMARK                            x       y       z     vdW  Elec       q    Type
REMARK                         _______ _______ _______ _____ _____    ______ ____
ROOT
ATOM      1  C   UNL     1      34.405  -9.471 -24.257  0.00  0.00    -0.022 C 
ATOM      2  C   UNL     1      33.301  -9.925 -23.517  0.00  0.00    -0.003 C 
ATOM      3  C   UNL     1      34.652  -8.105 -24.399  0.00  0.00    -0.003 C 
ATOM      4  C   UNL     1      32.435  -8.983 -22.914  0.00  0.00    +0.016 C 
ATOM      5  C   UNL     1      32.699  -7.611 -23.068  0.00  0.00    +0.068 C 
ATOM      6  C   UNL     1      33.800  -7.177 -23.806  0.00  0.00    +0.017 C 
ATOM      7  C   UNL     1      33.037 -11.296 -23.363  0.00  0.00    -0.000 C 
ATOM      8  C   UNL     1      31.331  -9.437 -22.174  0.00  0.00    +0.001 C 
ATOM      9  C   UNL     1      31.936 -11.731 -22.624  0.00  0.00    -0.000 C 
ATOM     10  C   UNL     1      31.084 -10.803 -22.031  0.00  0.00    +0.000 C 
ENDROOT
BRANCH   5  12
ATOM     11 BR   UNL     1      32.601  -7.270 -19.731  0.00  0.00    -0.006 Br
ATOM     12  N   UNL     1      31.888  -6.638 -22.501  0.00  0.00    -0.264 N 
ATOM     13  N   UNL     1      30.469  -4.992 -22.256  0.00  0.00    -0.121 NA
ATOM     14  N   UNL     1      30.892  -5.391 -21.005  0.00  0.00    -0.121 NA
ATOM     15  C   UNL     1      31.076  -5.751 -23.140  0.00  0.00    +0.198 A 
ATOM     16  C   UNL     1      31.742  -6.378 -21.173  0.00  0.00    +0.205 A 
BRANCH  15  17
ATOM     17  S   UNL     1      30.896  -5.660 -24.854  0.00  0.00    -0.063 S 
BRANCH  17  18
ATOM     18  C   UNL     1      32.073  -4.347 -25.335  0.00  0.00    +0.174 C 
BRANCH  18  20
ATOM     19  O   UNL     1      32.203  -2.016 -24.734  0.00  0.00    -0.249 OA
ATOM     20  C   UNL     1      31.517  -3.009 -24.943  0.00  0.00    +0.325 C 
BRANCH  20  21
ATOM     21  O   UNL     1      30.163  -3.010 -24.855  0.00  0.00    -0.480 OA
ATOM     22  H   UNL     1      29.691  -3.817 -24.900  0.00  0.00    +0.295 HD
ENDBRANCH  20  21
ENDBRANCH  18  20
ENDBRANCH  17  18
ENDBRANCH  15  17
ENDBRANCH   5  12
BRANCH   1  23
ATOM     23  C   UNL     1      35.358 -10.416 -24.919  0.00  0.00    +0.022 C 
ATOM     24  C   UNL     1      34.912 -11.191 -26.125  0.00  0.00    +0.005 C 
ATOM     25  C   UNL     1      35.910 -10.080 -26.273  0.00  0.00    +0.005 C 
ENDBRANCH   1  23
TORSDOF 6
ENDMDL
