MODEL 1
REMARK VINA RESULT:      -8.9      0.000      0.000
REMARK  Name = 210332
REMARK  3 active torsions:
REMARK  status: ('A' for Active; 'I' for Inactive)
REMARK    1  A    between atoms: N_1  and  C_16
REMARK    2  A    between atoms: N_4  and  C_23
REMARK    3  A    between atoms: C_22  and  N_29
REMARK                            x       y       z     vdW  Elec       q    Type
REMARK                         _______ _______ _______ _____ _____    ______ ____
ROOT
ATOM      1  N   UNL     1      34.738 -23.709 -14.168  0.00  0.00    -0.311 N 
ATOM      2  N   UNL     1      33.324 -23.153 -16.024  0.00  0.00    -0.316 NA
ATOM      3  N   UNL     1      32.190 -25.056 -13.089  0.00  0.00    -0.268 NA
ATOM      4  N   UNL     1      31.964 -22.599 -17.848  0.00  0.00    -0.238 N 
ATOM      5  N   UNL     1      30.979 -23.820 -16.112  0.00  0.00    -0.316 NA
ATOM      6  N   UNL     1      30.240 -25.076 -14.166  0.00  0.00    -0.296 N 
ATOM      7  C   UNL     1      33.512 -23.742 -14.808  0.00  0.00    +0.193 C 
ATOM      8  C   UNL     1      32.404 -24.374 -14.252  0.00  0.00    +0.192 C 
ATOM      9  C   UNL     1      31.177 -24.399 -14.904  0.00  0.00    +0.194 C 
ATOM     10  C   UNL     1      32.096 -23.228 -16.588  0.00  0.00    +0.205 C 
ATOM     11  C   UNL     1      30.880 -25.457 -13.082  0.00  0.00    +0.164 C 
ATOM     12  H   UNL     1      34.817 -24.151 -13.292  0.00  0.00    +0.149 HD
ATOM     13  H   UNL     1      32.855 -25.229 -12.383  0.00  0.00    +0.126 HD
ATOM     14  H   UNL     1      31.061 -22.668 -18.233  0.00  0.00    +0.166 HD
ATOM     15  H   UNL     1      29.297 -25.239 -14.397  0.00  0.00    +0.150 HD
ENDROOT
BRANCH   1  16
ATOM     16  C   UNL     1      35.912 -23.061 -14.719  0.00  0.00    +0.071 C 
ATOM     17  C   UNL     1      36.834 -22.594 -13.588  0.00  0.00    +0.020 C 
ATOM     18  C   UNL     1      36.636 -24.010 -15.680  0.00  0.00    +0.020 C 
ATOM     19  C   UNL     1      37.529 -23.754 -12.875  0.00  0.00    +0.002 C 
ATOM     20  C   UNL     1      37.331 -25.165 -14.958  0.00  0.00    +0.002 C 
ATOM     21  C   UNL     1      38.259 -24.664 -13.857  0.00  0.00    +0.000 C 
ENDBRANCH   1  16
BRANCH   4  23
ATOM     22  C   UNL     1      34.676 -20.495 -20.268  0.00  0.00    +0.048 C 
ATOM     23  C   UNL     1      32.873 -21.895 -18.659  0.00  0.00    +0.059 C 
ATOM     24  C   UNL     1      35.127 -21.541 -19.463  0.00  0.00    +0.016 C 
ATOM     25  C   UNL     1      33.325 -20.148 -20.270  0.00  0.00    +0.016 C 
ATOM     26  C   UNL     1      34.226 -22.241 -18.659  0.00  0.00    +0.017 C 
ATOM     27  C   UNL     1      32.425 -20.847 -19.466  0.00  0.00    +0.017 C 
BRANCH  22  29
ATOM     28  O   UNL     1      37.294 -18.145 -22.571  0.00  0.00    -0.350 OA
ATOM     29  N   UNL     1      35.580 -19.791 -21.071  0.00  0.00    -0.303 N 
ATOM     30  C   UNL     1      35.039 -18.917 -22.121  0.00  0.00    +0.123 C 
ATOM     31  C   UNL     1      36.878 -19.381 -20.525  0.00  0.00    +0.123 C 
ATOM     32  C   UNL     1      36.109 -18.661 -23.177  0.00  0.00    +0.164 C 
ATOM     33  C   UNL     1      37.850 -19.098 -21.664  0.00  0.00    +0.164 C 
ENDBRANCH  22  29
ENDBRANCH   4  23
TORSDOF 3
ENDMDL
MODEL 2
REMARK VINA RESULT:      -8.6      1.890      4.489
REMARK  Name = 210332
REMARK  3 active torsions:
REMARK  status: ('A' for Active; 'I' for Inactive)
REMARK    1  A    between atoms: N_1  and  C_16
REMARK    2  A    between atoms: N_4  and  C_23
REMARK    3  A    between atoms: C_22  and  N_29
REMARK                            x       y       z     vdW  Elec       q    Type
REMARK                         _______ _______ _______ _____ _____    ______ ____
ROOT
ATOM      1  N   UNL     1      33.036 -23.377 -14.094  0.00  0.00    -0.311 N 
ATOM      2  N   UNL     1      35.125 -23.031 -15.218  0.00  0.00    -0.316 NA
ATOM      3  N   UNL     1      34.796 -24.817 -12.020  0.00  0.00    -0.268 NA
ATOM      4  N   UNL     1      37.153 -22.680 -16.335  0.00  0.00    -0.238 N 
ATOM      5  N   UNL     1      37.236 -23.851 -14.311  0.00  0.00    -0.316 NA
ATOM      6  N   UNL     1      37.007 -25.031 -12.198  0.00  0.00    -0.296 N 
ATOM      7  C   UNL     1      34.408 -23.529 -14.171  0.00  0.00    +0.193 C 
ATOM      8  C   UNL     1      35.135 -24.195 -13.188  0.00  0.00    +0.192 C 
ATOM      9  C   UNL     1      36.513 -24.342 -13.277  0.00  0.00    +0.194 C 
ATOM     10  C   UNL     1      36.466 -23.219 -15.223  0.00  0.00    +0.205 C 
ATOM     11  C   UNL     1      35.950 -25.301 -11.462  0.00  0.00    +0.164 C 
ATOM     12  H   UNL     1      32.569 -23.757 -13.314  0.00  0.00    +0.149 HD
ATOM     13  H   UNL     1      33.889 -24.901 -11.646  0.00  0.00    +0.126 HD
ATOM     14  H   UNL     1      38.125 -22.833 -16.313  0.00  0.00    +0.166 HD
ATOM     15  H   UNL     1      37.945 -25.270 -12.015  0.00  0.00    +0.150 HD
ENDROOT
BRANCH   1  16
ATOM     16  C   UNL     1      32.248 -22.688 -15.097  0.00  0.00    +0.071 C 
ATOM     17  C   UNL     1      31.985 -23.616 -16.287  0.00  0.00    +0.020 C 
ATOM     18  C   UNL     1      30.942 -22.176 -14.483  0.00  0.00    +0.020 C 
ATOM     19  C   UNL     1      30.999 -24.737 -15.956  0.00  0.00    +0.002 C 
ATOM     20  C   UNL     1      29.961 -23.302 -14.158  0.00  0.00    +0.002 C 
ATOM     21  C   UNL     1      29.701 -24.191 -15.370  0.00  0.00    +0.000 C 
ENDBRANCH   1  16
BRANCH   4  23
ATOM     22  C   UNL     1      35.857 -20.552 -19.716  0.00  0.00    +0.048 C 
ATOM     23  C   UNL     1      36.718 -21.967 -17.467  0.00  0.00    +0.059 C 
ATOM     24  C   UNL     1      35.120 -21.643 -19.254  0.00  0.00    +0.016 C 
ATOM     25  C   UNL     1      37.024 -20.168 -19.056  0.00  0.00    +0.016 C 
ATOM     26  C   UNL     1      35.550 -22.350 -18.131  0.00  0.00    +0.017 C 
ATOM     27  C   UNL     1      37.453 -20.874 -17.932  0.00  0.00    +0.017 C 
BRANCH  22  29
ATOM     28  O   UNL     1      34.448 -18.248 -22.939  0.00  0.00    -0.350 OA
ATOM     29  N   UNL     1      35.428 -19.846 -20.846  0.00  0.00    -0.303 N 
ATOM     30  C   UNL     1      33.985 -19.768 -21.107  0.00  0.00    +0.123 C 
ATOM     31  C   UNL     1      36.215 -18.713 -21.342  0.00  0.00    +0.123 C 
ATOM     32  C   UNL     1      33.746 -19.436 -22.575  0.00  0.00    +0.164 C 
ATOM     33  C   UNL     1      35.857 -18.435 -22.798  0.00  0.00    +0.164 C 
ENDBRANCH  22  29
ENDBRANCH   4  23
TORSDOF 3
ENDMDL
MODEL 3
REMARK VINA RESULT:      -7.3      4.570     10.544
REMARK  Name = 210332
REMARK  3 active torsions:
REMARK  status: ('A' for Active; 'I' for Inactive)
REMARK    1  A    between atoms: N_1  and  C_16
REMARK    2  A    between atoms: N_4  and  C_23
REMARK    3  A    between atoms: C_22  and  N_29
REMARK                            x       y       z     vdW  Elec       q    Type
REMARK                         _______ _______ _______ _____ _____    ______ ____
ROOT
ATOM      1  N   UNL     1      34.135 -13.743 -22.601  0.00  0.00    -0.311 N 
ATOM      2  N   UNL     1      34.250 -15.988 -23.437  0.00  0.00    -0.316 NA
ATOM      3  N   UNL     1      33.534 -13.058 -25.541  0.00  0.00    -0.268 NA
ATOM      4  N   UNL     1      34.367 -18.188 -24.229  0.00  0.00    -0.238 N 
ATOM      5  N   UNL     1      33.893 -16.513 -25.792  0.00  0.00    -0.316 NA
ATOM      6  N   UNL     1      33.422 -14.569 -27.174  0.00  0.00    -0.296 N 
ATOM      7  C   UNL     1      34.058 -14.653 -23.640  0.00  0.00    +0.193 C 
ATOM      8  C   UNL     1      33.780 -14.262 -24.947  0.00  0.00    +0.192 C 
ATOM      9  C   UNL     1      33.705 -15.185 -25.982  0.00  0.00    +0.194 C 
ATOM     10  C   UNL     1      34.157 -16.817 -24.504  0.00  0.00    +0.205 C 
ATOM     11  C   UNL     1      33.325 -13.291 -26.874  0.00  0.00    +0.164 C 
ATOM     12  H   UNL     1      33.987 -12.791 -22.805  0.00  0.00    +0.149 HD
ATOM     13  H   UNL     1      33.510 -12.180 -25.093  0.00  0.00    +0.126 HD
ATOM     14  H   UNL     1      34.295 -18.767 -25.022  0.00  0.00    +0.166 HD
ATOM     15  H   UNL     1      33.315 -14.990 -28.058  0.00  0.00    +0.150 HD
ENDROOT
BRANCH   1  16
ATOM     16  C   UNL     1      34.421 -14.116 -21.230  0.00  0.00    +0.071 C 
ATOM     17  C   UNL     1      33.487 -13.365 -20.276  0.00  0.00    +0.020 C 
ATOM     18  C   UNL     1      34.299 -15.633 -21.059  0.00  0.00    +0.020 C 
ATOM     19  C   UNL     1      32.042 -13.862 -20.349  0.00  0.00    +0.002 C 
ATOM     20  C   UNL     1      32.852 -16.121 -21.130  0.00  0.00    +0.002 C 
ATOM     21  C   UNL     1      31.955 -15.371 -20.150  0.00  0.00    +0.000 C 
ENDBRANCH   1  16
BRANCH   4  23
ATOM     22  C   UNL     1      35.233 -20.277 -20.690  0.00  0.00    +0.048 C 
ATOM     23  C   UNL     1      34.657 -18.887 -23.044  0.00  0.00    +0.059 C 
ATOM     24  C   UNL     1      36.264 -19.681 -21.418  0.00  0.00    +0.016 C 
ATOM     25  C   UNL     1      33.916 -20.180 -21.138  0.00  0.00    +0.016 C 
ATOM     26  C   UNL     1      35.976 -18.986 -22.593  0.00  0.00    +0.017 C 
ATOM     27  C   UNL     1      33.628 -19.485 -22.313  0.00  0.00    +0.017 C 
BRANCH  22  29
ATOM     28  O   UNL     1      36.172 -22.598 -17.312  0.00  0.00    -0.350 OA
ATOM     29  N   UNL     1      35.523 -20.977 -19.514  0.00  0.00    -0.303 N 
ATOM     30  C   UNL     1      34.692 -22.142 -19.178  0.00  0.00    +0.123 C 
ATOM     31  C   UNL     1      36.900 -21.026 -19.012  0.00  0.00    +0.123 C 
ATOM     32  C   UNL     1      34.804 -22.440 -17.688  0.00  0.00    +0.164 C 
ATOM     33  C   UNL     1      36.895 -21.386 -17.530  0.00  0.00    +0.164 C 
ENDBRANCH  22  29
ENDBRANCH   4  23
TORSDOF 3
ENDMDL
MODEL 4
REMARK VINA RESULT:      -7.2      8.386     13.972
REMARK  Name = 210332
REMARK  3 active torsions:
REMARK  status: ('A' for Active; 'I' for Inactive)
REMARK    1  A    between atoms: N_1  and  C_16
REMARK    2  A    between atoms: N_4  and  C_23
REMARK    3  A    between atoms: C_22  and  N_29
REMARK                            x       y       z     vdW  Elec       q    Type
REMARK                         _______ _______ _______ _____ _____    ______ ____
ROOT
ATOM      1  N   UNL     1      34.412  -9.394 -24.505  0.00  0.00    -0.311 N 
ATOM      2  N   UNL     1      32.839 -10.522 -23.090  0.00  0.00    -0.316 NA
ATOM      3  N   UNL     1      32.453  -7.039 -24.205  0.00  0.00    -0.268 NA
ATOM      4  N   UNL     1      31.318 -11.645 -21.708  0.00  0.00    -0.238 N 
ATOM      5  N   UNL     1      30.822  -9.427 -22.263  0.00  0.00    -0.316 NA
ATOM      6  N   UNL     1      30.576  -7.125 -23.007  0.00  0.00    -0.296 N 
ATOM      7  C   UNL     1      33.240  -9.411 -23.771  0.00  0.00    +0.193 C 
ATOM      8  C   UNL     1      32.405  -8.301 -23.684  0.00  0.00    +0.192 C 
ATOM      9  C   UNL     1      31.230  -8.330 -22.944  0.00  0.00    +0.194 C 
ATOM     10  C   UNL     1      31.680 -10.462 -22.392  0.00  0.00    +0.205 C 
ATOM     11  C   UNL     1      31.337  -6.372 -23.772  0.00  0.00    +0.164 C 
ATOM     12  H   UNL     1      34.653  -8.564 -24.977  0.00  0.00    +0.149 HD
ATOM     13  H   UNL     1      33.160  -6.675 -24.786  0.00  0.00    +0.126 HD
ATOM     14  H   UNL     1      30.471 -11.573 -21.211  0.00  0.00    +0.166 HD
ATOM     15  H   UNL     1      29.726  -6.879 -22.576  0.00  0.00    +0.150 HD
ENDROOT
BRANCH   1  16
ATOM     16  C   UNL     1      35.304 -10.531 -24.615  0.00  0.00    +0.071 C 
ATOM     17  C   UNL     1      34.495 -11.819 -24.794  0.00  0.00    +0.020 C 
ATOM     18  C   UNL     1      36.288 -10.319 -25.770  0.00  0.00    +0.020 C 
ATOM     19  C   UNL     1      33.834 -11.916 -26.170  0.00  0.00    +0.002 C 
ATOM     20  C   UNL     1      35.620 -10.421 -27.141  0.00  0.00    +0.002 C 
ATOM     21  C   UNL     1      34.845 -11.725 -27.295  0.00  0.00    +0.000 C 
ENDBRANCH   1  16
BRANCH   4  23
ATOM     22  C   UNL     1      33.152 -15.408 -21.375  0.00  0.00    +0.048 C 
ATOM     23  C   UNL     1      31.933 -12.905 -21.597  0.00  0.00    +0.059 C 
ATOM     24  C   UNL     1      32.902 -14.863 -22.635  0.00  0.00    +0.016 C 
ATOM     25  C   UNL     1      32.793 -14.704 -20.227  0.00  0.00    +0.016 C 
ATOM     26  C   UNL     1      32.293 -13.613 -22.746  0.00  0.00    +0.017 C 
ATOM     27  C   UNL     1      32.185 -13.454 -20.337  0.00  0.00    +0.017 C 
BRANCH  22  29
ATOM     28  O   UNL     1      35.009 -19.133 -20.773  0.00  0.00    -0.350 OA
ATOM     29  N   UNL     1      33.758 -16.664 -21.265  0.00  0.00    -0.303 N 
ATOM     30  C   UNL     1      35.182 -16.717 -20.905  0.00  0.00    +0.123 C 
ATOM     31  C   UNL     1      32.965 -17.825 -20.848  0.00  0.00    +0.123 C 
ATOM     32  C   UNL     1      35.769 -18.059 -21.327  0.00  0.00    +0.164 C 
ATOM     33  C   UNL     1      33.670 -19.109 -21.270  0.00  0.00    +0.164 C 
ENDBRANCH  22  29
ENDBRANCH   4  23
TORSDOF 3
ENDMDL
MODEL 5
REMARK VINA RESULT:      -7.1      7.207     12.843
REMARK  Name = 210332
REMARK  3 active torsions:
REMARK  status: ('A' for Active; 'I' for Inactive)
REMARK    1  A    between atoms: N_1  and  C_16
REMARK    2  A    between atoms: N_4  and  C_23
REMARK    3  A    between atoms: C_22  and  N_29
REMARK                            x       y       z     vdW  Elec       q    Type
REMARK                         _______ _______ _______ _____ _____    ______ ____
ROOT
ATOM      1  N   UNL     1      33.711 -11.063 -24.950  0.00  0.00    -0.311 N 
ATOM      2  N   UNL     1      32.947 -11.920 -22.845  0.00  0.00    -0.316 NA
ATOM      3  N   UNL     1      32.169  -8.545 -24.082  0.00  0.00    -0.268 NA
ATOM      4  N   UNL     1      32.214 -12.778 -20.793  0.00  0.00    -0.238 N 
ATOM      5  N   UNL     1      31.569 -10.594 -21.330  0.00  0.00    -0.316 NA
ATOM      6  N   UNL     1      31.060  -8.366 -22.158  0.00  0.00    -0.296 N 
ATOM      7  C   UNL     1      33.013 -10.916 -23.766  0.00  0.00    +0.193 C 
ATOM      8  C   UNL     1      32.339  -9.741 -23.445  0.00  0.00    +0.192 C 
ATOM      9  C   UNL     1      31.640  -9.605 -22.252  0.00  0.00    +0.194 C 
ATOM     10  C   UNL     1      32.245 -11.700 -21.708  0.00  0.00    +0.205 C 
ATOM     11  C   UNL     1      31.397  -7.754 -23.273  0.00  0.00    +0.164 C 
ATOM     12  H   UNL     1      33.725 -10.305 -25.579  0.00  0.00    +0.149 HD
ATOM     13  H   UNL     1      32.535  -8.296 -24.962  0.00  0.00    +0.126 HD
ATOM     14  H   UNL     1      31.696 -12.591 -19.978  0.00  0.00    +0.166 HD
ATOM     15  H   UNL     1      30.513  -8.013 -21.420  0.00  0.00    +0.150 HD
ENDROOT
BRANCH   1  16
ATOM     16  C   UNL     1      34.424 -12.272 -25.315  0.00  0.00    +0.071 C 
ATOM     17  C   UNL     1      33.841 -13.473 -24.565  0.00  0.00    +0.020 C 
ATOM     18  C   UNL     1      34.373 -12.477 -26.832  0.00  0.00    +0.020 C 
ATOM     19  C   UNL     1      32.453 -13.869 -25.070  0.00  0.00    +0.002 C 
ATOM     20  C   UNL     1      32.983 -12.875 -27.328  0.00  0.00    +0.002 C 
ATOM     21  C   UNL     1      32.444 -14.089 -26.579  0.00  0.00    +0.000 C 
ENDBRANCH   1  16
BRANCH   4  23
ATOM     22  C   UNL     1      33.907 -16.621 -20.874  0.00  0.00    +0.048 C 
ATOM     23  C   UNL     1      32.781 -14.065 -20.821  0.00  0.00    +0.059 C 
ATOM     24  C   UNL     1      32.527 -16.470 -20.735  0.00  0.00    +0.016 C 
ATOM     25  C   UNL     1      34.724 -15.497 -20.985  0.00  0.00    +0.016 C 
ATOM     26  C   UNL     1      31.964 -15.193 -20.709  0.00  0.00    +0.017 C 
ATOM     27  C   UNL     1      34.162 -14.220 -20.959  0.00  0.00    +0.017 C 
BRANCH  22  29
ATOM     28  O   UNL     1      35.523 -20.489 -21.204  0.00  0.00    -0.350 OA
ATOM     29  N   UNL     1      34.471 -17.901 -20.896  0.00  0.00    -0.303 N 
ATOM     30  C   UNL     1      33.574 -19.051 -21.072  0.00  0.00    +0.123 C 
ATOM     31  C   UNL     1      35.836 -18.090 -21.399  0.00  0.00    +0.123 C 
ATOM     32  C   UNL     1      34.257 -20.317 -20.568  0.00  0.00    +0.164 C 
ATOM     33  C   UNL     1      36.398 -19.408 -20.879  0.00  0.00    +0.164 C 
ENDBRANCH  22  29
ENDBRANCH   4  23
TORSDOF 3
ENDMDL
MODEL 6
REMARK VINA RESULT:      -7.0      3.521      7.296
REMARK  Name = 210332
REMARK  3 active torsions:
REMARK  status: ('A' for Active; 'I' for Inactive)
REMARK    1  A    between atoms: N_1  and  C_16
REMARK    2  A    between atoms: N_4  and  C_23
REMARK    3  A    between atoms: C_22  and  N_29
REMARK                            x       y       z     vdW  Elec       q    Type
REMARK                         _______ _______ _______ _____ _____    ______ ____
ROOT
ATOM      1  N   UNL     1      36.156 -22.455 -16.984  0.00  0.00    -0.311 N 
ATOM      2  N   UNL     1      34.653 -23.623 -15.526  0.00  0.00    -0.316 NA
ATOM      3  N   UNL     1      38.308 -24.022 -15.441  0.00  0.00    -0.268 NA
ATOM      4  N   UNL     1      33.166 -24.753 -14.114  0.00  0.00    -0.238 N 
ATOM      5  N   UNL     1      35.447 -25.198 -13.841  0.00  0.00    -0.316 NA
ATOM      6  N   UNL     1      37.864 -25.453 -13.792  0.00  0.00    -0.296 N 
ATOM      7  C   UNL     1      35.917 -23.350 -15.958  0.00  0.00    +0.193 C 
ATOM      8  C   UNL     1      36.949 -24.021 -15.308  0.00  0.00    +0.192 C 
ATOM      9  C   UNL     1      36.697 -24.918 -14.277  0.00  0.00    +0.194 C 
ATOM     10  C   UNL     1      34.500 -24.512 -14.516  0.00  0.00    +0.205 C 
ATOM     11  C   UNL     1      38.812 -24.894 -14.512  0.00  0.00    +0.164 C 
ATOM     12  H   UNL     1      37.089 -22.296 -17.256  0.00  0.00    +0.149 HD
ATOM     13  H   UNL     1      38.831 -23.492 -16.086  0.00  0.00    +0.126 HD
ATOM     14  H   UNL     1      33.085 -25.401 -13.378  0.00  0.00    +0.166 HD
ATOM     15  H   UNL     1      37.967 -26.110 -13.066  0.00  0.00    +0.150 HD
ENDROOT
BRANCH   1  16
ATOM     16  C   UNL     1      35.106 -21.740 -17.684  0.00  0.00    +0.071 C 
ATOM     17  C   UNL     1      35.670 -21.080 -18.946  0.00  0.00    +0.020 C 
ATOM     18  C   UNL     1      33.951 -22.690 -18.014  0.00  0.00    +0.020 C 
ATOM     19  C   UNL     1      36.021 -22.092 -20.037  0.00  0.00    +0.002 C 
ATOM     20  C   UNL     1      34.308 -23.696 -19.108  0.00  0.00    +0.002 C 
ATOM     21  C   UNL     1      34.842 -23.005 -20.358  0.00  0.00    +0.000 C 
ENDBRANCH   1  16
BRANCH   4  23
ATOM     22  C   UNL     1      29.482 -23.243 -15.450  0.00  0.00    +0.048 C 
ATOM     23  C   UNL     1      31.932 -24.248 -14.561  0.00  0.00    +0.059 C 
ATOM     24  C   UNL     1      29.666 -24.621 -15.322  0.00  0.00    +0.016 C 
ATOM     25  C   UNL     1      30.520 -22.368 -15.135  0.00  0.00    +0.016 C 
ATOM     26  C   UNL     1      30.889 -25.122 -14.878  0.00  0.00    +0.017 C 
ATOM     27  C   UNL     1      31.744 -22.870 -14.690  0.00  0.00    +0.017 C 
BRANCH  22  29
ATOM     28  O   UNL     1      25.894 -21.478 -16.752  0.00  0.00    -0.350 OA
ATOM     29  N   UNL     1      28.255 -22.741 -15.900  0.00  0.00    -0.303 N 
ATOM     30  C   UNL     1      27.398 -22.040 -14.934  0.00  0.00    +0.123 C 
ATOM     31  C   UNL     1      28.109 -22.310 -17.294  0.00  0.00    +0.123 C 
ATOM     32  C   UNL     1      25.959 -22.030 -15.438  0.00  0.00    +0.164 C 
ATOM     33  C   UNL     1      26.632 -22.284 -17.672  0.00  0.00    +0.164 C 
ENDBRANCH  22  29
ENDBRANCH   4  23
TORSDOF 3
ENDMDL
MODEL 7
REMARK VINA RESULT:      -6.6     10.581     14.931
REMARK  Name = 210332
REMARK  3 active torsions:
REMARK  status: ('A' for Active; 'I' for Inactive)
REMARK    1  A    between atoms: N_1  and  C_16
REMARK    2  A    between atoms: N_4  and  C_23
REMARK    3  A    between atoms: C_22  and  N_29
REMARK                            x       y       z     vdW  Elec       q    Type
REMARK                         _______ _______ _______ _____ _____    ______ ____
ROOT
ATOM      1  N   UNL     1      33.060 -12.908 -24.838  0.00  0.00    -0.311 N 
ATOM      2  N   UNL     1      32.503 -11.650 -22.875  0.00  0.00    -0.316 NA
ATOM      3  N   UNL     1      33.293 -15.242 -22.845  0.00  0.00    -0.268 NA
ATOM      4  N   UNL     1      31.955 -10.400 -20.972  0.00  0.00    -0.238 N 
ATOM      5  N   UNL     1      32.414 -12.673 -20.662  0.00  0.00    -0.316 NA
ATOM      6  N   UNL     1      32.940 -15.047 -20.654  0.00  0.00    -0.296 N 
ATOM      7  C   UNL     1      32.848 -12.825 -23.474  0.00  0.00    +0.193 C 
ATOM      8  C   UNL     1      32.973 -13.930 -22.637  0.00  0.00    +0.192 C 
ATOM      9  C   UNL     1      32.759 -13.834 -21.268  0.00  0.00    +0.194 C 
ATOM     10  C   UNL     1      32.311 -11.648 -21.534  0.00  0.00    +0.205 C 
ATOM     11  C   UNL     1      33.260 -15.871 -21.628  0.00  0.00    +0.164 C 
ATOM     12  H   UNL     1      33.307 -13.783 -25.218  0.00  0.00    +0.149 HD
ATOM     13  H   UNL     1      33.508 -15.659 -23.711  0.00  0.00    +0.126 HD
ATOM     14  H   UNL     1      31.824 -10.428 -19.997  0.00  0.00    +0.166 HD
ATOM     15  H   UNL     1      32.850 -15.255 -19.695  0.00  0.00    +0.150 HD
ENDROOT
BRANCH   1  16
ATOM     16  C   UNL     1      32.937 -11.779 -25.739  0.00  0.00    +0.071 C 
ATOM     17  C   UNL     1      33.667 -10.563 -25.160  0.00  0.00    +0.020 C 
ATOM     18  C   UNL     1      33.473 -12.149 -27.125  0.00  0.00    +0.020 C 
ATOM     19  C   UNL     1      35.188 -10.714 -25.193  0.00  0.00    +0.002 C 
ATOM     20  C   UNL     1      34.994 -12.295 -27.151  0.00  0.00    +0.002 C 
ATOM     21  C   UNL     1      35.689 -11.058 -26.592  0.00  0.00    +0.000 C 
ENDBRANCH   1  16
BRANCH   4  23
ATOM     22  C   UNL     1      31.349  -6.598 -22.650  0.00  0.00    +0.048 C 
ATOM     23  C   UNL     1      31.752  -9.127 -21.534  0.00  0.00    +0.059 C 
ATOM     24  C   UNL     1      30.986  -7.741 -23.363  0.00  0.00    +0.016 C 
ATOM     25  C   UNL     1      31.913  -6.718 -21.380  0.00  0.00    +0.016 C 
ATOM     26  C   UNL     1      31.187  -9.004 -22.805  0.00  0.00    +0.017 C 
ATOM     27  C   UNL     1      32.114  -7.981 -20.823  0.00  0.00    +0.017 C 
BRANCH  22  29
ATOM     28  O   UNL     1      30.494  -2.866 -24.388  0.00  0.00    -0.350 OA
ATOM     29  N   UNL     1      31.151  -5.331 -23.210  0.00  0.00    -0.303 N 
ATOM     30  C   UNL     1      30.876  -5.247 -24.651  0.00  0.00    +0.123 C 
ATOM     31  C   UNL     1      30.574  -4.255 -22.399  0.00  0.00    +0.123 C 
ATOM     32  C   UNL     1      31.197  -3.844 -25.154  0.00  0.00    +0.164 C 
ATOM     33  C   UNL     1      30.909  -2.904 -23.022  0.00  0.00    +0.164 C 
ENDBRANCH  22  29
ENDBRANCH   4  23
TORSDOF 3
ENDMDL
MODEL 8
REMARK VINA RESULT:      -6.5     11.090     15.121
REMARK  Name = 210332
REMARK  3 active torsions:
REMARK  status: ('A' for Active; 'I' for Inactive)
REMARK    1  A    between atoms: N_1  and  C_16
REMARK    2  A    between atoms: N_4  and  C_23
REMARK    3  A    between atoms: C_22  and  N_29
REMARK                            x       y       z     vdW  Elec       q    Type
REMARK                         _______ _______ _______ _____ _____    ______ ____
ROOT
ATOM      1  N   UNL     1      31.173 -12.234 -21.217  0.00  0.00    -0.311 N 
ATOM      2  N   UNL     1      32.526 -11.165 -22.883  0.00  0.00    -0.316 NA
ATOM      3  N   UNL     1      32.756 -14.739 -22.048  0.00  0.00    -0.268 NA
ATOM      4  N   UNL     1      33.836 -10.098 -24.504  0.00  0.00    -0.238 N 
ATOM      5  N   UNL     1      34.193 -12.387 -24.178  0.00  0.00    -0.316 NA
ATOM      6  N   UNL     1      34.336 -14.748 -23.620  0.00  0.00    -0.296 N 
ATOM      7  C   UNL     1      32.159 -12.278 -22.186  0.00  0.00    +0.193 C 
ATOM      8  C   UNL     1      32.831 -13.454 -22.505  0.00  0.00    +0.192 C 
ATOM      9  C   UNL     1      33.819 -13.485 -23.481  0.00  0.00    +0.194 C 
ATOM     10  C   UNL     1      33.500 -11.286 -23.816  0.00  0.00    +0.205 C 
ATOM     11  C   UNL     1      33.677 -15.477 -22.745  0.00  0.00    +0.164 C 
ATOM     12  H   UNL     1      30.948 -13.069 -20.744  0.00  0.00    +0.149 HD
ATOM     13  H   UNL     1      32.152 -15.074 -21.346  0.00  0.00    +0.126 HD
ATOM     14  H   UNL     1      34.545 -10.216 -25.177  0.00  0.00    +0.166 HD
ATOM     15  H   UNL     1      35.044 -15.043 -24.237  0.00  0.00    +0.150 HD
ENDROOT
BRANCH   1  16
ATOM     16  C   UNL     1      30.454 -11.027 -20.859  0.00  0.00    +0.071 C 
ATOM     17  C   UNL     1      30.265 -10.959 -19.340  0.00  0.00    +0.020 C 
ATOM     18  C   UNL     1      31.194  -9.796 -21.390  0.00  0.00    +0.020 C 
ATOM     19  C   UNL     1      31.569 -10.676 -18.594  0.00  0.00    +0.002 C 
ATOM     20  C   UNL     1      32.495  -9.517 -20.636  0.00  0.00    +0.002 C 
ATOM     21  C   UNL     1      32.266  -9.430 -19.131  0.00  0.00    +0.000 C 
ENDBRANCH   1  16
BRANCH   4  23
ATOM     22  C   UNL     1      32.400  -6.159 -24.241  0.00  0.00    +0.048 C 
ATOM     23  C   UNL     1      33.355  -8.779 -24.416  0.00  0.00    +0.059 C 
ATOM     24  C   UNL     1      31.503  -7.227 -24.280  0.00  0.00    +0.016 C 
ATOM     25  C   UNL     1      33.773  -6.399 -24.289  0.00  0.00    +0.016 C 
ATOM     26  C   UNL     1      31.980  -8.535 -24.367  0.00  0.00    +0.017 C 
ATOM     27  C   UNL     1      34.250  -7.707 -24.376  0.00  0.00    +0.017 C 
BRANCH  22  29
ATOM     28  O   UNL     1      30.720  -2.307 -24.087  0.00  0.00    -0.350 OA
ATOM     29  N   UNL     1      31.922  -4.847 -24.158  0.00  0.00    -0.303 N 
ATOM     30  C   UNL     1      31.569  -4.158 -25.406  0.00  0.00    +0.123 C 
ATOM     31  C   UNL     1      31.174  -4.415 -22.973  0.00  0.00    +0.123 C 
ATOM     32  C   UNL     1      31.573  -2.650 -25.179  0.00  0.00    +0.164 C 
ATOM     33  C   UNL     1      31.197  -2.894 -22.876  0.00  0.00    +0.164 C 
ENDBRANCH  22  29
ENDBRANCH   4  23
TORSDOF 3
ENDMDL
