MODEL 1
REMARK VINA RESULT:      -9.4      0.000      0.000
REMARK  Name = 1400
REMARK  2 active torsions:
REMARK  status: ('A' for Active; 'I' for Inactive)
REMARK    1  A    between atoms: N_1  and  C_17
REMARK    2  A    between atoms: C_7  and  C_10
REMARK                            x       y       z     vdW  Elec       q    Type
REMARK                         _______ _______ _______ _____ _____    ______ ____
ROOT
ATOM      1  N   UNL     1      33.712 -15.844 -22.089  0.00  0.00    -0.201 N 
ATOM      2  N   UNL     1      33.717 -16.739 -21.113  0.00  0.00    -0.181 NA
ATOM      3  N   UNL     1      34.101 -15.585 -24.456  0.00  0.00    -0.232 NA
ATOM      4  N   UNL     1      34.740 -17.714 -25.461  0.00  0.00    -0.234 NA
ATOM      5  C   UNL     1      34.033 -16.281 -23.310  0.00  0.00    +0.137 C 
ATOM      6  C   UNL     1      34.286 -17.630 -23.139  0.00  0.00    +0.150 C 
ATOM      7  C   UNL     1      34.075 -17.851 -21.765  0.00  0.00    +0.090 C 
ATOM      8  C   UNL     1      34.651 -18.354 -24.269  0.00  0.00    +0.112 C 
ATOM      9  C   UNL     1      34.463 -16.388 -25.479  0.00  0.00    +0.252 C 
ATOM     10  N   UNL     1      34.928 -19.730 -24.198  0.00  0.00    -0.346 N 
ATOM     11  H   UNL     1      35.184 -20.224 -25.010  0.00  0.00    +0.143 HD
ATOM     12  H   UNL     1      34.864 -20.202 -23.336  0.00  0.00    +0.143 HD
ENDROOT
BRANCH   7  13
ATOM     13  C   UNL     1      34.202 -19.094 -21.047  0.00  0.00    +0.016 C 
ATOM     14  C   UNL     1      35.467 -19.607 -20.770  0.00  0.00    +0.001 C 
ATOM     15  C   UNL     1      33.061 -19.774 -20.632  0.00  0.00    +0.001 C 
ATOM     16  C   UNL     1      35.590 -20.809 -20.075  0.00  0.00    -0.004 C 
ATOM     17  C   UNL     1      33.184 -20.976 -19.937  0.00  0.00    -0.004 C 
ATOM     18  C   UNL     1      34.449 -21.494 -19.658  0.00  0.00    -0.022 C 
ATOM     19  C   UNL     1      34.581 -22.780 -18.914  0.00  0.00    +0.031 C 
ENDBRANCH   7  13
BRANCH   1  20
ATOM     20  C   UNL     1      33.350 -14.441 -21.743  0.00  0.00    +0.081 C 
ATOM     21  C   UNL     1      34.625 -13.567 -21.715  0.00  0.00    +0.022 C 
ATOM     22  C   UNL     1      32.666 -14.405 -20.358  0.00  0.00    +0.022 C 
ATOM     23  C   UNL     1      32.373 -13.778 -22.743  0.00  0.00    +0.022 C 
ENDBRANCH   1  20
TORSDOF 2
ENDMDL
MODEL 2
REMARK VINA RESULT:      -9.3      8.301     10.802
REMARK  Name = 1400
REMARK  2 active torsions:
REMARK  status: ('A' for Active; 'I' for Inactive)
REMARK    1  A    between atoms: N_1  and  C_17
REMARK    2  A    between atoms: C_7  and  C_10
REMARK                            x       y       z     vdW  Elec       q    Type
REMARK                         _______ _______ _______ _____ _____    ______ ____
ROOT
ATOM      1  N   UNL     1      35.744 -23.834 -13.036  0.00  0.00    -0.201 N 
ATOM      2  N   UNL     1      34.445 -24.056 -12.902  0.00  0.00    -0.181 NA
ATOM      3  N   UNL     1      37.419 -23.151 -14.634  0.00  0.00    -0.232 NA
ATOM      4  N   UNL     1      36.401 -22.691 -16.803  0.00  0.00    -0.234 NA
ATOM      5  C   UNL     1      36.168 -23.439 -14.240  0.00  0.00    +0.137 C 
ATOM      6  C   UNL     1      35.020 -23.387 -15.010  0.00  0.00    +0.150 C 
ATOM      7  C   UNL     1      33.994 -23.778 -14.130  0.00  0.00    +0.090 C 
ATOM      8  C   UNL     1      35.166 -22.996 -16.338  0.00  0.00    +0.112 C 
ATOM      9  C   UNL     1      37.436 -22.786 -15.934  0.00  0.00    +0.252 C 
ATOM     10  N   UNL     1      34.059 -22.912 -17.201  0.00  0.00    -0.346 N 
ATOM     11  H   UNL     1      34.183 -22.634 -18.136  0.00  0.00    +0.143 HD
ATOM     12  H   UNL     1      33.158 -23.131 -16.869  0.00  0.00    +0.143 HD
ENDROOT
BRANCH   7  13
ATOM     13  C   UNL     1      32.587 -23.897 -14.420  0.00  0.00    +0.016 C 
ATOM     14  C   UNL     1      31.874 -22.783 -14.855  0.00  0.00    +0.001 C 
ATOM     15  C   UNL     1      31.950 -25.125 -14.266  0.00  0.00    +0.001 C 
ATOM     16  C   UNL     1      30.513 -22.898 -15.137  0.00  0.00    -0.004 C 
ATOM     17  C   UNL     1      30.589 -25.240 -14.547  0.00  0.00    -0.004 C 
ATOM     18  C   UNL     1      29.870 -24.126 -14.983  0.00  0.00    -0.022 C 
ATOM     19  C   UNL     1      28.414 -24.250 -15.284  0.00  0.00    +0.031 C 
ENDBRANCH   7  13
BRANCH   1  20
ATOM     20  C   UNL     1      36.611 -24.043 -11.843  0.00  0.00    +0.081 C 
ATOM     21  C   UNL     1      35.740 -24.443 -10.630  0.00  0.00    +0.022 C 
ATOM     22  C   UNL     1      37.382 -22.743 -11.523  0.00  0.00    +0.022 C 
ATOM     23  C   UNL     1      37.669 -25.159 -12.022  0.00  0.00    +0.022 C 
ENDBRANCH   1  20
TORSDOF 2
ENDMDL
MODEL 3
REMARK VINA RESULT:      -9.2      0.045      1.410
REMARK  Name = 1400
REMARK  2 active torsions:
REMARK  status: ('A' for Active; 'I' for Inactive)
REMARK    1  A    between atoms: N_1  and  C_17
REMARK    2  A    between atoms: C_7  and  C_10
REMARK                            x       y       z     vdW  Elec       q    Type
REMARK                         _______ _______ _______ _____ _____    ______ ____
ROOT
ATOM      1  N   UNL     1      33.726 -15.849 -22.104  0.00  0.00    -0.201 N 
ATOM      2  N   UNL     1      33.724 -16.740 -21.124  0.00  0.00    -0.181 NA
ATOM      3  N   UNL     1      34.125 -15.602 -24.471  0.00  0.00    -0.232 NA
ATOM      4  N   UNL     1      34.754 -17.739 -25.465  0.00  0.00    -0.234 NA
ATOM      5  C   UNL     1      34.049 -16.292 -23.322  0.00  0.00    +0.137 C 
ATOM      6  C   UNL     1      34.294 -17.642 -23.145  0.00  0.00    +0.150 C 
ATOM      7  C   UNL     1      34.077 -17.857 -21.771  0.00  0.00    +0.090 C 
ATOM      8  C   UNL     1      34.658 -18.373 -24.272  0.00  0.00    +0.112 C 
ATOM      9  C   UNL     1      34.485 -16.411 -25.490  0.00  0.00    +0.252 C 
ATOM     10  N   UNL     1      34.927 -19.751 -24.194  0.00  0.00    -0.346 N 
ATOM     11  H   UNL     1      35.183 -20.249 -25.003  0.00  0.00    +0.143 HD
ATOM     12  H   UNL     1      34.858 -20.218 -23.330  0.00  0.00    +0.143 HD
ENDROOT
BRANCH   7  13
ATOM     13  C   UNL     1      34.196 -19.097 -21.047  0.00  0.00    +0.016 C 
ATOM     14  C   UNL     1      33.049 -19.771 -20.636  0.00  0.00    +0.001 C 
ATOM     15  C   UNL     1      35.457 -19.615 -20.764  0.00  0.00    +0.001 C 
ATOM     16  C   UNL     1      33.164 -20.972 -19.937  0.00  0.00    -0.004 C 
ATOM     17  C   UNL     1      35.571 -20.816 -20.065  0.00  0.00    -0.004 C 
ATOM     18  C   UNL     1      34.425 -21.495 -19.650  0.00  0.00    -0.022 C 
ATOM     19  C   UNL     1      34.548 -22.779 -18.902  0.00  0.00    +0.031 C 
ENDBRANCH   7  13
BRANCH   1  20
ATOM     20  C   UNL     1      33.372 -14.443 -21.765  0.00  0.00    +0.081 C 
ATOM     21  C   UNL     1      32.738 -14.391 -20.356  0.00  0.00    +0.022 C 
ATOM     22  C   UNL     1      32.372 -13.891 -22.805  0.00  0.00    +0.022 C 
ATOM     23  C   UNL     1      34.580 -13.476 -21.748  0.00  0.00    +0.022 C 
ENDBRANCH   1  20
TORSDOF 2
ENDMDL
MODEL 4
REMARK VINA RESULT:      -8.8      5.397      9.633
REMARK  Name = 1400
REMARK  2 active torsions:
REMARK  status: ('A' for Active; 'I' for Inactive)
REMARK    1  A    between atoms: N_1  and  C_17
REMARK    2  A    between atoms: C_7  and  C_10
REMARK                            x       y       z     vdW  Elec       q    Type
REMARK                         _______ _______ _______ _____ _____    ______ ____
ROOT
ATOM      1  N   UNL     1      35.399 -24.056 -15.491  0.00  0.00    -0.201 N 
ATOM      2  N   UNL     1      35.791 -23.366 -16.551  0.00  0.00    -0.181 NA
ATOM      3  N   UNL     1      33.436 -24.728 -14.259  0.00  0.00    -0.232 NA
ATOM      4  N   UNL     1      31.419 -23.842 -15.305  0.00  0.00    -0.234 NA
ATOM      5  C   UNL     1      34.085 -24.104 -15.255  0.00  0.00    +0.137 C 
ATOM      6  C   UNL     1      33.523 -23.359 -16.276  0.00  0.00    +0.150 C 
ATOM      7  C   UNL     1      34.625 -22.932 -17.041  0.00  0.00    +0.090 C 
ATOM      8  C   UNL     1      32.137 -23.237 -16.282  0.00  0.00    +0.112 C 
ATOM      9  C   UNL     1      32.103 -24.540 -14.368  0.00  0.00    +0.252 C 
ATOM     10  N   UNL     1      31.472 -22.501 -17.279  0.00  0.00    -0.346 N 
ATOM     11  H   UNL     1      30.491 -22.427 -17.264  0.00  0.00    +0.143 HD
ATOM     12  H   UNL     1      31.988 -22.060 -17.992  0.00  0.00    +0.143 HD
ENDROOT
BRANCH   7  13
ATOM     13  C   UNL     1      34.605 -22.119 -18.230  0.00  0.00    +0.016 C 
ATOM     14  C   UNL     1      33.394 -21.842 -18.859  0.00  0.00    +0.001 C 
ATOM     15  C   UNL     1      35.796 -21.613 -18.744  0.00  0.00    +0.001 C 
ATOM     16  C   UNL     1      33.374 -21.055 -20.010  0.00  0.00    -0.004 C 
ATOM     17  C   UNL     1      35.776 -20.826 -19.894  0.00  0.00    -0.004 C 
ATOM     18  C   UNL     1      34.565 -20.546 -20.528  0.00  0.00    -0.022 C 
ATOM     19  C   UNL     1      34.544 -19.703 -21.758  0.00  0.00    +0.031 C 
ENDBRANCH   7  13
BRANCH   1  20
ATOM     20  C   UNL     1      36.448 -24.711 -14.662  0.00  0.00    +0.081 C 
ATOM     21  C   UNL     1      37.822 -24.066 -14.955  0.00  0.00    +0.022 C 
ATOM     22  C   UNL     1      36.504 -26.221 -14.987  0.00  0.00    +0.022 C 
ATOM     23  C   UNL     1      36.212 -24.590 -13.137  0.00  0.00    +0.022 C 
ENDBRANCH   1  20
TORSDOF 2
ENDMDL
MODEL 5
REMARK VINA RESULT:      -8.7      3.307      7.730
REMARK  Name = 1400
REMARK  2 active torsions:
REMARK  status: ('A' for Active; 'I' for Inactive)
REMARK    1  A    between atoms: N_1  and  C_17
REMARK    2  A    between atoms: C_7  and  C_10
REMARK                            x       y       z     vdW  Elec       q    Type
REMARK                         _______ _______ _______ _____ _____    ______ ____
ROOT
ATOM      1  N   UNL     1      33.784 -14.540 -22.765  0.00  0.00    -0.201 N 
ATOM      2  N   UNL     1      33.832 -13.255 -22.449  0.00  0.00    -0.181 NA
ATOM      3  N   UNL     1      33.576 -16.048 -24.637  0.00  0.00    -0.232 NA
ATOM      4  N   UNL     1      33.380 -14.803 -26.726  0.00  0.00    -0.234 NA
ATOM      5  C   UNL     1      33.649 -14.837 -24.060  0.00  0.00    +0.137 C 
ATOM      6  C   UNL     1      33.600 -13.609 -24.694  0.00  0.00    +0.150 C 
ATOM      7  C   UNL     1      33.717 -12.674 -23.648  0.00  0.00    +0.090 C 
ATOM      8  C   UNL     1      33.460 -13.616 -26.078  0.00  0.00    +0.112 C 
ATOM      9  C   UNL     1      33.442 -15.929 -25.976  0.00  0.00    +0.252 C 
ATOM     10  N   UNL     1      33.401 -12.418 -26.813  0.00  0.00    -0.346 N 
ATOM     11  H   UNL     1      33.301 -12.445 -27.792  0.00  0.00    +0.143 HD
ATOM     12  H   UNL     1      33.459 -11.552 -26.348  0.00  0.00    +0.143 HD
ENDROOT
BRANCH   7  13
ATOM     13  C   UNL     1      33.724 -11.237 -23.753  0.00  0.00    +0.016 C 
ATOM     14  C   UNL     1      32.637 -10.504 -23.285  0.00  0.00    +0.001 C 
ATOM     15  C   UNL     1      34.818 -10.589 -24.320  0.00  0.00    +0.001 C 
ATOM     16  C   UNL     1      32.644  -9.113 -23.386  0.00  0.00    -0.004 C 
ATOM     17  C   UNL     1      34.825  -9.199 -24.421  0.00  0.00    -0.004 C 
ATOM     18  C   UNL     1      33.738  -8.460 -23.954  0.00  0.00    -0.022 C 
ATOM     19  C   UNL     1      33.745  -6.972 -24.061  0.00  0.00    +0.031 C 
ENDBRANCH   7  13
BRANCH   1  20
ATOM     20  C   UNL     1      33.884 -15.531 -21.659  0.00  0.00    +0.081 C 
ATOM     21  C   UNL     1      32.468 -15.909 -21.168  0.00  0.00    +0.022 C 
ATOM     22  C   UNL     1      34.695 -14.930 -20.489  0.00  0.00    +0.022 C 
ATOM     23  C   UNL     1      34.587 -16.852 -22.058  0.00  0.00    +0.022 C 
ENDBRANCH   1  20
TORSDOF 2
ENDMDL
MODEL 6
REMARK VINA RESULT:      -8.4      5.374      9.536
REMARK  Name = 1400
REMARK  2 active torsions:
REMARK  status: ('A' for Active; 'I' for Inactive)
REMARK    1  A    between atoms: N_1  and  C_17
REMARK    2  A    between atoms: C_7  and  C_10
REMARK                            x       y       z     vdW  Elec       q    Type
REMARK                         _______ _______ _______ _____ _____    ______ ____
ROOT
ATOM      1  N   UNL     1      35.975 -23.714 -15.429  0.00  0.00    -0.201 N 
ATOM      2  N   UNL     1      36.318 -23.028 -16.509  0.00  0.00    -0.181 NA
ATOM      3  N   UNL     1      34.064 -24.539 -14.208  0.00  0.00    -0.232 NA
ATOM      4  N   UNL     1      31.990 -23.908 -15.327  0.00  0.00    -0.234 NA
ATOM      5  C   UNL     1      34.668 -23.889 -15.217  0.00  0.00    +0.137 C 
ATOM      6  C   UNL     1      34.055 -23.247 -16.277  0.00  0.00    +0.150 C 
ATOM      7  C   UNL     1      35.124 -22.737 -17.038  0.00  0.00    +0.090 C 
ATOM      8  C   UNL     1      32.665 -23.269 -16.314  0.00  0.00    +0.112 C 
ATOM      9  C   UNL     1      32.722 -24.494 -14.350  0.00  0.00    +0.252 C 
ATOM     10  N   UNL     1      31.950 -22.646 -17.352  0.00  0.00    -0.346 N 
ATOM     11  H   UNL     1      30.966 -22.673 -17.359  0.00  0.00    +0.143 HD
ATOM     12  H   UNL     1      32.434 -22.181 -18.073  0.00  0.00    +0.143 HD
ENDROOT
BRANCH   7  13
ATOM     13  C   UNL     1      35.047 -21.976 -18.260  0.00  0.00    +0.016 C 
ATOM     14  C   UNL     1      33.810 -21.746 -18.855  0.00  0.00    +0.001 C 
ATOM     15  C   UNL     1      36.211 -21.475 -18.837  0.00  0.00    +0.001 C 
ATOM     16  C   UNL     1      33.736 -21.010 -20.036  0.00  0.00    -0.004 C 
ATOM     17  C   UNL     1      36.136 -20.738 -20.018  0.00  0.00    -0.004 C 
ATOM     18  C   UNL     1      34.899 -20.505 -20.619  0.00  0.00    -0.022 C 
ATOM     19  C   UNL     1      34.819 -19.717 -21.883  0.00  0.00    +0.031 C 
ENDBRANCH   7  13
BRANCH   1  20
ATOM     20  C   UNL     1      37.067 -24.224 -14.555  0.00  0.00    +0.081 C 
ATOM     21  C   UNL     1      36.859 -25.732 -14.289  0.00  0.00    +0.022 C 
ATOM     22  C   UNL     1      37.065 -23.456 -13.214  0.00  0.00    +0.022 C 
ATOM     23  C   UNL     1      38.483 -24.066 -15.159  0.00  0.00    +0.022 C 
ENDBRANCH   1  20
TORSDOF 2
ENDMDL
MODEL 7
REMARK VINA RESULT:      -8.3      5.253      8.931
REMARK  Name = 1400
REMARK  2 active torsions:
REMARK  status: ('A' for Active; 'I' for Inactive)
REMARK    1  A    between atoms: N_1  and  C_17
REMARK    2  A    between atoms: C_7  and  C_10
REMARK                            x       y       z     vdW  Elec       q    Type
REMARK                         _______ _______ _______ _____ _____    ______ ____
ROOT
ATOM      1  N   UNL     1      31.806 -23.341 -16.300  0.00  0.00    -0.201 N 
ATOM      2  N   UNL     1      31.818 -22.667 -17.440  0.00  0.00    -0.181 NA
ATOM      3  N   UNL     1      33.249 -24.222 -14.578  0.00  0.00    -0.232 NA
ATOM      4  N   UNL     1      35.583 -23.711 -15.067  0.00  0.00    -0.234 NA
ATOM      5  C   UNL     1      32.989 -23.570 -15.723  0.00  0.00    +0.137 C 
ATOM      6  C   UNL     1      33.908 -22.981 -16.572  0.00  0.00    +0.150 C 
ATOM      7  C   UNL     1      33.125 -22.442 -17.610  0.00  0.00    +0.090 C 
ATOM      8  C   UNL     1      35.249 -23.067 -16.211  0.00  0.00    +0.112 C 
ATOM      9  C   UNL     1      34.576 -24.241 -14.332  0.00  0.00    +0.252 C 
ATOM     10  N   UNL     1      36.258 -22.499 -17.008  0.00  0.00    -0.346 N 
ATOM     11  H   UNL     1      37.201 -22.571 -16.735  0.00  0.00    +0.143 HD
ATOM     12  H   UNL     1      36.023 -22.029 -17.841  0.00  0.00    +0.143 HD
ENDROOT
BRANCH   7  13
ATOM     13  C   UNL     1      33.583 -21.715 -18.767  0.00  0.00    +0.016 C 
ATOM     14  C   UNL     1      32.704 -20.882 -19.454  0.00  0.00    +0.001 C 
ATOM     15  C   UNL     1      34.902 -21.849 -19.192  0.00  0.00    +0.001 C 
ATOM     16  C   UNL     1      33.147 -20.178 -20.573  0.00  0.00    -0.004 C 
ATOM     17  C   UNL     1      35.346 -21.146 -20.310  0.00  0.00    -0.004 C 
ATOM     18  C   UNL     1      34.468 -20.310 -21.002  0.00  0.00    -0.022 C 
ATOM     19  C   UNL     1      34.943 -19.557 -22.199  0.00  0.00    +0.031 C 
ENDBRANCH   7  13
BRANCH   1  20
ATOM     20  C   UNL     1      30.487 -23.782 -15.767  0.00  0.00    +0.081 C 
ATOM     21  C   UNL     1      29.353 -23.214 -16.651  0.00  0.00    +0.022 C 
ATOM     22  C   UNL     1      30.316 -23.279 -14.316  0.00  0.00    +0.022 C 
ATOM     23  C   UNL     1      30.303 -25.318 -15.734  0.00  0.00    +0.022 C 
ENDBRANCH   1  20
TORSDOF 2
ENDMDL
MODEL 8
REMARK VINA RESULT:      -8.3      6.043      9.167
REMARK  Name = 1400
REMARK  2 active torsions:
REMARK  status: ('A' for Active; 'I' for Inactive)
REMARK    1  A    between atoms: N_1  and  C_17
REMARK    2  A    between atoms: C_7  and  C_10
REMARK                            x       y       z     vdW  Elec       q    Type
REMARK                         _______ _______ _______ _____ _____    ______ ____
ROOT
ATOM      1  N   UNL     1      34.115 -22.735 -17.750  0.00  0.00    -0.201 N 
ATOM      2  N   UNL     1      35.220 -23.094 -17.114  0.00  0.00    -0.181 NA
ATOM      3  N   UNL     1      31.715 -22.634 -17.519  0.00  0.00    -0.232 NA
ATOM      4  N   UNL     1      31.024 -23.494 -15.344  0.00  0.00    -0.234 NA
ATOM      5  C   UNL     1      32.961 -22.913 -17.102  0.00  0.00    +0.137 C 
ATOM      6  C   UNL     1      33.328 -23.456 -15.884  0.00  0.00    +0.150 C 
ATOM      7  C   UNL     1      34.732 -23.543 -15.953  0.00  0.00    +0.090 C 
ATOM      8  C   UNL     1      32.306 -23.750 -14.987  0.00  0.00    +0.112 C 
ATOM      9  C   UNL     1      30.811 -22.960 -16.570  0.00  0.00    +0.252 C 
ATOM     10  N   UNL     1      32.578 -24.304 -13.724  0.00  0.00    -0.346 N 
ATOM     11  H   UNL     1      31.840 -24.504 -13.104  0.00  0.00    +0.143 HD
ATOM     12  H   UNL     1      33.508 -24.491 -13.458  0.00  0.00    +0.143 HD
ENDROOT
BRANCH   7  13
ATOM     13  C   UNL     1      35.630 -24.043 -14.942  0.00  0.00    +0.016 C 
ATOM     14  C   UNL     1      36.036 -25.374 -14.975  0.00  0.00    +0.001 C 
ATOM     15  C   UNL     1      36.087 -23.191 -13.940  0.00  0.00    +0.001 C 
ATOM     16  C   UNL     1      36.906 -25.857 -13.998  0.00  0.00    -0.004 C 
ATOM     17  C   UNL     1      36.956 -23.674 -12.964  0.00  0.00    -0.004 C 
ATOM     18  C   UNL     1      37.366 -25.008 -12.992  0.00  0.00    -0.022 C 
ATOM     19  C   UNL     1      38.297 -25.525 -11.947  0.00  0.00    +0.031 C 
ENDBRANCH   7  13
BRANCH   1  20
ATOM     20  C   UNL     1      34.256 -22.169 -19.120  0.00  0.00    +0.081 C 
ATOM     21  C   UNL     1      34.170 -23.305 -20.164  0.00  0.00    +0.022 C 
ATOM     22  C   UNL     1      35.615 -21.447 -19.250  0.00  0.00    +0.022 C 
ATOM     23  C   UNL     1      33.163 -21.137 -19.490  0.00  0.00    +0.022 C 
ENDBRANCH   1  20
TORSDOF 2
ENDMDL
MODEL 9
REMARK VINA RESULT:      -8.2      5.858     10.063
REMARK  Name = 1400
REMARK  2 active torsions:
REMARK  status: ('A' for Active; 'I' for Inactive)
REMARK    1  A    between atoms: N_1  and  C_17
REMARK    2  A    between atoms: C_7  and  C_10
REMARK                            x       y       z     vdW  Elec       q    Type
REMARK                         _______ _______ _______ _____ _____    ______ ____
ROOT
ATOM      1  N   UNL     1      36.208 -24.164 -14.879  0.00  0.00    -0.201 N 
ATOM      2  N   UNL     1      36.564 -23.519 -15.980  0.00  0.00    -0.181 NA
ATOM      3  N   UNL     1      34.286 -24.800 -13.566  0.00  0.00    -0.232 NA
ATOM      4  N   UNL     1      32.231 -23.984 -14.597  0.00  0.00    -0.234 NA
ATOM      5  C   UNL     1      34.901 -24.215 -14.606  0.00  0.00    +0.137 C 
ATOM      6  C   UNL     1      34.304 -23.524 -15.645  0.00  0.00    +0.150 C 
ATOM      7  C   UNL     1      35.380 -23.120 -16.457  0.00  0.00    +0.090 C 
ATOM      8  C   UNL     1      32.917 -23.417 -15.619  0.00  0.00    +0.112 C 
ATOM      9  C   UNL     1      32.948 -24.631 -13.648  0.00  0.00    +0.252 C 
ATOM     10  N   UNL     1      32.217 -22.735 -16.630  0.00  0.00    -0.346 N 
ATOM     11  H   UNL     1      31.236 -22.670 -16.593  0.00  0.00    +0.143 HD
ATOM     12  H   UNL     1      32.709 -22.321 -17.376  0.00  0.00    +0.143 HD
ENDROOT
BRANCH   7  13
ATOM     13  C   UNL     1      35.319 -22.363 -17.681  0.00  0.00    +0.016 C 
ATOM     14  C   UNL     1      36.430 -21.637 -18.103  0.00  0.00    +0.001 C 
ATOM     15  C   UNL     1      34.150 -22.361 -18.437  0.00  0.00    +0.001 C 
ATOM     16  C   UNL     1      36.372 -20.905 -19.287  0.00  0.00    -0.004 C 
ATOM     17  C   UNL     1      34.091 -21.628 -19.621  0.00  0.00    -0.004 C 
ATOM     18  C   UNL     1      35.202 -20.900 -20.047  0.00  0.00    -0.022 C 
ATOM     19  C   UNL     1      35.139 -20.116 -21.315  0.00  0.00    +0.031 C 
ENDBRANCH   7  13
BRANCH   1  20
ATOM     20  C   UNL     1      37.286 -24.770 -14.049  0.00  0.00    +0.081 C 
ATOM     21  C   UNL     1      37.370 -24.038 -12.690  0.00  0.00    +0.022 C 
ATOM     22  C   UNL     1      38.639 -24.655 -14.786  0.00  0.00    +0.022 C 
ATOM     23  C   UNL     1      37.072 -26.271 -13.737  0.00  0.00    +0.022 C 
ENDBRANCH   1  20
TORSDOF 2
ENDMDL
