MODEL 1
REMARK VINA RESULT:     -10.1      0.000      0.000
REMARK  Name = 9868491
REMARK  15 active torsions:
REMARK  status: ('A' for Active; 'I' for Inactive)
REMARK    1  A    between atoms: C_1  and  C_23
REMARK    2  A    between atoms: C_2  and  C_10
REMARK    3  A    between atoms: C_3  and  O_6
REMARK    4  A    between atoms: C_4  and  O_8
REMARK    5  A    between atoms: C_11  and  C_14
REMARK    6  A    between atoms: C_14  and  C_15
REMARK    7  A    between atoms: C_15  and  O_16
REMARK    8  A    between atoms: O_16  and  C_17
REMARK    9  A    between atoms: C_23  and  C_24
REMARK   10  A    between atoms: C_25  and  C_26
REMARK   11  A    between atoms: C_26  and  C_27
REMARK   12  A    between atoms: C_27  and  C_28
REMARK   13  A    between atoms: C_28  and  C_30
REMARK   14  A    between atoms: C_30  and  O_31
REMARK   15  A    between atoms: O_31  and  C_32
REMARK                            x       y       z     vdW  Elec       q    Type
REMARK                         _______ _______ _______ _____ _____    ______ ____
ROOT
ATOM      1  C   UNL     1      33.283 -13.312 -25.187  0.00  0.00    +0.038 C 
ATOM      2  C   UNL     1      34.186 -14.483 -24.765  0.00  0.00    +0.051 C 
ATOM      3  C   UNL     1      32.984 -13.642 -26.652  0.00  0.00    +0.114 C 
ATOM      4  C   UNL     1      33.567 -15.700 -25.476  0.00  0.00    +0.117 C 
ATOM      5  C   UNL     1      32.720 -15.147 -26.634  0.00  0.00    +0.059 C 
ENDROOT
BRANCH   3   6
ATOM      6  O   UNL     1      34.079 -13.344 -27.512  0.00  0.00    -0.384 OA
ATOM      7  H   UNL     1      33.777 -12.771 -28.233  0.00  0.00    +0.210 HD
ENDBRANCH   3   6
BRANCH   4   8
ATOM      8  O   UNL     1      34.592 -16.540 -25.993  0.00  0.00    -0.384 OA
ATOM      9  H   UNL     1      34.197 -17.225 -26.553  0.00  0.00    +0.210 HD
ENDBRANCH   4   8
BRANCH   2  10
ATOM     10  C   UNL     1      34.264 -14.675 -23.283  0.00  0.00    -0.023 C 
ATOM     11  C   UNL     1      34.335 -15.874 -22.689  0.00  0.00    +0.038 C 
BRANCH  11  14
ATOM     12  F   UNL     1      33.159 -16.328 -20.716  0.00  0.00    -0.196 F 
ATOM     13  F   UNL     1      34.853 -14.973 -20.558  0.00  0.00    -0.196 F 
ATOM     14  C   UNL     1      34.406 -16.083 -21.206  0.00  0.00    +0.322 C 
BRANCH  14  15
ATOM     15  C   UNL     1      35.309 -17.253 -20.846  0.00  0.00    +0.276 C 
BRANCH  15  16
ATOM     16  O   UNL     1      34.900 -18.394 -21.592  0.00  0.00    -0.469 OA
BRANCH  16  17
ATOM     17  C   UNL     1      34.582 -19.517 -20.875  0.00  0.00    +0.139 C 
ATOM     18  C   UNL     1      35.592 -20.369 -20.431  0.00  0.00    +0.037 C 
ATOM     19  C   UNL     1      33.248 -19.808 -20.591  0.00  0.00    +0.037 C 
ATOM     20  C   UNL     1      35.268 -21.514 -19.701  0.00  0.00    +0.003 C 
ATOM     21  C   UNL     1      32.924 -20.952 -19.862  0.00  0.00    +0.003 C 
ATOM     22  C   UNL     1      33.934 -21.805 -19.417  0.00  0.00    +0.000 C 
ENDBRANCH  16  17
ENDBRANCH  15  16
ENDBRANCH  14  15
ENDBRANCH  11  14
ENDBRANCH   2  10
BRANCH   1  23
ATOM     23  C   UNL     1      33.926 -11.949 -24.988  0.00  0.00    +0.028 C 
BRANCH  23  24
ATOM     24  C   UNL     1      33.255 -11.188 -23.884  0.00  0.00    -0.031 C 
ATOM     25  C   UNL     1      33.606  -9.948 -23.511  0.00  0.00    -0.031 C 
BRANCH  25  26
ATOM     26  C   UNL     1      34.714  -9.169 -24.158  0.00  0.00    +0.026 C 
BRANCH  26  27
ATOM     27  C   UNL     1      34.758  -7.701 -23.713  0.00  0.00    +0.016 C 
BRANCH  27  28
ATOM     28  C   UNL     1      34.539  -6.688 -24.838  0.00  0.00    +0.110 C 
BRANCH  28  30
ATOM     29  O   UNL     1      32.659  -5.422 -25.699  0.00  0.00    -0.250 OA
ATOM     30  C   UNL     1      33.183  -6.026 -24.772  0.00  0.00    +0.317 C 
BRANCH  30  31
ATOM     31  O   UNL     1      32.633  -6.235 -23.540  0.00  0.00    -0.452 OA
BRANCH  31  32
ATOM     32  C   UNL     1      31.203  -6.275 -23.501  0.00  0.00    +0.169 C 
ATOM     33  C   UNL     1      30.739  -7.717 -23.637  0.00  0.00    +0.047 C 
ATOM     34  C   UNL     1      30.720  -5.644 -22.204  0.00  0.00    +0.047 C 
ENDBRANCH  31  32
ENDBRANCH  30  31
ENDBRANCH  28  30
ENDBRANCH  27  28
ENDBRANCH  26  27
ENDBRANCH  25  26
ENDBRANCH  23  24
ENDBRANCH   1  23
TORSDOF 15
ENDMDL
MODEL 2
REMARK VINA RESULT:     -10.0      1.184      1.695
REMARK  Name = 9868491
REMARK  15 active torsions:
REMARK  status: ('A' for Active; 'I' for Inactive)
REMARK    1  A    between atoms: C_1  and  C_23
REMARK    2  A    between atoms: C_2  and  C_10
REMARK    3  A    between atoms: C_3  and  O_6
REMARK    4  A    between atoms: C_4  and  O_8
REMARK    5  A    between atoms: C_11  and  C_14
REMARK    6  A    between atoms: C_14  and  C_15
REMARK    7  A    between atoms: C_15  and  O_16
REMARK    8  A    between atoms: O_16  and  C_17
REMARK    9  A    between atoms: C_23  and  C_24
REMARK   10  A    between atoms: C_25  and  C_26
REMARK   11  A    between atoms: C_26  and  C_27
REMARK   12  A    between atoms: C_27  and  C_28
REMARK   13  A    between atoms: C_28  and  C_30
REMARK   14  A    between atoms: C_30  and  O_31
REMARK   15  A    between atoms: O_31  and  C_32
REMARK                            x       y       z     vdW  Elec       q    Type
REMARK                         _______ _______ _______ _____ _____    ______ ____
ROOT
ATOM      1  C   UNL     1      33.222 -13.494 -25.379  0.00  0.00    +0.038 C 
ATOM      2  C   UNL     1      34.160 -14.618 -24.910  0.00  0.00    +0.051 C 
ATOM      3  C   UNL     1      32.888 -13.923 -26.811  0.00  0.00    +0.114 C 
ATOM      4  C   UNL     1      33.546 -15.890 -25.522  0.00  0.00    +0.117 C 
ATOM      5  C   UNL     1      32.656 -15.428 -26.687  0.00  0.00    +0.059 C 
ENDROOT
BRANCH   3   6
ATOM      6  O   UNL     1      33.952 -13.662 -27.720  0.00  0.00    -0.384 OA
ATOM      7  H   UNL     1      34.757 -14.106 -27.412  0.00  0.00    +0.210 HD
ENDBRANCH   3   6
BRANCH   4   8
ATOM      8  O   UNL     1      34.573 -16.742 -26.014  0.00  0.00    -0.384 OA
ATOM      9  H   UNL     1      35.385 -16.597 -25.505  0.00  0.00    +0.210 HD
ENDBRANCH   4   8
BRANCH   2  10
ATOM     10  C   UNL     1      34.284 -14.711 -23.421  0.00  0.00    -0.023 C 
ATOM     11  C   UNL     1      34.220 -15.863 -22.739  0.00  0.00    +0.038 C 
BRANCH  11  14
ATOM     12  F   UNL     1      33.094 -16.076 -20.697  0.00  0.00    -0.196 F 
ATOM     13  F   UNL     1      34.898 -14.861 -20.699  0.00  0.00    -0.196 F 
ATOM     14  C   UNL     1      34.336 -15.973 -21.248  0.00  0.00    +0.322 C 
BRANCH  14  15
ATOM     15  C   UNL     1      35.154 -17.186 -20.835  0.00  0.00    +0.276 C 
BRANCH  15  16
ATOM     16  O   UNL     1      34.695 -18.318 -21.564  0.00  0.00    -0.469 OA
BRANCH  16  17
ATOM     17  C   UNL     1      34.535 -19.481 -20.859  0.00  0.00    +0.139 C 
ATOM     18  C   UNL     1      33.256 -19.919 -20.515  0.00  0.00    +0.037 C 
ATOM     19  C   UNL     1      35.652 -20.228 -20.483  0.00  0.00    +0.037 C 
ATOM     20  C   UNL     1      33.094 -21.104 -19.796  0.00  0.00    +0.003 C 
ATOM     21  C   UNL     1      35.491 -21.412 -19.765  0.00  0.00    +0.003 C 
ATOM     22  C   UNL     1      34.212 -21.850 -19.421  0.00  0.00    +0.000 C 
ENDBRANCH  16  17
ENDBRANCH  15  16
ENDBRANCH  14  15
ENDBRANCH  11  14
ENDBRANCH   2  10
BRANCH   1  23
ATOM     23  C   UNL     1      33.843 -12.109 -25.288  0.00  0.00    +0.028 C 
BRANCH  23  24
ATOM     24  C   UNL     1      33.470 -11.430 -24.004  0.00  0.00    -0.031 C 
ATOM     25  C   UNL     1      33.948 -10.235 -23.625  0.00  0.00    -0.031 C 
BRANCH  25  26
ATOM     26  C   UNL     1      34.916  -9.430 -24.443  0.00  0.00    +0.026 C 
BRANCH  26  27
ATOM     27  C   UNL     1      34.670  -7.918 -24.351  0.00  0.00    +0.016 C 
BRANCH  27  28
ATOM     28  C   UNL     1      34.264  -7.423 -22.961  0.00  0.00    +0.110 C 
BRANCH  28  30
ATOM     29  O   UNL     1      32.404  -5.944 -23.442  0.00  0.00    -0.250 OA
ATOM     30  C   UNL     1      32.827  -6.958 -22.903  0.00  0.00    +0.317 C 
BRANCH  30  31
ATOM     31  O   UNL     1      32.087  -7.856 -22.191  0.00  0.00    -0.452 OA
BRANCH  31  32
ATOM     32  C   UNL     1      32.574  -8.154 -20.879  0.00  0.00    +0.169 C 
ATOM     33  C   UNL     1      32.310  -6.966 -19.965  0.00  0.00    +0.047 C 
ATOM     34  C   UNL     1      31.901  -9.420 -20.371  0.00  0.00    +0.047 C 
ENDBRANCH  31  32
ENDBRANCH  30  31
ENDBRANCH  28  30
ENDBRANCH  27  28
ENDBRANCH  26  27
ENDBRANCH  25  26
ENDBRANCH  23  24
ENDBRANCH   1  23
TORSDOF 15
ENDMDL
MODEL 3
REMARK VINA RESULT:      -9.9      2.738     11.331
REMARK  Name = 9868491
REMARK  15 active torsions:
REMARK  status: ('A' for Active; 'I' for Inactive)
REMARK    1  A    between atoms: C_1  and  C_23
REMARK    2  A    between atoms: C_2  and  C_10
REMARK    3  A    between atoms: C_3  and  O_6
REMARK    4  A    between atoms: C_4  and  O_8
REMARK    5  A    between atoms: C_11  and  C_14
REMARK    6  A    between atoms: C_14  and  C_15
REMARK    7  A    between atoms: C_15  and  O_16
REMARK    8  A    between atoms: O_16  and  C_17
REMARK    9  A    between atoms: C_23  and  C_24
REMARK   10  A    between atoms: C_25  and  C_26
REMARK   11  A    between atoms: C_26  and  C_27
REMARK   12  A    between atoms: C_27  and  C_28
REMARK   13  A    between atoms: C_28  and  C_30
REMARK   14  A    between atoms: C_30  and  O_31
REMARK   15  A    between atoms: O_31  and  C_32
REMARK                            x       y       z     vdW  Elec       q    Type
REMARK                         _______ _______ _______ _____ _____    ______ ____
ROOT
ATOM      1  C   UNL     1      34.134 -15.324 -22.096  0.00  0.00    +0.038 C 
ATOM      2  C   UNL     1      32.887 -14.582 -22.605  0.00  0.00    +0.051 C 
ATOM      3  C   UNL     1      34.787 -15.798 -23.397  0.00  0.00    +0.114 C 
ATOM      4  C   UNL     1      33.380 -13.858 -23.870  0.00  0.00    +0.117 C 
ATOM      5  C   UNL     1      34.656 -14.589 -24.323  0.00  0.00    +0.059 C 
ENDROOT
BRANCH   3   6
ATOM      6  O   UNL     1      34.124 -16.924 -23.962  0.00  0.00    -0.384 OA
ATOM      7  H   UNL     1      34.748 -17.661 -24.038  0.00  0.00    +0.210 HD
ENDBRANCH   3   6
BRANCH   4   8
ATOM      8  O   UNL     1      32.397 -13.936 -24.895  0.00  0.00    -0.384 OA
ATOM      9  H   UNL     1      32.635 -13.336 -25.618  0.00  0.00    +0.210 HD
ENDBRANCH   4   8
BRANCH   2  10
ATOM     10  C   UNL     1      32.304 -13.634 -21.604  0.00  0.00    -0.023 C 
ATOM     11  C   UNL     1      31.872 -12.402 -21.907  0.00  0.00    +0.038 C 
BRANCH  11  14
ATOM     12  F   UNL     1      31.545 -11.874 -19.650  0.00  0.00    -0.196 F 
ATOM     13  F   UNL     1      29.938 -11.356 -21.021  0.00  0.00    -0.196 F 
ATOM     14  C   UNL     1      31.293 -11.439 -20.916  0.00  0.00    +0.322 C 
BRANCH  14  15
ATOM     15  C   UNL     1      31.880 -10.045 -21.077  0.00  0.00    +0.276 C 
BRANCH  15  16
ATOM     16  O   UNL     1      31.498  -9.532 -22.349  0.00  0.00    -0.469 OA
BRANCH  16  17
ATOM     17  C   UNL     1      32.400  -8.718 -22.980  0.00  0.00    +0.139 C 
ATOM     18  C   UNL     1      32.027  -7.430 -23.364  0.00  0.00    +0.037 C 
ATOM     19  C   UNL     1      33.691  -9.178 -23.241  0.00  0.00    +0.037 C 
ATOM     20  C   UNL     1      32.947  -6.601 -24.008  0.00  0.00    +0.003 C 
ATOM     21  C   UNL     1      34.610  -8.349 -23.885  0.00  0.00    +0.003 C 
ATOM     22  C   UNL     1      34.237  -7.061 -24.269  0.00  0.00    +0.000 C 
ENDBRANCH  16  17
ENDBRANCH  15  16
ENDBRANCH  14  15
ENDBRANCH  11  14
ENDBRANCH   2  10
BRANCH   1  23
ATOM     23  C   UNL     1      33.814 -16.453 -21.130  0.00  0.00    +0.028 C 
BRANCH  23  24
ATOM     24  C   UNL     1      34.982 -17.381 -20.973  0.00  0.00    -0.031 C 
ATOM     25  C   UNL     1      34.896 -18.716 -21.084  0.00  0.00    -0.031 C 
BRANCH  25  26
ATOM     26  C   UNL     1      33.617 -19.444 -21.381  0.00  0.00    +0.026 C 
BRANCH  26  27
ATOM     27  C   UNL     1      33.169 -20.365 -20.239  0.00  0.00    +0.016 C 
BRANCH  27  28
ATOM     28  C   UNL     1      34.265 -21.284 -19.697  0.00  0.00    +0.110 C 
BRANCH  28  30
ATOM     29  O   UNL     1      34.138 -23.704 -19.619  0.00  0.00    -0.250 OA
ATOM     30  C   UNL     1      33.730 -22.618 -19.229  0.00  0.00    +0.317 C 
BRANCH  30  31
ATOM     31  O   UNL     1      32.758 -22.416 -18.293  0.00  0.00    -0.452 OA
BRANCH  31  32
ATOM     32  C   UNL     1      32.756 -23.337 -17.197  0.00  0.00    +0.169 C 
ATOM     33  C   UNL     1      34.038 -23.164 -16.397  0.00  0.00    +0.047 C 
ATOM     34  C   UNL     1      31.519 -23.098 -16.345  0.00  0.00    +0.047 C 
ENDBRANCH  31  32
ENDBRANCH  30  31
ENDBRANCH  28  30
ENDBRANCH  27  28
ENDBRANCH  26  27
ENDBRANCH  25  26
ENDBRANCH  23  24
ENDBRANCH   1  23
TORSDOF 15
ENDMDL
MODEL 4
REMARK VINA RESULT:      -9.7      0.913      1.675
REMARK  Name = 9868491
REMARK  15 active torsions:
REMARK  status: ('A' for Active; 'I' for Inactive)
REMARK    1  A    between atoms: C_1  and  C_23
REMARK    2  A    between atoms: C_2  and  C_10
REMARK    3  A    between atoms: C_3  and  O_6
REMARK    4  A    between atoms: C_4  and  O_8
REMARK    5  A    between atoms: C_11  and  C_14
REMARK    6  A    between atoms: C_14  and  C_15
REMARK    7  A    between atoms: C_15  and  O_16
REMARK    8  A    between atoms: O_16  and  C_17
REMARK    9  A    between atoms: C_23  and  C_24
REMARK   10  A    between atoms: C_25  and  C_26
REMARK   11  A    between atoms: C_26  and  C_27
REMARK   12  A    between atoms: C_27  and  C_28
REMARK   13  A    between atoms: C_28  and  C_30
REMARK   14  A    between atoms: C_30  and  O_31
REMARK   15  A    between atoms: O_31  and  C_32
REMARK                            x       y       z     vdW  Elec       q    Type
REMARK                         _______ _______ _______ _____ _____    ______ ____
ROOT
ATOM      1  C   UNL     1      33.199 -13.325 -24.948  0.00  0.00    +0.038 C 
ATOM      2  C   UNL     1      34.057 -14.562 -24.633  0.00  0.00    +0.051 C 
ATOM      3  C   UNL     1      32.990 -13.449 -26.460  0.00  0.00    +0.114 C 
ATOM      4  C   UNL     1      33.467 -15.659 -25.537  0.00  0.00    +0.117 C 
ATOM      5  C   UNL     1      32.704 -14.937 -26.660  0.00  0.00    +0.059 C 
ENDROOT
BRANCH   3   6
ATOM      6  O   UNL     1      34.142 -13.065 -27.203  0.00  0.00    -0.384 OA
ATOM      7  H   UNL     1      33.929 -12.297 -27.755  0.00  0.00    +0.210 HD
ENDBRANCH   3   6
BRANCH   4   8
ATOM      8  O   UNL     1      34.512 -16.445 -26.098  0.00  0.00    -0.384 OA
ATOM      9  H   UNL     1      34.871 -15.995 -26.878  0.00  0.00    +0.210 HD
ENDBRANCH   4   8
BRANCH   2  10
ATOM     10  C   UNL     1      34.037 -14.951 -23.187  0.00  0.00    -0.023 C 
ATOM     11  C   UNL     1      34.578 -16.082 -22.712  0.00  0.00    +0.038 C 
BRANCH  11  14
ATOM     12  F   UNL     1      33.275 -16.695 -20.865  0.00  0.00    -0.196 F 
ATOM     13  F   UNL     1      35.056 -15.513 -20.461  0.00  0.00    -0.196 F 
ATOM     14  C   UNL     1      34.560 -16.489 -21.270  0.00  0.00    +0.322 C 
BRANCH  14  15
ATOM     15  C   UNL     1      35.354 -17.765 -21.036  0.00  0.00    +0.276 C 
BRANCH  15  16
ATOM     16  O   UNL     1      34.584 -18.873 -21.488  0.00  0.00    -0.469 OA
BRANCH  16  17
ATOM     17  C   UNL     1      34.548 -19.972 -20.672  0.00  0.00    +0.139 C 
ATOM     18  C   UNL     1      33.324 -20.469 -20.226  0.00  0.00    +0.037 C 
ATOM     19  C   UNL     1      35.736 -20.593 -20.286  0.00  0.00    +0.037 C 
ATOM     20  C   UNL     1      33.288 -21.589 -19.394  0.00  0.00    +0.003 C 
ATOM     21  C   UNL     1      35.700 -21.712 -19.454  0.00  0.00    +0.003 C 
ATOM     22  C   UNL     1      34.476 -22.209 -19.008  0.00  0.00    +0.000 C 
ENDBRANCH  16  17
ENDBRANCH  15  16
ENDBRANCH  14  15
ENDBRANCH  11  14
ENDBRANCH   2  10
BRANCH   1  23
ATOM     23  C   UNL     1      33.848 -12.015 -24.529  0.00  0.00    +0.028 C 
BRANCH  23  24
ATOM     24  C   UNL     1      32.997 -11.281 -23.536  0.00  0.00    -0.031 C 
ATOM     25  C   UNL     1      33.119  -9.971 -23.271  0.00  0.00    -0.031 C 
BRANCH  25  26
ATOM     26  C   UNL     1      34.124  -9.079 -23.940  0.00  0.00    +0.026 C 
BRANCH  26  27
ATOM     27  C   UNL     1      34.344  -7.756 -23.196  0.00  0.00    +0.016 C 
BRANCH  27  28
ATOM     28  C   UNL     1      33.555  -7.620 -21.892  0.00  0.00    +0.110 C 
BRANCH  28  30
ATOM     29  O   UNL     1      31.607  -6.402 -21.117  0.00  0.00    -0.250 OA
ATOM     30  C   UNL     1      32.455  -6.588 -21.980  0.00  0.00    +0.317 C 
BRANCH  30  31
ATOM     31  O   UNL     1      32.580  -5.887 -23.144  0.00  0.00    -0.452 OA
BRANCH  31  32
ATOM     32  C   UNL     1      31.386  -5.766 -23.923  0.00  0.00    +0.169 C 
ATOM     33  C   UNL     1      31.673  -4.912 -25.149  0.00  0.00    +0.047 C 
ATOM     34  C   UNL     1      30.893  -7.153 -24.302  0.00  0.00    +0.047 C 
ENDBRANCH  31  32
ENDBRANCH  30  31
ENDBRANCH  28  30
ENDBRANCH  27  28
ENDBRANCH  26  27
ENDBRANCH  25  26
ENDBRANCH  23  24
ENDBRANCH   1  23
TORSDOF 15
ENDMDL
MODEL 5
REMARK VINA RESULT:      -9.7      8.492     13.269
REMARK  Name = 9868491
REMARK  15 active torsions:
REMARK  status: ('A' for Active; 'I' for Inactive)
REMARK    1  A    between atoms: C_1  and  C_23
REMARK    2  A    between atoms: C_2  and  C_10
REMARK    3  A    between atoms: C_3  and  O_6
REMARK    4  A    between atoms: C_4  and  O_8
REMARK    5  A    between atoms: C_11  and  C_14
REMARK    6  A    between atoms: C_14  and  C_15
REMARK    7  A    between atoms: C_15  and  O_16
REMARK    8  A    between atoms: O_16  and  C_17
REMARK    9  A    between atoms: C_23  and  C_24
REMARK   10  A    between atoms: C_25  and  C_26
REMARK   11  A    between atoms: C_26  and  C_27
REMARK   12  A    between atoms: C_27  and  C_28
REMARK   13  A    between atoms: C_28  and  C_30
REMARK   14  A    between atoms: C_30  and  O_31
REMARK   15  A    between atoms: O_31  and  C_32
REMARK                            x       y       z     vdW  Elec       q    Type
REMARK                         _______ _______ _______ _____ _____    ______ ____
ROOT
ATOM      1  C   UNL     1      37.195 -24.180 -15.251  0.00  0.00    +0.038 C 
ATOM      2  C   UNL     1      36.240 -24.819 -14.230  0.00  0.00    +0.051 C 
ATOM      3  C   UNL     1      38.529 -24.855 -14.918  0.00  0.00    +0.114 C 
ATOM      4  C   UNL     1      36.699 -26.286 -14.163  0.00  0.00    +0.117 C 
ATOM      5  C   UNL     1      38.142 -26.317 -14.694  0.00  0.00    +0.059 C 
ENDROOT
BRANCH   3   6
ATOM      6  O   UNL     1      39.133 -24.320 -13.746  0.00  0.00    -0.384 OA
ATOM      7  H   UNL     1      38.457 -24.199 -13.061  0.00  0.00    +0.210 HD
ENDBRANCH   3   6
BRANCH   4   8
ATOM      8  O   UNL     1      36.676 -26.746 -12.817  0.00  0.00    -0.384 OA
ATOM      9  H   UNL     1      37.563 -26.669 -12.435  0.00  0.00    +0.210 HD
ENDBRANCH   4   8
BRANCH   2  10
ATOM     10  C   UNL     1      34.795 -24.697 -14.605  0.00  0.00    -0.023 C 
ATOM     11  C   UNL     1      34.087 -23.566 -14.483  0.00  0.00    +0.038 C 
BRANCH  11  14
ATOM     12  F   UNL     1      32.503 -23.426 -16.201  0.00  0.00    -0.196 F 
ATOM     13  F   UNL     1      32.117 -22.249 -14.414  0.00  0.00    -0.196 F 
ATOM     14  C   UNL     1      32.639 -23.429 -14.846  0.00  0.00    +0.322 C 
BRANCH  14  15
ATOM     15  C   UNL     1      31.807 -24.567 -14.277  0.00  0.00    +0.276 C 
BRANCH  15  16
ATOM     16  O   UNL     1      30.528 -24.062 -13.911  0.00  0.00    -0.469 OA
BRANCH  16  17
ATOM     17  C   UNL     1      29.656 -23.793 -14.932  0.00  0.00    +0.139 C 
ATOM     18  C   UNL     1      29.083 -22.526 -15.044  0.00  0.00    +0.037 C 
ATOM     19  C   UNL     1      29.341 -24.786 -15.860  0.00  0.00    +0.037 C 
ATOM     20  C   UNL     1      28.195 -22.252 -16.085  0.00  0.00    +0.003 C 
ATOM     21  C   UNL     1      28.453 -24.512 -16.900  0.00  0.00    +0.003 C 
ATOM     22  C   UNL     1      27.880 -23.245 -17.012  0.00  0.00    +0.000 C 
ENDBRANCH  16  17
ENDBRANCH  15  16
ENDBRANCH  14  15
ENDBRANCH  11  14
ENDBRANCH   2  10
BRANCH   1  23
ATOM     23  C   UNL     1      37.244 -22.663 -15.168  0.00  0.00    +0.028 C 
BRANCH  23  24
ATOM     24  C   UNL     1      37.681 -22.061 -16.470  0.00  0.00    -0.031 C 
ATOM     25  C   UNL     1      36.866 -21.882 -17.522  0.00  0.00    -0.031 C 
BRANCH  25  26
ATOM     26  C   UNL     1      35.414 -22.263 -17.520  0.00  0.00    +0.026 C 
BRANCH  26  27
ATOM     27  C   UNL     1      34.810 -22.341 -18.929  0.00  0.00    +0.016 C 
BRANCH  27  28
ATOM     28  C   UNL     1      33.416 -21.726 -19.058  0.00  0.00    +0.110 C 
BRANCH  28  30
ATOM     29  O   UNL     1      32.366 -19.956 -20.340  0.00  0.00    -0.250 OA
ATOM     30  C   UNL     1      33.344 -20.661 -20.127  0.00  0.00    +0.317 C 
BRANCH  30  31
ATOM     31  O   UNL     1      34.539 -20.592 -20.783  0.00  0.00    -0.452 OA
BRANCH  31  32
ATOM     32  C   UNL     1      34.905 -19.295 -21.264  0.00  0.00    +0.169 C 
ATOM     33  C   UNL     1      36.352 -19.013 -20.888  0.00  0.00    +0.047 C 
ATOM     34  C   UNL     1      34.689 -19.239 -22.768  0.00  0.00    +0.047 C 
ENDBRANCH  31  32
ENDBRANCH  30  31
ENDBRANCH  28  30
ENDBRANCH  27  28
ENDBRANCH  26  27
ENDBRANCH  25  26
ENDBRANCH  23  24
ENDBRANCH   1  23
TORSDOF 15
ENDMDL
MODEL 6
REMARK VINA RESULT:      -9.6      1.870      2.724
REMARK  Name = 9868491
REMARK  15 active torsions:
REMARK  status: ('A' for Active; 'I' for Inactive)
REMARK    1  A    between atoms: C_1  and  C_23
REMARK    2  A    between atoms: C_2  and  C_10
REMARK    3  A    between atoms: C_3  and  O_6
REMARK    4  A    between atoms: C_4  and  O_8
REMARK    5  A    between atoms: C_11  and  C_14
REMARK    6  A    between atoms: C_14  and  C_15
REMARK    7  A    between atoms: C_15  and  O_16
REMARK    8  A    between atoms: O_16  and  C_17
REMARK    9  A    between atoms: C_23  and  C_24
REMARK   10  A    between atoms: C_25  and  C_26
REMARK   11  A    between atoms: C_26  and  C_27
REMARK   12  A    between atoms: C_27  and  C_28
REMARK   13  A    between atoms: C_28  and  C_30
REMARK   14  A    between atoms: C_30  and  O_31
REMARK   15  A    between atoms: O_31  and  C_32
REMARK                            x       y       z     vdW  Elec       q    Type
REMARK                         _______ _______ _______ _____ _____    ______ ____
ROOT
ATOM      1  C   UNL     1      33.408 -13.233 -24.972  0.00  0.00    +0.038 C 
ATOM      2  C   UNL     1      34.201 -14.512 -24.656  0.00  0.00    +0.051 C 
ATOM      3  C   UNL     1      33.057 -13.423 -26.451  0.00  0.00    +0.114 C 
ATOM      4  C   UNL     1      33.459 -15.609 -25.439  0.00  0.00    +0.117 C 
ATOM      5  C   UNL     1      32.652 -14.894 -26.535  0.00  0.00    +0.059 C 
ENDROOT
BRANCH   3   6
ATOM      6  O   UNL     1      34.163 -13.167 -27.310  0.00  0.00    -0.384 OA
ATOM      7  H   UNL     1      34.210 -13.856 -27.990  0.00  0.00    +0.210 HD
ENDBRANCH   3   6
BRANCH   4   8
ATOM      8  O   UNL     1      34.392 -16.500 -26.038  0.00  0.00    -0.384 OA
ATOM      9  H   UNL     1      34.079 -17.412 -25.936  0.00  0.00    +0.210 HD
ENDBRANCH   4   8
BRANCH   2  10
ATOM     10  C   UNL     1      34.283 -14.819 -23.193  0.00  0.00    -0.023 C 
ATOM     11  C   UNL     1      34.283 -16.062 -22.692  0.00  0.00    +0.038 C 
BRANCH  11  14
ATOM     12  F   UNL     1      33.123 -16.744 -20.776  0.00  0.00    -0.196 F 
ATOM     13  F   UNL     1      34.732 -15.308 -20.490  0.00  0.00    -0.196 F 
ATOM     14  C   UNL     1      34.356 -16.387 -21.230  0.00  0.00    +0.322 C 
BRANCH  14  15
ATOM     15  C   UNL     1      35.325 -17.526 -20.956  0.00  0.00    +0.276 C 
BRANCH  15  16
ATOM     16  O   UNL     1      34.841 -18.703 -21.594  0.00  0.00    -0.469 OA
BRANCH  16  17
ATOM     17  C   UNL     1      34.650 -19.801 -20.798  0.00  0.00    +0.139 C 
ATOM     18  C   UNL     1      35.745 -20.548 -20.365  0.00  0.00    +0.037 C 
ATOM     19  C   UNL     1      33.359 -20.173 -20.422  0.00  0.00    +0.037 C 
ATOM     20  C   UNL     1      35.549 -21.667 -19.554  0.00  0.00    +0.003 C 
ATOM     21  C   UNL     1      33.163 -21.291 -19.612  0.00  0.00    +0.003 C 
ATOM     22  C   UNL     1      34.258 -22.038 -19.179  0.00  0.00    +0.000 C 
ENDBRANCH  16  17
ENDBRANCH  15  16
ENDBRANCH  14  15
ENDBRANCH  11  14
ENDBRANCH   2  10
BRANCH   1  23
ATOM     23  C   UNL     1      34.181 -11.955 -24.689  0.00  0.00    +0.028 C 
BRANCH  23  24
ATOM     24  C   UNL     1      33.254 -10.808 -24.417  0.00  0.00    -0.031 C 
ATOM     25  C   UNL     1      32.405 -10.764 -23.379  0.00  0.00    -0.031 C 
BRANCH  25  26
ATOM     26  C   UNL     1      32.281 -11.859 -22.360  0.00  0.00    +0.026 C 
BRANCH  26  27
ATOM     27  C   UNL     1      31.570 -11.410 -21.077  0.00  0.00    +0.016 C 
BRANCH  27  28
ATOM     28  C   UNL     1      31.413  -9.895 -20.933  0.00  0.00    +0.110 C 
BRANCH  28  30
ATOM     29  O   UNL     1      32.431  -9.965 -18.734  0.00  0.00    -0.250 OA
ATOM     30  C   UNL     1      32.175  -9.338 -19.753  0.00  0.00    +0.317 C 
BRANCH  30  31
ATOM     31  O   UNL     1      32.552  -8.054 -20.020  0.00  0.00    -0.452 OA
BRANCH  31  32
ATOM     32  C   UNL     1      32.311  -7.606 -21.358  0.00  0.00    +0.169 C 
ATOM     33  C   UNL     1      31.646  -6.238 -21.315  0.00  0.00    +0.047 C 
ATOM     34  C   UNL     1      33.628  -7.572 -22.118  0.00  0.00    +0.047 C 
ENDBRANCH  31  32
ENDBRANCH  30  31
ENDBRANCH  28  30
ENDBRANCH  27  28
ENDBRANCH  26  27
ENDBRANCH  25  26
ENDBRANCH  23  24
ENDBRANCH   1  23
TORSDOF 15
ENDMDL
MODEL 7
REMARK VINA RESULT:      -9.5      3.275      5.171
REMARK  Name = 9868491
REMARK  15 active torsions:
REMARK  status: ('A' for Active; 'I' for Inactive)
REMARK    1  A    between atoms: C_1  and  C_23
REMARK    2  A    between atoms: C_2  and  C_10
REMARK    3  A    between atoms: C_3  and  O_6
REMARK    4  A    between atoms: C_4  and  O_8
REMARK    5  A    between atoms: C_11  and  C_14
REMARK    6  A    between atoms: C_14  and  C_15
REMARK    7  A    between atoms: C_15  and  O_16
REMARK    8  A    between atoms: O_16  and  C_17
REMARK    9  A    between atoms: C_23  and  C_24
REMARK   10  A    between atoms: C_25  and  C_26
REMARK   11  A    between atoms: C_26  and  C_27
REMARK   12  A    between atoms: C_27  and  C_28
REMARK   13  A    between atoms: C_28  and  C_30
REMARK   14  A    between atoms: C_30  and  O_31
REMARK   15  A    between atoms: O_31  and  C_32
REMARK                            x       y       z     vdW  Elec       q    Type
REMARK                         _______ _______ _______ _____ _____    ______ ____
ROOT
ATOM      1  C   UNL     1      33.986 -16.703 -22.281  0.00  0.00    +0.038 C 
ATOM      2  C   UNL     1      34.581 -18.119 -22.200  0.00  0.00    +0.051 C 
ATOM      3  C   UNL     1      34.481 -16.219 -23.647  0.00  0.00    +0.114 C 
ATOM      4  C   UNL     1      34.441 -18.661 -23.633  0.00  0.00    +0.117 C 
ATOM      5  C   UNL     1      34.284 -17.437 -24.550  0.00  0.00    +0.059 C 
ENDROOT
BRANCH   3   6
ATOM      6  O   UNL     1      35.852 -15.838 -23.627  0.00  0.00    -0.384 OA
ATOM      7  H   UNL     1      36.077 -15.398 -24.460  0.00  0.00    +0.210 HD
ENDBRANCH   3   6
BRANCH   4   8
ATOM      8  O   UNL     1      35.609 -19.385 -23.999  0.00  0.00    -0.384 OA
ATOM      9  H   UNL     1      35.914 -19.910 -23.243  0.00  0.00    +0.210 HD
ENDBRANCH   4   8
BRANCH   2  10
ATOM     10  C   UNL     1      33.901 -18.997 -21.195  0.00  0.00    -0.023 C 
ATOM     11  C   UNL     1      34.332 -20.221 -20.862  0.00  0.00    +0.038 C 
BRANCH  11  14
ATOM     12  F   UNL     1      32.996 -22.112 -20.514  0.00  0.00    -0.196 F 
ATOM     13  F   UNL     1      32.719 -20.449 -19.140  0.00  0.00    -0.196 F 
ATOM     14  C   UNL     1      33.659 -21.115 -19.865  0.00  0.00    +0.322 C 
BRANCH  14  15
ATOM     15  C   UNL     1      34.660 -21.740 -18.905  0.00  0.00    +0.276 C 
BRANCH  15  16
ATOM     16  O   UNL     1      34.191 -23.031 -18.532  0.00  0.00    -0.469 OA
BRANCH  16  17
ATOM     17  C   UNL     1      33.642 -23.150 -17.284  0.00  0.00    +0.139 C 
ATOM     18  C   UNL     1      32.258 -23.075 -17.121  0.00  0.00    +0.037 C 
ATOM     19  C   UNL     1      34.465 -23.343 -16.175  0.00  0.00    +0.037 C 
ATOM     20  C   UNL     1      31.699 -23.196 -15.848  0.00  0.00    +0.003 C 
ATOM     21  C   UNL     1      33.906 -23.464 -14.903  0.00  0.00    +0.003 C 
ATOM     22  C   UNL     1      32.522 -23.389 -14.740  0.00  0.00    +0.000 C 
ENDBRANCH  16  17
ENDBRANCH  15  16
ENDBRANCH  14  15
ENDBRANCH  11  14
ENDBRANCH   2  10
BRANCH   1  23
ATOM     23  C   UNL     1      34.403 -15.803 -21.129  0.00  0.00    +0.028 C 
BRANCH  23  24
ATOM     24  C   UNL     1      33.221 -15.406 -20.296  0.00  0.00    -0.031 C 
ATOM     25  C   UNL     1      32.421 -14.367 -20.582  0.00  0.00    -0.031 C 
BRANCH  25  26
ATOM     26  C   UNL     1      32.612 -13.475 -21.774  0.00  0.00    +0.026 C 
BRANCH  26  27
ATOM     27  C   UNL     1      31.854 -12.146 -21.660  0.00  0.00    +0.016 C 
BRANCH  27  28
ATOM     28  C   UNL     1      31.526 -11.722 -20.227  0.00  0.00    +0.110 C 
BRANCH  28  30
ATOM     29  O   UNL     1      32.408  -9.891 -18.905  0.00  0.00    -0.250 OA
ATOM     30  C   UNL     1      31.894 -10.284 -19.944  0.00  0.00    +0.317 C 
BRANCH  30  31
ATOM     31  O   UNL     1      31.594  -9.515 -21.031  0.00  0.00    -0.452 OA
BRANCH  31  32
ATOM     32  C   UNL     1      32.571  -8.529 -21.378  0.00  0.00    +0.169 C 
ATOM     33  C   UNL     1      33.019  -8.753 -22.815  0.00  0.00    +0.047 C 
ATOM     34  C   UNL     1      31.976  -7.144 -21.179  0.00  0.00    +0.047 C 
ENDBRANCH  31  32
ENDBRANCH  30  31
ENDBRANCH  28  30
ENDBRANCH  27  28
ENDBRANCH  26  27
ENDBRANCH  25  26
ENDBRANCH  23  24
ENDBRANCH   1  23
TORSDOF 15
ENDMDL
MODEL 8
REMARK VINA RESULT:      -9.5      6.669     12.050
REMARK  Name = 9868491
REMARK  15 active torsions:
REMARK  status: ('A' for Active; 'I' for Inactive)
REMARK    1  A    between atoms: C_1  and  C_23
REMARK    2  A    between atoms: C_2  and  C_10
REMARK    3  A    between atoms: C_3  and  O_6
REMARK    4  A    between atoms: C_4  and  O_8
REMARK    5  A    between atoms: C_11  and  C_14
REMARK    6  A    between atoms: C_14  and  C_15
REMARK    7  A    between atoms: C_15  and  O_16
REMARK    8  A    between atoms: O_16  and  C_17
REMARK    9  A    between atoms: C_23  and  C_24
REMARK   10  A    between atoms: C_25  and  C_26
REMARK   11  A    between atoms: C_26  and  C_27
REMARK   12  A    between atoms: C_27  and  C_28
REMARK   13  A    between atoms: C_28  and  C_30
REMARK   14  A    between atoms: C_30  and  O_31
REMARK   15  A    between atoms: O_31  and  C_32
REMARK                            x       y       z     vdW  Elec       q    Type
REMARK                         _______ _______ _______ _____ _____    ______ ____
ROOT
ATOM      1  C   UNL     1      32.654 -22.885 -16.133  0.00  0.00    +0.038 C 
ATOM      2  C   UNL     1      33.416 -24.009 -15.412  0.00  0.00    +0.051 C 
ATOM      3  C   UNL     1      31.316 -22.868 -15.388  0.00  0.00    +0.114 C 
ATOM      4  C   UNL     1      33.025 -23.832 -13.935  0.00  0.00    +0.117 C 
ATOM      5  C   UNL     1      31.721 -23.017 -13.922  0.00  0.00    +0.059 C 
ENDROOT
BRANCH   3   6
ATOM      6  O   UNL     1      30.464 -23.940 -15.775  0.00  0.00    -0.384 OA
ATOM      7  H   UNL     1      30.985 -24.621 -16.226  0.00  0.00    +0.210 HD
ENDBRANCH   3   6
BRANCH   4   8
ATOM      8  O   UNL     1      32.801 -25.101 -13.331  0.00  0.00    -0.384 OA
ATOM      9  H   UNL     1      33.003 -25.048 -12.385  0.00  0.00    +0.210 HD
ENDBRANCH   4   8
BRANCH   2  10
ATOM     10  C   UNL     1      34.898 -23.953 -15.615  0.00  0.00    -0.023 C 
ATOM     11  C   UNL     1      35.604 -22.813 -15.644  0.00  0.00    +0.038 C 
BRANCH  11  14
ATOM     12  F   UNL     1      37.594 -21.674 -15.173  0.00  0.00    -0.196 F 
ATOM     13  F   UNL     1      37.405 -22.536 -17.160  0.00  0.00    -0.196 F 
ATOM     14  C   UNL     1      37.086 -22.739 -15.852  0.00  0.00    +0.322 C 
BRANCH  14  15
ATOM     15  C   UNL     1      37.785 -24.001 -15.372  0.00  0.00    +0.276 C 
BRANCH  15  16
ATOM     16  O   UNL     1      38.365 -23.747 -14.097  0.00  0.00    -0.469 OA
BRANCH  16  17
ATOM     17  C   UNL     1      37.549 -23.896 -13.008  0.00  0.00    +0.139 C 
ATOM     18  C   UNL     1      37.495 -22.899 -12.034  0.00  0.00    +0.037 C 
ATOM     19  C   UNL     1      36.772 -25.047 -12.871  0.00  0.00    +0.037 C 
ATOM     20  C   UNL     1      36.663 -23.051 -10.924  0.00  0.00    +0.003 C 
ATOM     21  C   UNL     1      35.940 -25.199 -11.762  0.00  0.00    +0.003 C 
ATOM     22  C   UNL     1      35.887 -24.202 -10.788  0.00  0.00    +0.000 C 
ENDBRANCH  16  17
ENDBRANCH  15  16
ENDBRANCH  14  15
ENDBRANCH  11  14
ENDBRANCH   2  10
BRANCH   1  23
ATOM     23  C   UNL     1      32.515 -23.109 -17.630  0.00  0.00    +0.028 C 
BRANCH  23  24
ATOM     24  C   UNL     1      33.806 -22.837 -18.342  0.00  0.00    -0.031 C 
ATOM     25  C   UNL     1      33.973 -21.851 -19.237  0.00  0.00    -0.031 C 
BRANCH  25  26
ATOM     26  C   UNL     1      32.884 -20.897 -19.633  0.00  0.00    +0.026 C 
BRANCH  26  27
ATOM     27  C   UNL     1      33.328 -19.884 -20.696  0.00  0.00    +0.016 C 
BRANCH  27  28
ATOM     28  C   UNL     1      34.839 -19.827 -20.928  0.00  0.00    +0.110 C 
BRANCH  28  30
ATOM     29  O   UNL     1      35.407 -17.496 -20.582  0.00  0.00    -0.250 OA
ATOM     30  C   UNL     1      35.316 -18.454 -21.338  0.00  0.00    +0.317 C 
BRANCH  30  31
ATOM     31  O   UNL     1      35.654 -18.465 -22.661  0.00  0.00    -0.452 OA
BRANCH  31  32
ATOM     32  C   UNL     1      34.650 -17.978 -23.558  0.00  0.00    +0.169 C 
ATOM     33  C   UNL     1      35.016 -16.568 -23.998  0.00  0.00    +0.047 C 
ATOM     34  C   UNL     1      34.531 -18.928 -24.739  0.00  0.00    +0.047 C 
ENDBRANCH  31  32
ENDBRANCH  30  31
ENDBRANCH  28  30
ENDBRANCH  27  28
ENDBRANCH  26  27
ENDBRANCH  25  26
ENDBRANCH  23  24
ENDBRANCH   1  23
TORSDOF 15
ENDMDL
MODEL 9
REMARK VINA RESULT:      -9.4      2.778      4.288
REMARK  Name = 9868491
REMARK  15 active torsions:
REMARK  status: ('A' for Active; 'I' for Inactive)
REMARK    1  A    between atoms: C_1  and  C_23
REMARK    2  A    between atoms: C_2  and  C_10
REMARK    3  A    between atoms: C_3  and  O_6
REMARK    4  A    between atoms: C_4  and  O_8
REMARK    5  A    between atoms: C_11  and  C_14
REMARK    6  A    between atoms: C_14  and  C_15
REMARK    7  A    between atoms: C_15  and  O_16
REMARK    8  A    between atoms: O_16  and  C_17
REMARK    9  A    between atoms: C_23  and  C_24
REMARK   10  A    between atoms: C_25  and  C_26
REMARK   11  A    between atoms: C_26  and  C_27
REMARK   12  A    between atoms: C_27  and  C_28
REMARK   13  A    between atoms: C_28  and  C_30
REMARK   14  A    between atoms: C_30  and  O_31
REMARK   15  A    between atoms: O_31  and  C_32
REMARK                            x       y       z     vdW  Elec       q    Type
REMARK                         _______ _______ _______ _____ _____    ______ ____
ROOT
ATOM      1  C   UNL     1      32.707 -10.133 -22.070  0.00  0.00    +0.038 C 
ATOM      2  C   UNL     1      31.642 -11.103 -21.535  0.00  0.00    +0.051 C 
ATOM      3  C   UNL     1      32.344  -8.825 -21.360  0.00  0.00    +0.114 C 
ATOM      4  C   UNL     1      31.489 -10.705 -20.057  0.00  0.00    +0.117 C 
ATOM      5  C   UNL     1      32.028  -9.270 -19.933  0.00  0.00    +0.059 C 
ENDROOT
BRANCH   3   6
ATOM      6  O   UNL     1      31.211  -8.187 -21.939  0.00  0.00    -0.384 OA
ATOM      7  H   UNL     1      30.422  -8.392 -21.414  0.00  0.00    +0.210 HD
ENDBRANCH   3   6
BRANCH   4   8
ATOM      8  O   UNL     1      30.117 -10.734 -19.680  0.00  0.00    -0.384 OA
ATOM      9  H   UNL     1      29.564 -10.707 -20.476  0.00  0.00    +0.210 HD
ENDBRANCH   4   8
BRANCH   2  10
ATOM     10  C   UNL     1      32.012 -12.545 -21.695  0.00  0.00    -0.023 C 
ATOM     11  C   UNL     1      32.612 -13.271 -20.742  0.00  0.00    +0.038 C 
BRANCH  11  14
ATOM     12  F   UNL     1      32.407 -15.234 -22.001  0.00  0.00    -0.196 F 
ATOM     13  F   UNL     1      32.553 -15.465 -19.844  0.00  0.00    -0.196 F 
ATOM     14  C   UNL     1      32.995 -14.713 -20.889  0.00  0.00    +0.322 C 
BRANCH  14  15
ATOM     15  C   UNL     1      34.501 -14.885 -21.009  0.00  0.00    +0.276 C 
BRANCH  15  16
ATOM     16  O   UNL     1      34.853 -16.183 -20.544  0.00  0.00    -0.469 OA
BRANCH  16  17
ATOM     17  C   UNL     1      34.863 -17.188 -21.474  0.00  0.00    +0.139 C 
ATOM     18  C   UNL     1      35.239 -16.918 -22.790  0.00  0.00    +0.037 C 
ATOM     19  C   UNL     1      34.496 -18.482 -21.105  0.00  0.00    +0.037 C 
ATOM     20  C   UNL     1      35.249 -17.943 -23.737  0.00  0.00    +0.003 C 
ATOM     21  C   UNL     1      34.506 -19.507 -22.052  0.00  0.00    +0.003 C 
ATOM     22  C   UNL     1      34.881 -19.236 -23.368  0.00  0.00    +0.000 C 
ENDBRANCH  16  17
ENDBRANCH  15  16
ENDBRANCH  14  15
ENDBRANCH  11  14
ENDBRANCH   2  10
BRANCH   1  23
ATOM     23  C   UNL     1      32.717 -10.020 -23.586  0.00  0.00    +0.028 C 
BRANCH  23  24
ATOM     24  C   UNL     1      34.115 -10.077 -24.126  0.00  0.00    -0.031 C 
ATOM     25  C   UNL     1      34.905  -9.002 -24.270  0.00  0.00    -0.031 C 
BRANCH  25  26
ATOM     26  C   UNL     1      34.484  -7.608 -23.906  0.00  0.00    +0.026 C 
BRANCH  26  27
ATOM     27  C   UNL     1      34.500  -6.643 -25.100  0.00  0.00    +0.016 C 
BRANCH  27  28
ATOM     28  C   UNL     1      33.292  -5.708 -25.177  0.00  0.00    +0.110 C 
BRANCH  28  30
ATOM     29  O   UNL     1      31.358  -7.086 -24.686  0.00  0.00    -0.250 OA
ATOM     30  C   UNL     1      32.124  -6.193 -24.350  0.00  0.00    +0.317 C 
BRANCH  30  31
ATOM     31  O   UNL     1      32.084  -5.504 -23.172  0.00  0.00    -0.452 OA
BRANCH  31  32
ATOM     32  C   UNL     1      30.914  -4.705 -22.965  0.00  0.00    +0.169 C 
ATOM     33  C   UNL     1      30.383  -4.952 -21.561  0.00  0.00    +0.047 C 
ATOM     34  C   UNL     1      31.262  -3.242 -23.189  0.00  0.00    +0.047 C 
ENDBRANCH  31  32
ENDBRANCH  30  31
ENDBRANCH  28  30
ENDBRANCH  27  28
ENDBRANCH  26  27
ENDBRANCH  25  26
ENDBRANCH  23  24
ENDBRANCH   1  23
TORSDOF 15
ENDMDL
