MODEL 1
REMARK VINA RESULT:      -5.4      0.000      0.000
REMARK  Name = 59098743
REMARK  3 active torsions:
REMARK  status: ('A' for Active; 'I' for Inactive)
REMARK    1  A    between atoms: N_1  and  C_10
REMARK    2  A    between atoms: C_3  and  N_6
REMARK    3  A    between atoms: C_10  and  C_13
REMARK                            x       y       z     vdW  Elec       q    Type
REMARK                         _______ _______ _______ _____ _____    ______ ____
ROOT
ATOM      1  N   UNL     1      38.007 -25.730 -14.107  0.00  0.00    -0.310 N 
ATOM      2  N   UNL     1      38.314 -24.460 -12.101  0.00  0.00    -0.270 NA
ATOM      3  C   UNL     1      37.779 -25.437 -12.767  0.00  0.00    +0.174 C 
ATOM      4  C   UNL     1      37.342 -26.861 -14.747  0.00  0.00    +0.129 C 
ATOM      5  H   UNL     1      38.944 -23.848 -12.544  0.00  0.00    +0.190 HD
ENDROOT
BRANCH   3   6
ATOM      6  N   UNL     1      36.852 -26.295 -12.024  0.00  0.00    -0.434 NA
ATOM      7  H   UNL     1      37.099 -26.630 -11.132  0.00  0.00    +0.134 HD
ATOM      8  H   UNL     1      35.982 -26.535 -12.417  0.00  0.00    +0.134 HD
ATOM      9  H   UNL     1      36.637 -27.052 -12.615  0.00  0.00    +0.134 HD
ENDBRANCH   3   6
BRANCH   1  10
ATOM     10  C   UNL     1      38.741 -24.833 -14.993  0.00  0.00    +0.219 C 
BRANCH  10  13
ATOM     11  O   UNL     1      40.536 -26.073 -15.876  0.00  0.00    -0.243 OA
ATOM     12  O   UNL     1      40.877 -24.803 -14.004  0.00  0.00    -0.243 OA
ATOM     13  C   UNL     1      40.192 -25.284 -14.951  0.00  0.00    +0.387 C 
ENDBRANCH  10  13
ENDBRANCH   1  10
TORSDOF 3
ENDMDL
MODEL 2
REMARK VINA RESULT:      -5.4      1.047      1.868
REMARK  Name = 59098743
REMARK  3 active torsions:
REMARK  status: ('A' for Active; 'I' for Inactive)
REMARK    1  A    between atoms: N_1  and  C_10
REMARK    2  A    between atoms: C_3  and  N_6
REMARK    3  A    between atoms: C_10  and  C_13
REMARK                            x       y       z     vdW  Elec       q    Type
REMARK                         _______ _______ _______ _____ _____    ______ ____
ROOT
ATOM      1  N   UNL     1      38.105 -25.042 -13.467  0.00  0.00    -0.310 N 
ATOM      2  N   UNL     1      36.873 -26.998 -14.090  0.00  0.00    -0.270 NA
ATOM      3  C   UNL     1      37.288 -26.138 -13.212  0.00  0.00    +0.174 C 
ATOM      4  C   UNL     1      38.506 -24.143 -12.389  0.00  0.00    +0.129 C 
ATOM      5  H   UNL     1      37.134 -26.903 -15.034  0.00  0.00    +0.190 HD
ENDROOT
BRANCH   3   6
ATOM      6  N   UNL     1      36.850 -26.360 -11.831  0.00  0.00    -0.434 NA
ATOM      7  H   UNL     1      36.685 -25.592 -11.238  0.00  0.00    +0.134 HD
ATOM      8  H   UNL     1      36.718 -27.277 -11.498  0.00  0.00    +0.134 HD
ATOM      9  H   UNL     1      37.511 -26.962 -11.420  0.00  0.00    +0.134 HD
ENDBRANCH   3   6
BRANCH   1  10
ATOM     10  C   UNL     1      38.766 -24.839 -14.752  0.00  0.00    +0.219 C 
BRANCH  10  13
ATOM     11  O   UNL     1      40.070 -26.797 -14.681  0.00  0.00    -0.243 OA
ATOM     12  O   UNL     1      41.111 -24.764 -14.571  0.00  0.00    -0.243 OA
ATOM     13  C   UNL     1      40.113 -25.535 -14.654  0.00  0.00    +0.387 C 
ENDBRANCH  10  13
ENDBRANCH   1  10
TORSDOF 3
ENDMDL
MODEL 3
REMARK VINA RESULT:      -5.4      3.087      3.983
REMARK  Name = 59098743
REMARK  3 active torsions:
REMARK  status: ('A' for Active; 'I' for Inactive)
REMARK    1  A    between atoms: N_1  and  C_10
REMARK    2  A    between atoms: C_3  and  N_6
REMARK    3  A    between atoms: C_10  and  C_13
REMARK                            x       y       z     vdW  Elec       q    Type
REMARK                         _______ _______ _______ _____ _____    ______ ____
ROOT
ATOM      1  N   UNL     1      36.586 -25.272 -14.521  0.00  0.00    -0.310 N 
ATOM      2  N   UNL     1      38.470 -26.748 -14.572  0.00  0.00    -0.270 NA
ATOM      3  C   UNL     1      37.312 -26.355 -15.005  0.00  0.00    +0.174 C 
ATOM      4  C   UNL     1      35.288 -24.927 -15.093  0.00  0.00    +0.129 C 
ATOM      5  H   UNL     1      38.911 -26.266 -13.837  0.00  0.00    +0.190 HD
ENDROOT
BRANCH   3   6
ATOM      6  N   UNL     1      36.731 -27.134 -16.101  0.00  0.00    -0.434 NA
ATOM      7  H   UNL     1      36.932 -28.095 -16.183  0.00  0.00    +0.134 HD
ATOM      8  H   UNL     1      36.138 -26.698 -16.755  0.00  0.00    +0.134 HD
ATOM      9  H   UNL     1      36.976 -26.672 -16.935  0.00  0.00    +0.134 HD
ENDBRANCH   3   6
BRANCH   1  10
ATOM     10  C   UNL     1      36.963 -24.554 -13.307  0.00  0.00    +0.219 C 
BRANCH  10  13
ATOM     11  O   UNL     1      35.261 -24.869 -11.712  0.00  0.00    -0.243 OA
ATOM     12  O   UNL     1      37.014 -26.336 -11.770  0.00  0.00    -0.243 OA
ATOM     13  C   UNL     1      36.356 -25.326 -12.148  0.00  0.00    +0.387 C 
ENDBRANCH  10  13
ENDBRANCH   1  10
TORSDOF 3
ENDMDL
MODEL 4
REMARK VINA RESULT:      -5.4      1.474      2.228
REMARK  Name = 59098743
REMARK  3 active torsions:
REMARK  status: ('A' for Active; 'I' for Inactive)
REMARK    1  A    between atoms: N_1  and  C_10
REMARK    2  A    between atoms: C_3  and  N_6
REMARK    3  A    between atoms: C_10  and  C_13
REMARK                            x       y       z     vdW  Elec       q    Type
REMARK                         _______ _______ _______ _____ _____    ______ ____
ROOT
ATOM      1  N   UNL     1      37.875 -25.139 -14.473  0.00  0.00    -0.310 N 
ATOM      2  N   UNL     1      37.064 -27.320 -13.912  0.00  0.00    -0.270 NA
ATOM      3  C   UNL     1      36.958 -26.183 -14.527  0.00  0.00    +0.174 C 
ATOM      4  C   UNL     1      37.643 -23.902 -15.213  0.00  0.00    +0.129 C 
ATOM      5  H   UNL     1      37.849 -27.503 -13.346  0.00  0.00    +0.190 HD
ENDROOT
BRANCH   3   6
ATOM      6  N   UNL     1      35.757 -26.000 -15.345  0.00  0.00    -0.434 NA
ATOM      7  H   UNL     1      35.043 -26.677 -15.331  0.00  0.00    +0.134 HD
ATOM      8  H   UNL     1      35.663 -25.198 -15.908  0.00  0.00    +0.134 HD
ATOM      9  H   UNL     1      36.065 -25.862 -16.270  0.00  0.00    +0.134 HD
ENDBRANCH   3   6
BRANCH   1  10
ATOM     10  C   UNL     1      38.995 -25.126 -13.538  0.00  0.00    +0.219 C 
BRANCH  10  13
ATOM     11  O   UNL     1      40.198 -26.839 -14.614  0.00  0.00    -0.243 OA
ATOM     12  O   UNL     1      41.068 -24.724 -14.577  0.00  0.00    -0.243 OA
ATOM     13  C   UNL     1      40.207 -25.611 -14.315  0.00  0.00    +0.387 C 
ENDBRANCH  10  13
ENDBRANCH   1  10
TORSDOF 3
ENDMDL
MODEL 5
REMARK VINA RESULT:      -5.3      2.898      3.622
REMARK  Name = 59098743
REMARK  3 active torsions:
REMARK  status: ('A' for Active; 'I' for Inactive)
REMARK    1  A    between atoms: N_1  and  C_10
REMARK    2  A    between atoms: C_3  and  N_6
REMARK    3  A    between atoms: C_10  and  C_13
REMARK                            x       y       z     vdW  Elec       q    Type
REMARK                         _______ _______ _______ _____ _____    ______ ____
ROOT
ATOM      1  N   UNL     1      37.093 -24.412 -14.111  0.00  0.00    -0.310 N 
ATOM      2  N   UNL     1      36.752 -26.649 -13.330  0.00  0.00    -0.270 NA
ATOM      3  C   UNL     1      37.093 -25.797 -14.246  0.00  0.00    +0.174 C 
ATOM      4  C   UNL     1      37.500 -23.554 -15.220  0.00  0.00    +0.129 C 
ATOM      5  H   UNL     1      36.461 -26.332 -12.445  0.00  0.00    +0.190 HD
ENDROOT
BRANCH   3   6
ATOM      6  N   UNL     1      37.511 -26.360 -15.532  0.00  0.00    -0.434 NA
ATOM      7  H   UNL     1      36.949 -26.233 -16.330  0.00  0.00    +0.134 HD
ATOM      8  H   UNL     1      38.354 -26.865 -15.597  0.00  0.00    +0.134 HD
ATOM      9  H   UNL     1      37.661 -27.321 -15.381  0.00  0.00    +0.134 HD
ENDBRANCH   3   6
BRANCH   1  10
ATOM     10  C   UNL     1      36.507 -23.736 -12.959  0.00  0.00    +0.219 C 
BRANCH  10  13
ATOM     11  O   UNL     1      38.179 -22.424 -11.948  0.00  0.00    -0.243 OA
ATOM     12  O   UNL     1      37.863 -24.571 -11.226  0.00  0.00    -0.243 OA
ATOM     13  C   UNL     1      37.628 -23.561 -11.949  0.00  0.00    +0.387 C 
ENDBRANCH  10  13
ENDBRANCH   1  10
TORSDOF 3
ENDMDL
MODEL 6
REMARK VINA RESULT:      -5.2      2.612      3.724
REMARK  Name = 59098743
REMARK  3 active torsions:
REMARK  status: ('A' for Active; 'I' for Inactive)
REMARK    1  A    between atoms: N_1  and  C_10
REMARK    2  A    between atoms: C_3  and  N_6
REMARK    3  A    between atoms: C_10  and  C_13
REMARK                            x       y       z     vdW  Elec       q    Type
REMARK                         _______ _______ _______ _____ _____    ______ ____
ROOT
ATOM      1  N   UNL     1      37.376 -24.859 -13.638  0.00  0.00    -0.310 N 
ATOM      2  N   UNL     1      38.371 -23.670 -15.462  0.00  0.00    -0.270 NA
ATOM      3  C   UNL     1      38.185 -24.747 -14.764  0.00  0.00    +0.174 C 
ATOM      4  C   UNL     1      37.247 -26.132 -12.935  0.00  0.00    +0.129 C 
ATOM      5  H   UNL     1      37.917 -22.834 -15.209  0.00  0.00    +0.190 HD
ENDROOT
BRANCH   3   6
ATOM      6  N   UNL     1      38.903 -25.942 -15.214  0.00  0.00    -0.434 NA
ATOM      7  H   UNL     1      39.072 -26.083 -16.174  0.00  0.00    +0.134 HD
ATOM      8  H   UNL     1      39.217 -26.605 -14.557  0.00  0.00    +0.134 HD
ATOM      9  H   UNL     1      38.418 -26.716 -14.846  0.00  0.00    +0.134 HD
ENDBRANCH   3   6
BRANCH   1  10
ATOM     10  C   UNL     1      36.781 -23.700 -12.981  0.00  0.00    +0.219 C 
BRANCH  10  13
ATOM     11  O   UNL     1      38.683 -23.124 -11.720  0.00  0.00    -0.243 OA
ATOM     12  O   UNL     1      36.810 -23.859 -10.633  0.00  0.00    -0.243 OA
ATOM     13  C   UNL     1      37.496 -23.550 -11.649  0.00  0.00    +0.387 C 
ENDBRANCH  10  13
ENDBRANCH   1  10
TORSDOF 3
ENDMDL
MODEL 7
REMARK VINA RESULT:      -5.0     10.367     11.240
REMARK  Name = 59098743
REMARK  3 active torsions:
REMARK  status: ('A' for Active; 'I' for Inactive)
REMARK    1  A    between atoms: N_1  and  C_10
REMARK    2  A    between atoms: C_3  and  N_6
REMARK    3  A    between atoms: C_10  and  C_13
REMARK                            x       y       z     vdW  Elec       q    Type
REMARK                         _______ _______ _______ _____ _____    ______ ____
ROOT
ATOM      1  N   UNL     1      41.457 -14.218 -16.431  0.00  0.00    -0.310 N 
ATOM      2  N   UNL     1      40.233 -15.799 -15.113  0.00  0.00    -0.270 NA
ATOM      3  C   UNL     1      40.844 -14.664 -15.265  0.00  0.00    +0.174 C 
ATOM      4  C   UNL     1      42.115 -12.916 -16.477  0.00  0.00    +0.129 C 
ATOM      5  H   UNL     1      40.174 -16.431 -15.865  0.00  0.00    +0.190 HD
ENDROOT
BRANCH   3   6
ATOM      6  N   UNL     1      40.883 -13.788 -14.091  0.00  0.00    -0.434 NA
ATOM      7  H   UNL     1      41.133 -14.154 -13.212  0.00  0.00    +0.134 HD
ATOM      8  H   UNL     1      40.660 -12.833 -14.182  0.00  0.00    +0.134 HD
ATOM      9  H   UNL     1      39.999 -13.358 -14.033  0.00  0.00    +0.134 HD
ENDBRANCH   3   6
BRANCH   1  10
ATOM     10  C   UNL     1      41.660 -15.081 -17.590  0.00  0.00    +0.219 C 
BRANCH  10  13
ATOM     11  O   UNL     1      41.861 -17.402 -17.252  0.00  0.00    -0.243 OA
ATOM     12  O   UNL     1      43.569 -16.031 -16.593  0.00  0.00    -0.243 OA
ATOM     13  C   UNL     1      42.437 -16.289 -17.093  0.00  0.00    +0.387 C 
ENDBRANCH  10  13
ENDBRANCH   1  10
TORSDOF 3
ENDMDL
MODEL 8
REMARK VINA RESULT:      -4.9      2.379      3.000
REMARK  Name = 59098743
REMARK  3 active torsions:
REMARK  status: ('A' for Active; 'I' for Inactive)
REMARK    1  A    between atoms: N_1  and  C_10
REMARK    2  A    between atoms: C_3  and  N_6
REMARK    3  A    between atoms: C_10  and  C_13
REMARK                            x       y       z     vdW  Elec       q    Type
REMARK                         _______ _______ _______ _____ _____    ______ ____
ROOT
ATOM      1  N   UNL     1      36.680 -24.064 -12.609  0.00  0.00    -0.310 N 
ATOM      2  N   UNL     1      35.434 -24.972 -10.777  0.00  0.00    -0.270 NA
ATOM      3  C   UNL     1      35.516 -24.307 -11.888  0.00  0.00    +0.174 C 
ATOM      4  C   UNL     1      36.643 -23.297 -13.850  0.00  0.00    +0.129 C 
ATOM      5  H   UNL     1      36.244 -25.359 -10.374  0.00  0.00    +0.190 HD
ENDROOT
BRANCH   3   6
ATOM      6  N   UNL     1      34.259 -23.767 -12.412  0.00  0.00    -0.434 NA
ATOM      7  H   UNL     1      33.540 -23.503 -11.794  0.00  0.00    +0.134 HD
ATOM      8  H   UNL     1      34.134 -23.667 -13.384  0.00  0.00    +0.134 HD
ATOM      9  H   UNL     1      33.916 -24.429 -13.056  0.00  0.00    +0.134 HD
ENDBRANCH   3   6
BRANCH   1  10
ATOM     10  C   UNL     1      38.006 -24.370 -12.084  0.00  0.00    +0.219 C 
BRANCH  10  13
ATOM     11  O   UNL     1      38.057 -26.394 -13.285  0.00  0.00    -0.243 OA
ATOM     12  O   UNL     1      39.721 -24.861 -13.620  0.00  0.00    -0.243 OA
ATOM     13  C   UNL     1      38.661 -25.301 -13.091  0.00  0.00    +0.387 C 
ENDBRANCH  10  13
ENDBRANCH   1  10
TORSDOF 3
ENDMDL
MODEL 9
REMARK VINA RESULT:      -4.9      2.417      3.050
REMARK  Name = 59098743
REMARK  3 active torsions:
REMARK  status: ('A' for Active; 'I' for Inactive)
REMARK    1  A    between atoms: N_1  and  C_10
REMARK    2  A    between atoms: C_3  and  N_6
REMARK    3  A    between atoms: C_10  and  C_13
REMARK                            x       y       z     vdW  Elec       q    Type
REMARK                         _______ _______ _______ _____ _____    ______ ____
ROOT
ATOM      1  N   UNL     1      36.994 -24.805 -13.141  0.00  0.00    -0.310 N 
ATOM      2  N   UNL     1      34.610 -24.772 -13.358  0.00  0.00    -0.270 NA
ATOM      3  C   UNL     1      35.694 -24.851 -12.650  0.00  0.00    +0.174 C 
ATOM      4  C   UNL     1      38.137 -24.905 -12.238  0.00  0.00    +0.129 C 
ATOM      5  H   UNL     1      34.667 -24.668 -14.335  0.00  0.00    +0.190 HD
ENDROOT
BRANCH   3   6
ATOM      6  N   UNL     1      35.512 -25.005 -11.204  0.00  0.00    -0.434 NA
ATOM      7  H   UNL     1      35.081 -25.814 -10.846  0.00  0.00    +0.134 HD
ATOM      8  H   UNL     1      35.822 -24.300 -10.591  0.00  0.00    +0.134 HD
ATOM      9  H   UNL     1      35.027 -24.206 -10.896  0.00  0.00    +0.134 HD
ENDBRANCH   3   6
BRANCH   1  10
ATOM     10  C   UNL     1      37.296 -24.861 -14.567  0.00  0.00    +0.219 C 
BRANCH  10  13
ATOM     11  O   UNL     1      36.078 -26.599 -15.585  0.00  0.00    -0.243 OA
ATOM     12  O   UNL     1      38.125 -27.061 -14.674  0.00  0.00    -0.243 OA
ATOM     13  C   UNL     1      37.151 -26.317 -14.978  0.00  0.00    +0.387 C 
ENDBRANCH  10  13
ENDBRANCH   1  10
TORSDOF 3
ENDMDL
