MODEL 1
REMARK VINA RESULT:     -11.5      0.000      0.000
REMARK  Name = 5312137
REMARK  3 active torsions:
REMARK  status: ('A' for Active; 'I' for Inactive)
REMARK    1  A    between atoms: C_3  and  C_20
REMARK    2  A    between atoms: C_7  and  S_23
REMARK    3  A    between atoms: S_23  and  N_26
REMARK                            x       y       z     vdW  Elec       q    Type
REMARK                         _______ _______ _______ _____ _____    ______ ____
ROOT
ATOM      1  O   UNL     1      32.920 -20.917 -20.533  0.00  0.00    -0.270 OA
ATOM      2  N   UNL     1      32.892 -22.324 -18.636  0.00  0.00    -0.280 N 
ATOM      3  C   UNL     1      35.776 -20.527 -19.791  0.00  0.00    +0.019 C 
ATOM      4  C   UNL     1      34.877 -21.303 -19.139  0.00  0.00    +0.056 C 
ATOM      5  C   UNL     1      35.075 -22.117 -17.945  0.00  0.00    +0.019 C 
ATOM      6  C   UNL     1      33.839 -22.715 -17.683  0.00  0.00    +0.051 C 
ATOM      7  C   UNL     1      35.986 -23.221 -16.040  0.00  0.00    +0.122 C 
ATOM      8  C   UNL     1      36.163 -22.360 -17.129  0.00  0.00    +0.021 C 
ATOM      9  C   UNL     1      33.447 -21.450 -19.575  0.00  0.00    +0.250 C 
ATOM     10  C   UNL     1      33.642 -23.567 -16.614  0.00  0.00    +0.016 C 
ATOM     11  C   UNL     1      34.737 -23.818 -15.785  0.00  0.00    +0.021 C 
ATOM     12  H   UNL     1      31.954 -22.626 -18.644  0.00  0.00    +0.155 HD
ENDROOT
BRANCH   3  20
ATOM     13  N   UNL     1      35.292 -18.420 -20.787  0.00  0.00    -0.316 N 
ATOM     14  C   UNL     1      35.061 -17.864 -22.014  0.00  0.00    +0.021 C 
ATOM     15  C   UNL     1      35.131 -18.861 -22.966  0.00  0.00    -0.012 C 
ATOM     16  C   UNL     1      34.753 -16.431 -22.262  0.00  0.00    +0.041 C 
ATOM     17  C   UNL     1      34.943 -18.595 -24.418  0.00  0.00    +0.027 C 
ATOM     18  C   UNL     1      34.898 -16.122 -23.765  0.00  0.00    +0.006 C 
ATOM     19  C   UNL     1      34.280 -17.223 -24.650  0.00  0.00    +0.005 C 
ATOM     20  C   UNL     1      35.515 -19.766 -20.941  0.00  0.00    +0.048 C 
ATOM     21  C   UNL     1      35.423 -20.067 -22.284  0.00  0.00    +0.011 C 
ATOM     22  H   UNL     1      35.296 -17.933 -19.931  0.00  0.00    +0.152 HD
ENDBRANCH   3  20
BRANCH   7  23
ATOM     23  S   UNL     1      37.334 -23.559 -14.979  0.00  0.00    +0.063 S 
ATOM     24  O   UNL     1      38.548 -23.593 -15.787  0.00  0.00    -0.153 OA
ATOM     25  O   UNL     1      37.270 -22.632 -13.856  0.00  0.00    -0.153 OA
BRANCH  23  26
ATOM     26  N   UNL     1      37.000 -25.157 -14.407  0.00  0.00    -0.153 NA
ATOM     27  C   UNL     1      37.831 -26.266 -14.942  0.00  0.00    +0.115 C 
ATOM     28  C   UNL     1      36.716 -25.323 -12.958  0.00  0.00    +0.115 C 
ENDBRANCH  23  26
ENDBRANCH   7  23
TORSDOF 3
ENDMDL
MODEL 2
REMARK VINA RESULT:     -10.0      2.735      8.723
REMARK  Name = 5312137
REMARK  3 active torsions:
REMARK  status: ('A' for Active; 'I' for Inactive)
REMARK    1  A    between atoms: C_3  and  C_20
REMARK    2  A    between atoms: C_7  and  S_23
REMARK    3  A    between atoms: S_23  and  N_26
REMARK                            x       y       z     vdW  Elec       q    Type
REMARK                         _______ _______ _______ _____ _____    ______ ____
ROOT
ATOM      1  O   UNL     1      34.384 -23.638 -16.824  0.00  0.00    -0.270 OA
ATOM      2  N   UNL     1      33.370 -22.531 -18.648  0.00  0.00    -0.280 N 
ATOM      3  C   UNL     1      36.655 -21.802 -17.400  0.00  0.00    +0.019 C 
ATOM      4  C   UNL     1      35.478 -21.857 -18.069  0.00  0.00    +0.056 C 
ATOM      5  C   UNL     1      35.041 -21.055 -19.207  0.00  0.00    +0.019 C 
ATOM      6  C   UNL     1      33.755 -21.505 -19.518  0.00  0.00    +0.051 C 
ATOM      7  C   UNL     1      34.897 -19.485 -20.993  0.00  0.00    +0.122 C 
ATOM      8  C   UNL     1      35.630 -20.041 -19.938  0.00  0.00    +0.021 C 
ATOM      9  C   UNL     1      34.376 -22.814 -17.719  0.00  0.00    +0.250 C 
ATOM     10  C   UNL     1      33.015 -20.971 -20.553  0.00  0.00    +0.016 C 
ATOM     11  C   UNL     1      33.602 -19.946 -21.297  0.00  0.00    +0.021 C 
ATOM     12  H   UNL     1      32.501 -22.995 -18.685  0.00  0.00    +0.155 HD
ENDROOT
BRANCH   3  20
ATOM     13  N   UNL     1      36.275 -22.497 -15.155  0.00  0.00    -0.316 N 
ATOM     14  C   UNL     1      36.775 -23.360 -14.221  0.00  0.00    +0.021 C 
ATOM     15  C   UNL     1      37.846 -24.030 -14.775  0.00  0.00    -0.012 C 
ATOM     16  C   UNL     1      36.263 -23.514 -12.834  0.00  0.00    +0.041 C 
ATOM     17  C   UNL     1      38.617 -25.063 -14.030  0.00  0.00    +0.027 C 
ATOM     18  C   UNL     1      36.840 -24.798 -12.208  0.00  0.00    +0.006 C 
ATOM     19  C   UNL     1      38.340 -24.975 -12.516  0.00  0.00    +0.005 C 
ATOM     20  C   UNL     1      37.011 -22.609 -16.308  0.00  0.00    +0.048 C 
ATOM     21  C   UNL     1      37.993 -23.556 -16.101  0.00  0.00    +0.011 C 
ATOM     22  H   UNL     1      35.509 -21.892 -15.021  0.00  0.00    +0.152 HD
ENDBRANCH   3  20
BRANCH   7  23
ATOM     23  S   UNL     1      35.600 -18.199 -21.947  0.00  0.00    +0.063 S 
ATOM     24  O   UNL     1      35.287 -16.930 -21.299  0.00  0.00    -0.153 OA
ATOM     25  O   UNL     1      36.998 -18.530 -22.193  0.00  0.00    -0.153 OA
BRANCH  23  26
ATOM     26  N   UNL     1      34.731 -18.291 -23.441  0.00  0.00    -0.153 NA
ATOM     27  C   UNL     1      34.559 -17.034 -24.213  0.00  0.00    +0.115 C 
ATOM     28  C   UNL     1      35.004 -19.453 -24.324  0.00  0.00    +0.115 C 
ENDBRANCH  23  26
ENDBRANCH   7  23
TORSDOF 3
ENDMDL
MODEL 3
REMARK VINA RESULT:     -10.0      5.786      9.537
REMARK  Name = 5312137
REMARK  3 active torsions:
REMARK  status: ('A' for Active; 'I' for Inactive)
REMARK    1  A    between atoms: C_3  and  C_20
REMARK    2  A    between atoms: C_7  and  S_23
REMARK    3  A    between atoms: S_23  and  N_26
REMARK                            x       y       z     vdW  Elec       q    Type
REMARK                         _______ _______ _______ _____ _____    ______ ____
ROOT
ATOM      1  O   UNL     1      32.999 -12.440 -25.869  0.00  0.00    -0.270 OA
ATOM      2  N   UNL     1      33.517 -14.745 -25.908  0.00  0.00    -0.280 N 
ATOM      3  C   UNL     1      33.862 -12.633 -23.026  0.00  0.00    +0.019 C 
ATOM      4  C   UNL     1      33.836 -13.645 -23.927  0.00  0.00    +0.056 C 
ATOM      5  C   UNL     1      34.212 -15.042 -23.737  0.00  0.00    +0.019 C 
ATOM      6  C   UNL     1      33.999 -15.665 -24.970  0.00  0.00    +0.051 C 
ATOM      7  C   UNL     1      34.948 -17.123 -22.840  0.00  0.00    +0.122 C 
ATOM      8  C   UNL     1      34.687 -15.760 -22.656  0.00  0.00    +0.021 C 
ATOM      9  C   UNL     1      33.385 -13.470 -25.348  0.00  0.00    +0.250 C 
ATOM     10  C   UNL     1      34.249 -17.007 -25.173  0.00  0.00    +0.016 C 
ATOM     11  C   UNL     1      34.730 -17.740 -24.087  0.00  0.00    +0.021 C 
ATOM     12  H   UNL     1      33.300 -14.967 -26.843  0.00  0.00    +0.155 HD
ENDROOT
BRANCH   3  20
ATOM     13  N   UNL     1      34.456 -10.422 -23.677  0.00  0.00    -0.316 N 
ATOM     14  C   UNL     1      33.889  -9.193 -23.872  0.00  0.00    +0.021 C 
ATOM     15  C   UNL     1      32.540  -9.286 -23.594  0.00  0.00    -0.012 C 
ATOM     16  C   UNL     1      34.621  -7.967 -24.282  0.00  0.00    +0.041 C 
ATOM     17  C   UNL     1      31.616  -8.127 -23.722  0.00  0.00    +0.027 C 
ATOM     18  C   UNL     1      33.615  -6.888 -24.730  0.00  0.00    +0.006 C 
ATOM     19  C   UNL     1      32.397  -6.799 -23.789  0.00  0.00    +0.005 C 
ATOM     20  C   UNL     1      33.484 -11.306 -23.280  0.00  0.00    +0.048 C 
ATOM     21  C   UNL     1      32.284 -10.628 -23.221  0.00  0.00    +0.011 C 
ATOM     22  H   UNL     1      35.409 -10.637 -23.800  0.00  0.00    +0.152 HD
ENDBRANCH   3  20
BRANCH   7  23
ATOM     23  S   UNL     1      35.550 -18.074 -21.503  0.00  0.00    +0.063 S 
ATOM     24  O   UNL     1      36.821 -18.668 -21.905  0.00  0.00    -0.153 OA
ATOM     25  O   UNL     1      35.519 -17.243 -20.305  0.00  0.00    -0.153 OA
BRANCH  23  26
ATOM     26  N   UNL     1      34.372 -19.331 -21.344  0.00  0.00    -0.153 NA
ATOM     27  C   UNL     1      34.786 -20.575 -20.645  0.00  0.00    +0.115 C 
ATOM     28  C   UNL     1      32.985 -18.932 -20.997  0.00  0.00    +0.115 C 
ENDBRANCH  23  26
ENDBRANCH   7  23
TORSDOF 3
ENDMDL
MODEL 4
REMARK VINA RESULT:      -9.9      5.660     10.858
REMARK  Name = 5312137
REMARK  3 active torsions:
REMARK  status: ('A' for Active; 'I' for Inactive)
REMARK    1  A    between atoms: C_3  and  C_20
REMARK    2  A    between atoms: C_7  and  S_23
REMARK    3  A    between atoms: S_23  and  N_26
REMARK                            x       y       z     vdW  Elec       q    Type
REMARK                         _______ _______ _______ _____ _____    ______ ____
ROOT
ATOM      1  O   UNL     1      34.376 -18.347 -24.248  0.00  0.00    -0.270 OA
ATOM      2  N   UNL     1      33.856 -16.479 -25.597  0.00  0.00    -0.280 N 
ATOM      3  C   UNL     1      34.597 -16.310 -22.089  0.00  0.00    +0.019 C 
ATOM      4  C   UNL     1      34.287 -16.073 -23.386  0.00  0.00    +0.056 C 
ATOM      5  C   UNL     1      33.991 -14.799 -24.033  0.00  0.00    +0.019 C 
ATOM      6  C   UNL     1      33.737 -15.102 -25.373  0.00  0.00    +0.051 C 
ATOM      7  C   UNL     1      33.609 -12.495 -24.507  0.00  0.00    +0.122 C 
ATOM      8  C   UNL     1      33.931 -13.494 -23.581  0.00  0.00    +0.021 C 
ATOM      9  C   UNL     1      34.194 -17.156 -24.421  0.00  0.00    +0.250 C 
ATOM     10  C   UNL     1      33.417 -14.133 -26.303  0.00  0.00    +0.016 C 
ATOM     11  C   UNL     1      33.354 -12.812 -25.855  0.00  0.00    +0.021 C 
ATOM     12  H   UNL     1      33.719 -16.914 -26.470  0.00  0.00    +0.155 HD
ENDROOT
BRANCH   3  20
ATOM     13  N   UNL     1      33.811 -18.341 -21.129  0.00  0.00    -0.316 N 
ATOM     14  C   UNL     1      34.285 -19.519 -20.622  0.00  0.00    +0.021 C 
ATOM     15  C   UNL     1      35.663 -19.502 -20.694  0.00  0.00    -0.012 C 
ATOM     16  C   UNL     1      33.446 -20.609 -20.058  0.00  0.00    +0.041 C 
ATOM     17  C   UNL     1      36.502 -20.643 -20.237  0.00  0.00    +0.027 C 
ATOM     18  C   UNL     1      34.291 -21.889 -19.912  0.00  0.00    +0.006 C 
ATOM     19  C   UNL     1      35.694 -21.602 -19.340  0.00  0.00    +0.005 C 
ATOM     20  C   UNL     1      34.872 -17.569 -21.532  0.00  0.00    +0.048 C 
ATOM     21  C   UNL     1      36.034 -18.265 -21.275  0.00  0.00    +0.011 C 
ATOM     22  H   UNL     1      32.861 -18.089 -21.195  0.00  0.00    +0.152 HD
ENDBRANCH   3  20
BRANCH   7  23
ATOM     23  S   UNL     1      33.521 -10.830 -23.983  0.00  0.00    +0.063 S 
ATOM     24  O   UNL     1      34.879 -10.364 -23.726  0.00  0.00    -0.153 OA
ATOM     25  O   UNL     1      32.701 -10.096 -24.939  0.00  0.00    -0.153 OA
BRANCH  23  26
ATOM     26  N   UNL     1      32.673 -10.930 -22.478  0.00  0.00    -0.153 NA
ATOM     27  C   UNL     1      32.302  -9.655 -21.813  0.00  0.00    +0.115 C 
ATOM     28  C   UNL     1      31.601 -11.951 -22.360  0.00  0.00    +0.115 C 
ENDBRANCH  23  26
ENDBRANCH   7  23
TORSDOF 3
ENDMDL
MODEL 5
REMARK VINA RESULT:      -9.8      7.697     12.799
REMARK  Name = 5312137
REMARK  3 active torsions:
REMARK  status: ('A' for Active; 'I' for Inactive)
REMARK    1  A    between atoms: C_3  and  C_20
REMARK    2  A    between atoms: C_7  and  S_23
REMARK    3  A    between atoms: S_23  and  N_26
REMARK                            x       y       z     vdW  Elec       q    Type
REMARK                         _______ _______ _______ _____ _____    ______ ____
ROOT
ATOM      1  O   UNL     1      32.077 -14.790 -22.140  0.00  0.00    -0.270 OA
ATOM      2  N   UNL     1      31.507 -12.537 -21.720  0.00  0.00    -0.280 N 
ATOM      3  C   UNL     1      34.148 -13.592 -23.911  0.00  0.00    +0.019 C 
ATOM      4  C   UNL     1      33.240 -12.915 -23.166  0.00  0.00    +0.056 C 
ATOM      5  C   UNL     1      33.055 -11.473 -23.047  0.00  0.00    +0.019 C 
ATOM      6  C   UNL     1      31.990 -11.298 -22.159  0.00  0.00    +0.051 C 
ATOM      7  C   UNL     1      33.234  -9.107 -23.260  0.00  0.00    +0.122 C 
ATOM      8  C   UNL     1      33.690 -10.383 -23.610  0.00  0.00    +0.021 C 
ATOM      9  C   UNL     1      32.222 -13.592 -22.294  0.00  0.00    +0.250 C 
ATOM     10  C   UNL     1      31.524 -10.050 -21.799  0.00  0.00    +0.016 C 
ATOM     11  C   UNL     1      32.161  -8.942 -22.363  0.00  0.00    +0.021 C 
ATOM     12  H   UNL     1      30.760 -12.650 -21.089  0.00  0.00    +0.155 HD
ENDROOT
BRANCH   3  20
ATOM     13  N   UNL     1      34.803 -15.642 -22.895  0.00  0.00    -0.316 N 
ATOM     14  C   UNL     1      34.834 -16.984 -23.156  0.00  0.00    +0.021 C 
ATOM     15  C   UNL     1      34.323 -17.195 -24.420  0.00  0.00    -0.012 C 
ATOM     16  C   UNL     1      35.366 -18.023 -22.237  0.00  0.00    +0.041 C 
ATOM     17  C   UNL     1      34.197 -18.553 -25.016  0.00  0.00    +0.027 C 
ATOM     18  C   UNL     1      34.922 -19.418 -22.720  0.00  0.00    +0.006 C 
ATOM     19  C   UNL     1      35.055 -19.577 -24.247  0.00  0.00    +0.005 C 
ATOM     20  C   UNL     1      34.270 -14.988 -23.978  0.00  0.00    +0.048 C 
ATOM     21  C   UNL     1      33.961 -15.928 -24.939  0.00  0.00    +0.011 C 
ATOM     22  H   UNL     1      35.113 -15.215 -22.063  0.00  0.00    +0.152 HD
ENDBRANCH   3  20
BRANCH   7  23
ATOM     23  S   UNL     1      34.007  -7.697 -23.946  0.00  0.00    +0.063 S 
ATOM     24  O   UNL     1      34.983  -7.201 -22.982  0.00  0.00    -0.153 OA
ATOM     25  O   UNL     1      34.463  -8.037 -25.288  0.00  0.00    -0.153 OA
BRANCH  23  26
ATOM     26  N   UNL     1      32.714  -6.553 -24.068  0.00  0.00    -0.153 NA
ATOM     27  C   UNL     1      32.274  -5.879 -22.820  0.00  0.00    +0.115 C 
ATOM     28  C   UNL     1      32.724  -5.626 -25.227  0.00  0.00    +0.115 C 
ENDBRANCH  23  26
ENDBRANCH   7  23
TORSDOF 3
ENDMDL
MODEL 6
REMARK VINA RESULT:      -9.7      6.157     11.439
REMARK  Name = 5312137
REMARK  3 active torsions:
REMARK  status: ('A' for Active; 'I' for Inactive)
REMARK    1  A    between atoms: C_3  and  C_20
REMARK    2  A    between atoms: C_7  and  S_23
REMARK    3  A    between atoms: S_23  and  N_26
REMARK                            x       y       z     vdW  Elec       q    Type
REMARK                         _______ _______ _______ _____ _____    ______ ____
ROOT
ATOM      1  O   UNL     1      34.286 -17.450 -24.389  0.00  0.00    -0.270 OA
ATOM      2  N   UNL     1      33.883 -15.465 -25.604  0.00  0.00    -0.280 N 
ATOM      3  C   UNL     1      34.100 -15.648 -22.026  0.00  0.00    +0.019 C 
ATOM      4  C   UNL     1      33.970 -15.284 -23.325  0.00  0.00    +0.056 C 
ATOM      5  C   UNL     1      33.713 -13.958 -23.876  0.00  0.00    +0.019 C 
ATOM      6  C   UNL     1      33.670 -14.124 -25.263  0.00  0.00    +0.051 C 
ATOM      7  C   UNL     1      33.299 -11.629 -24.167  0.00  0.00    +0.122 C 
ATOM      8  C   UNL     1      33.530 -12.711 -23.309  0.00  0.00    +0.021 C 
ATOM      9  C   UNL     1      34.077 -16.253 -24.466  0.00  0.00    +0.250 C 
ATOM     10  C   UNL     1      33.445 -13.072 -26.127  0.00  0.00    +0.016 C 
ATOM     11  C   UNL     1      33.258 -11.808 -25.562  0.00  0.00    +0.021 C 
ATOM     12  H   UNL     1      33.893 -15.808 -26.527  0.00  0.00    +0.155 HD
ENDROOT
BRANCH   3  20
ATOM     13  N   UNL     1      35.652 -17.366 -21.473  0.00  0.00    -0.316 N 
ATOM     14  C   UNL     1      35.679 -18.650 -21.006  0.00  0.00    +0.021 C 
ATOM     15  C   UNL     1      34.380 -19.067 -20.800  0.00  0.00    -0.012 C 
ATOM     16  C   UNL     1      36.908 -19.460 -20.795  0.00  0.00    +0.041 C 
ATOM     17  C   UNL     1      34.048 -20.420 -20.275  0.00  0.00    +0.027 C 
ATOM     18  C   UNL     1      36.570 -20.703 -19.949  0.00  0.00    +0.006 C 
ATOM     19  C   UNL     1      35.254 -21.372 -20.394  0.00  0.00    +0.005 C 
ATOM     20  C   UNL     1      34.347 -16.950 -21.565  0.00  0.00    +0.048 C 
ATOM     21  C   UNL     1      33.536 -17.986 -21.151  0.00  0.00    +0.011 C 
ATOM     22  H   UNL     1      36.442 -16.826 -21.707  0.00  0.00    +0.152 HD
ENDBRANCH   3  20
BRANCH   7  23
ATOM     23  S   UNL     1      33.061 -10.033 -23.496  0.00  0.00    +0.063 S 
ATOM     24  O   UNL     1      32.097  -9.329 -24.334  0.00  0.00    -0.153 OA
ATOM     25  O   UNL     1      32.775 -10.176 -22.074  0.00  0.00    -0.153 OA
BRANCH  23  26
ATOM     26  N   UNL     1      34.611  -9.286 -23.682  0.00  0.00    -0.153 NA
ATOM     27  C   UNL     1      35.443  -9.711 -24.837  0.00  0.00    +0.115 C 
ATOM     28  C   UNL     1      34.703  -7.825 -23.437  0.00  0.00    +0.115 C 
ENDBRANCH  23  26
ENDBRANCH   7  23
TORSDOF 3
ENDMDL
MODEL 7
REMARK VINA RESULT:      -9.6      4.439      7.750
REMARK  Name = 5312137
REMARK  3 active torsions:
REMARK  status: ('A' for Active; 'I' for Inactive)
REMARK    1  A    between atoms: C_3  and  C_20
REMARK    2  A    between atoms: C_7  and  S_23
REMARK    3  A    between atoms: S_23  and  N_26
REMARK                            x       y       z     vdW  Elec       q    Type
REMARK                         _______ _______ _______ _____ _____    ______ ____
ROOT
ATOM      1  O   UNL     1      33.254 -14.408 -25.168  0.00  0.00    -0.270 OA
ATOM      2  N   UNL     1      33.989 -16.651 -25.279  0.00  0.00    -0.280 N 
ATOM      3  C   UNL     1      33.679 -14.761 -22.243  0.00  0.00    +0.019 C 
ATOM      4  C   UNL     1      33.889 -15.695 -23.202  0.00  0.00    +0.056 C 
ATOM      5  C   UNL     1      34.362 -17.066 -23.048  0.00  0.00    +0.019 C 
ATOM      6  C   UNL     1      34.404 -17.601 -24.339  0.00  0.00    +0.051 C 
ATOM      7  C   UNL     1      35.144 -19.146 -22.187  0.00  0.00    +0.122 C 
ATOM      8  C   UNL     1      34.730 -17.829 -21.956  0.00  0.00    +0.021 C 
ATOM      9  C   UNL     1      33.651 -15.442 -24.662  0.00  0.00    +0.250 C 
ATOM     10  C   UNL     1      34.809 -18.897 -24.589  0.00  0.00    +0.016 C 
ATOM     11  C   UNL     1      35.183 -19.674 -23.491  0.00  0.00    +0.021 C 
ATOM     12  H   UNL     1      33.941 -16.812 -26.249  0.00  0.00    +0.155 HD
ENDROOT
BRANCH   3  20
ATOM     13  N   UNL     1      34.016 -12.604 -23.191  0.00  0.00    -0.316 N 
ATOM     14  C   UNL     1      33.395 -11.390 -23.294  0.00  0.00    +0.021 C 
ATOM     15  C   UNL     1      32.192 -11.457 -22.622  0.00  0.00    -0.012 C 
ATOM     16  C   UNL     1      33.952 -10.199 -23.986  0.00  0.00    +0.041 C 
ATOM     17  C   UNL     1      31.251 -10.306 -22.550  0.00  0.00    +0.027 C 
ATOM     18  C   UNL     1      32.840  -9.151 -24.188  0.00  0.00    +0.006 C 
ATOM     19  C   UNL     1      31.954  -8.990 -22.937  0.00  0.00    +0.005 C 
ATOM     20  C   UNL     1      33.220 -13.453 -22.463  0.00  0.00    +0.048 C 
ATOM     21  C   UNL     1      32.080 -12.768 -22.099  0.00  0.00    +0.011 C 
ATOM     22  H   UNL     1      34.893 -12.831 -23.577  0.00  0.00    +0.152 HD
ENDBRANCH   3  20
BRANCH   7  23
ATOM     23  S   UNL     1      35.619 -20.149 -20.837  0.00  0.00    +0.063 S 
ATOM     24  O   UNL     1      36.114 -21.416 -21.366  0.00  0.00    -0.153 OA
ATOM     25  O   UNL     1      36.495 -19.365 -19.975  0.00  0.00    -0.153 OA
BRANCH  23  26
ATOM     26  N   UNL     1      34.127 -20.436 -20.009  0.00  0.00    -0.153 NA
ATOM     27  C   UNL     1      32.871 -20.059 -20.706  0.00  0.00    +0.115 C 
ATOM     28  C   UNL     1      33.989 -21.714 -19.266  0.00  0.00    +0.115 C 
ENDBRANCH  23  26
ENDBRANCH   7  23
TORSDOF 3
ENDMDL
MODEL 8
REMARK VINA RESULT:      -9.4      8.167     12.861
REMARK  Name = 5312137
REMARK  3 active torsions:
REMARK  status: ('A' for Active; 'I' for Inactive)
REMARK    1  A    between atoms: C_3  and  C_20
REMARK    2  A    between atoms: C_7  and  S_23
REMARK    3  A    between atoms: S_23  and  N_26
REMARK                            x       y       z     vdW  Elec       q    Type
REMARK                         _______ _______ _______ _____ _____    ______ ____
ROOT
ATOM      1  O   UNL     1      32.476 -14.445 -21.495  0.00  0.00    -0.270 OA
ATOM      2  N   UNL     1      31.768 -12.314 -20.763  0.00  0.00    -0.280 N 
ATOM      3  C   UNL     1      33.420 -12.944 -23.886  0.00  0.00    +0.019 C 
ATOM      4  C   UNL     1      32.798 -12.418 -22.803  0.00  0.00    +0.056 C 
ATOM      5  C   UNL     1      32.444 -11.027 -22.544  0.00  0.00    +0.019 C 
ATOM      6  C   UNL     1      31.822 -11.020 -21.293  0.00  0.00    +0.051 C 
ATOM      7  C   UNL     1      32.133  -8.669 -22.686  0.00  0.00    +0.122 C 
ATOM      8  C   UNL     1      32.608  -9.855 -23.257  0.00  0.00    +0.021 C 
ATOM      9  C   UNL     1      32.349 -13.242 -21.632  0.00  0.00    +0.250 C 
ATOM     10  C   UNL     1      31.346  -9.862 -20.710  0.00  0.00    +0.016 C 
ATOM     11  C   UNL     1      31.507  -8.673 -21.424  0.00  0.00    +0.021 C 
ATOM     12  H   UNL     1      31.372 -12.541 -19.890  0.00  0.00    +0.155 HD
ENDROOT
BRANCH   3  20
ATOM     13  N   UNL     1      34.551 -14.905 -23.152  0.00  0.00    -0.316 N 
ATOM     14  C   UNL     1      34.728 -16.214 -23.506  0.00  0.00    +0.021 C 
ATOM     15  C   UNL     1      34.020 -16.451 -24.666  0.00  0.00    -0.012 C 
ATOM     16  C   UNL     1      35.573 -17.193 -22.774  0.00  0.00    +0.041 C 
ATOM     17  C   UNL     1      33.982 -17.787 -25.321  0.00  0.00    +0.027 C 
ATOM     18  C   UNL     1      35.253 -18.620 -23.262  0.00  0.00    +0.006 C 
ATOM     19  C   UNL     1      35.113 -18.694 -24.795  0.00  0.00    +0.005 C 
ATOM     20  C   UNL     1      33.731 -14.300 -24.071  0.00  0.00    +0.048 C 
ATOM     21  C   UNL     1      33.384 -15.237 -25.022  0.00  0.00    +0.011 C 
ATOM     22  H   UNL     1      34.949 -14.468 -22.364  0.00  0.00    +0.152 HD
ENDBRANCH   3  20
BRANCH   7  23
ATOM     23  S   UNL     1      32.317  -7.161 -23.550  0.00  0.00    +0.063 S 
ATOM     24  O   UNL     1      31.325  -7.128 -24.620  0.00  0.00    -0.153 OA
ATOM     25  O   UNL     1      32.327  -6.077 -22.575  0.00  0.00    -0.153 OA
BRANCH  23  26
ATOM     26  N   UNL     1      33.891  -7.295 -24.255  0.00  0.00    -0.153 NA
ATOM     27  C   UNL     1      34.242  -6.340 -25.337  0.00  0.00    +0.115 C 
ATOM     28  C   UNL     1      35.034  -7.545 -23.340  0.00  0.00    +0.115 C 
ENDBRANCH  23  26
ENDBRANCH   7  23
TORSDOF 3
ENDMDL
MODEL 9
REMARK VINA RESULT:      -9.4      1.402      1.755
REMARK  Name = 5312137
REMARK  3 active torsions:
REMARK  status: ('A' for Active; 'I' for Inactive)
REMARK    1  A    between atoms: C_3  and  C_20
REMARK    2  A    between atoms: C_7  and  S_23
REMARK    3  A    between atoms: S_23  and  N_26
REMARK                            x       y       z     vdW  Elec       q    Type
REMARK                         _______ _______ _______ _____ _____    ______ ____
ROOT
ATOM      1  O   UNL     1      32.383 -20.571 -20.271  0.00  0.00    -0.270 OA
ATOM      2  N   UNL     1      31.951 -21.980 -18.425  0.00  0.00    -0.280 N 
ATOM      3  C   UNL     1      35.231 -21.085 -19.575  0.00  0.00    +0.019 C 
ATOM      4  C   UNL     1      34.146 -21.581 -18.932  0.00  0.00    +0.056 C 
ATOM      5  C   UNL     1      34.102 -22.465 -17.772  0.00  0.00    +0.019 C 
ATOM      6  C   UNL     1      32.746 -22.675 -17.506  0.00  0.00    +0.051 C 
ATOM      7  C   UNL     1      34.656 -23.866 -15.927  0.00  0.00    +0.122 C 
ATOM      8  C   UNL     1      35.074 -23.055 -16.988  0.00  0.00    +0.021 C 
ATOM      9  C   UNL     1      32.735 -21.275 -19.343  0.00  0.00    +0.250 C 
ATOM     10  C   UNL     1      32.311 -23.470 -16.465  0.00  0.00    +0.016 C 
ATOM     11  C   UNL     1      33.288 -24.071 -15.668  0.00  0.00    +0.021 C 
ATOM     12  H   UNL     1      30.966 -21.986 -18.424  0.00  0.00    +0.155 HD
ENDROOT
BRANCH   3  20
ATOM     13  N   UNL     1      35.086 -18.885 -20.472  0.00  0.00    -0.316 N 
ATOM     14  C   UNL     1      35.076 -18.237 -21.676  0.00  0.00    +0.021 C 
ATOM     15  C   UNL     1      35.180 -19.179 -22.679  0.00  0.00    -0.012 C 
ATOM     16  C   UNL     1      34.940 -16.768 -21.857  0.00  0.00    +0.041 C 
ATOM     17  C   UNL     1      35.216 -18.811 -24.121  0.00  0.00    +0.027 C 
ATOM     18  C   UNL     1      35.315 -16.388 -23.303  0.00  0.00    +0.006 C 
ATOM     19  C   UNL     1      34.722 -17.366 -24.337  0.00  0.00    +0.005 C 
ATOM     20  C   UNL     1      35.200 -20.235 -20.691  0.00  0.00    +0.048 C 
ATOM     21  C   UNL     1      35.263 -20.446 -22.053  0.00  0.00    +0.011 C 
ATOM     22  H   UNL     1      35.020 -18.452 -19.590  0.00  0.00    +0.152 HD
ENDBRANCH   3  20
BRANCH   7  23
ATOM     23  S   UNL     1      35.850 -24.634 -14.907  0.00  0.00    +0.063 S 
ATOM     24  O   UNL     1      35.237 -24.896 -13.609  0.00  0.00    -0.153 OA
ATOM     25  O   UNL     1      36.424 -25.753 -15.645  0.00  0.00    -0.153 OA
BRANCH  23  26
ATOM     26  N   UNL     1      37.059 -23.411 -14.716  0.00  0.00    -0.153 NA
ATOM     27  C   UNL     1      37.373 -22.967 -13.334  0.00  0.00    +0.115 C 
ATOM     28  C   UNL     1      38.276 -23.511 -15.559  0.00  0.00    +0.115 C 
ENDBRANCH  23  26
ENDBRANCH   7  23
TORSDOF 3
ENDMDL
