MODEL 1
REMARK VINA RESULT:      -9.8      0.000      0.000
REMARK  Name = 456214
REMARK  6 active torsions:
REMARK  status: ('A' for Active; 'I' for Inactive)
REMARK    1  A    between atoms: N_1  and  CA_24
REMARK    2  A    between atoms: N_2  and  C_12
REMARK    3  A    between atoms: N_15  and  C_18
REMARK    4  A    between atoms: CA_24  and  CB_25
REMARK    5  A    between atoms: CA_24  and  C_28
REMARK    6  A    between atoms: C_28  and  O_29
REMARK                            x       y       z     vdW  Elec       q    Type
REMARK                         _______ _______ _______ _____ _____    ______ ____
ROOT
ATOM      1  N   UNL     1      31.683 -23.063 -17.051  0.00  0.00    -0.258 N 
ATOM      2  N   UNL     1      34.713 -20.980 -20.059  0.00  0.00    -0.262 N 
ATOM      3  N   UNL     1      33.009 -21.982 -18.648  0.00  0.00    -0.311 NA
ATOM      4  N   UNL     1      34.000 -23.081 -16.707  0.00  0.00    -0.311 NA
ATOM      5  N   UNL     1      36.539 -21.530 -18.905  0.00  0.00    -0.240 NA
ATOM      6  C   UNL     1      34.274 -21.680 -18.971  0.00  0.00    +0.220 C 
ATOM      7  C   ACE A   0      32.941 -22.696 -17.485  0.00  0.00    +0.202 C 
ATOM      8  C   UNL     1      35.422 -22.011 -18.268  0.00  0.00    +0.168 C 
ATOM      9  C   UNL     1      35.252 -22.739 -17.095  0.00  0.00    +0.219 C 
ATOM     10  C   UNL     1      36.078 -20.918 -19.975  0.00  0.00    +0.222 C 
ATOM     11  H   UNL     1      30.905 -22.795 -17.593  0.00  0.00    +0.160 HD
ATOM     12  N   UNL     1      36.360 -23.118 -16.318  0.00  0.00    -0.286 N 
ATOM     13  H   UNL     1      37.222 -22.820 -16.688  0.00  0.00    +0.155 HD
ENDROOT
BRANCH  12  15
ATOM     14 CL   UNL     1      36.751 -23.047 -11.202  0.00  0.00    -0.082 Cl
ATOM     15  C   UNL     1      36.483 -23.843 -15.112  0.00  0.00    +0.051 C 
ATOM     16  C   UNL     1      36.549 -23.165 -13.895  0.00  0.00    +0.026 C 
ATOM     17  C   UNL     1      36.540 -25.236 -15.141  0.00  0.00    +0.015 C 
ATOM     18  C   UNL     1      36.672 -23.882 -12.705  0.00  0.00    +0.059 C 
ATOM     19  C   UNL     1      36.663 -25.952 -13.950  0.00  0.00    +0.002 C 
ATOM     20  C   UNL     1      36.729 -25.275 -12.733  0.00  0.00    +0.011 C 
ENDBRANCH  12  15
BRANCH   2  21
ATOM     21  C   UNL     1      33.898 -20.412 -21.107  0.00  0.00    +0.077 C 
ATOM     22  C   UNL     1      34.716 -19.537 -22.057  0.00  0.00    +0.022 C 
ATOM     23  C   UNL     1      32.689 -19.661 -20.547  0.00  0.00    +0.022 C 
ENDBRANCH   2  21
BRANCH   1  24
ATOM     24  CA  UNL     1      31.446 -23.824 -15.838  0.00  0.00    +0.109 C 
BRANCH  24  25
ATOM     25  CB  UNL     1      30.154 -24.665 -15.966  0.00  0.00    +0.021 C 
ATOM     26  CG1 UNL     1      29.854 -25.429 -14.672  0.00  0.00    +0.002 C 
ATOM     27  CG2 UNL     1      28.925 -23.852 -16.388  0.00  0.00    +0.002 C 
ENDBRANCH  24  25
BRANCH  24  28
ATOM     28  C   UNL     1      31.411 -22.865 -14.645  0.00  0.00    +0.157 C 
BRANCH  28  29
ATOM     29  O   UNL     1      32.643 -22.951 -13.937  0.00  0.00    -0.380 OA
ATOM     30  H   UNL     1      33.333 -23.293 -14.528  0.00  0.00    +0.211 HD
ENDBRANCH  28  29
ENDBRANCH  24  28
ENDBRANCH   1  24
TORSDOF 6
ENDMDL
MODEL 2
REMARK VINA RESULT:      -9.7      2.099      5.541
REMARK  Name = 456214
REMARK  6 active torsions:
REMARK  status: ('A' for Active; 'I' for Inactive)
REMARK    1  A    between atoms: N_1  and  CA_24
REMARK    2  A    between atoms: N_2  and  C_12
REMARK    3  A    between atoms: N_15  and  C_18
REMARK    4  A    between atoms: CA_24  and  CB_25
REMARK    5  A    between atoms: CA_24  and  C_28
REMARK    6  A    between atoms: C_28  and  O_29
REMARK                            x       y       z     vdW  Elec       q    Type
REMARK                         _______ _______ _______ _____ _____    ______ ____
ROOT
ATOM      1  N   UNL     1      32.686 -22.163 -18.624  0.00  0.00    -0.258 N 
ATOM      2  N   UNL     1      29.972 -23.886 -15.127  0.00  0.00    -0.262 N 
ATOM      3  N   UNL     1      31.183 -22.954 -17.015  0.00  0.00    -0.311 NA
ATOM      4  N   UNL     1      33.596 -23.124 -16.691  0.00  0.00    -0.311 NA
ATOM      5  N   UNL     1      31.684 -24.525 -13.852  0.00  0.00    -0.240 NA
ATOM      6  C   UNL     1      31.102 -23.548 -15.816  0.00  0.00    +0.220 C 
ATOM      7  C   ACE A   0      32.480 -22.767 -17.400  0.00  0.00    +0.202 C 
ATOM      8  C   UNL     1      32.153 -23.953 -15.008  0.00  0.00    +0.168 C 
ATOM      9  C   UNL     1      33.439 -23.721 -15.486  0.00  0.00    +0.219 C 
ATOM     10  C   UNL     1      30.373 -24.468 -13.955  0.00  0.00    +0.222 C 
ATOM     11  H   UNL     1      31.899 -21.899 -19.154  0.00  0.00    +0.160 HD
ATOM     12  N   UNL     1      34.564 -24.101 -14.733  0.00  0.00    -0.286 N 
ATOM     13  H   UNL     1      34.338 -24.527 -13.875  0.00  0.00    +0.155 HD
ENDROOT
BRANCH  12  15
ATOM     14 CL   UNL     1      39.276 -25.989 -13.983  0.00  0.00    -0.082 Cl
ATOM     15  C   UNL     1      35.952 -23.991 -14.963  0.00  0.00    +0.051 C 
ATOM     16  C   UNL     1      36.825 -24.934 -14.422  0.00  0.00    +0.026 C 
ATOM     17  C   UNL     1      36.449 -22.938 -15.731  0.00  0.00    +0.015 C 
ATOM     18  C   UNL     1      38.197 -24.824 -14.648  0.00  0.00    +0.059 C 
ATOM     19  C   UNL     1      37.821 -22.828 -15.957  0.00  0.00    +0.002 C 
ATOM     20  C   UNL     1      38.695 -23.771 -15.416  0.00  0.00    +0.011 C 
ENDBRANCH  12  15
BRANCH   2  21
ATOM     21  C   UNL     1      28.608 -23.671 -15.546  0.00  0.00    +0.077 C 
ATOM     22  C   UNL     1      28.313 -24.327 -16.896  0.00  0.00    +0.022 C 
ATOM     23  C   UNL     1      28.238 -22.186 -15.547  0.00  0.00    +0.022 C 
ENDBRANCH   2  21
BRANCH   1  24
ATOM     24  CA  UNL     1      34.005 -21.894 -19.171  0.00  0.00    +0.109 C 
BRANCH  24  25
ATOM     25  CB  UNL     1      34.029 -20.521 -19.882  0.00  0.00    +0.021 C 
ATOM     26  CG1 UNL     1      35.295 -20.352 -20.730  0.00  0.00    +0.002 C 
ATOM     27  CG2 UNL     1      32.789 -20.244 -20.738  0.00  0.00    +0.002 C 
ENDBRANCH  24  25
BRANCH  24  28
ATOM     28  C   UNL     1      34.406 -23.045 -20.097  0.00  0.00    +0.157 C 
BRANCH  28  29
ATOM     29  O   UNL     1      33.890 -24.267 -19.578  0.00  0.00    -0.380 OA
ATOM     30  H   UNL     1      33.280 -24.076 -18.848  0.00  0.00    +0.211 HD
ENDBRANCH  28  29
ENDBRANCH  24  28
ENDBRANCH   1  24
TORSDOF 6
ENDMDL
MODEL 3
REMARK VINA RESULT:      -8.8      2.795      6.386
REMARK  Name = 456214
REMARK  6 active torsions:
REMARK  status: ('A' for Active; 'I' for Inactive)
REMARK    1  A    between atoms: N_1  and  CA_24
REMARK    2  A    between atoms: N_2  and  C_12
REMARK    3  A    between atoms: N_15  and  C_18
REMARK    4  A    between atoms: CA_24  and  CB_25
REMARK    5  A    between atoms: CA_24  and  C_28
REMARK    6  A    between atoms: C_28  and  O_29
REMARK                            x       y       z     vdW  Elec       q    Type
REMARK                         _______ _______ _______ _____ _____    ______ ____
ROOT
ATOM      1  N   UNL     1      33.341 -23.322 -14.538  0.00  0.00    -0.258 N 
ATOM      2  N   UNL     1      37.943 -24.359 -13.972  0.00  0.00    -0.262 N 
ATOM      3  N   UNL     1      35.556 -23.919 -14.076  0.00  0.00    -0.311 NA
ATOM      4  N   UNL     1      34.959 -22.744 -16.130  0.00  0.00    -0.311 NA
ATOM      5  N   UNL     1      38.584 -23.447 -15.903  0.00  0.00    -0.240 NA
ATOM      6  C   UNL     1      36.808 -23.869 -14.553  0.00  0.00    +0.220 C 
ATOM      7  C   ACE A   0      34.666 -23.328 -14.927  0.00  0.00    +0.202 C 
ATOM      8  C   UNL     1      37.226 -23.309 -15.750  0.00  0.00    +0.168 C 
ATOM      9  C   UNL     1      36.247 -22.731 -16.551  0.00  0.00    +0.219 C 
ATOM     10  C   UNL     1      38.981 -24.080 -14.819  0.00  0.00    +0.222 C 
ATOM     11  H   UNL     1      33.105 -23.738 -13.677  0.00  0.00    +0.160 HD
ATOM     12  N   UNL     1      36.582 -22.140 -17.782  0.00  0.00    -0.286 N 
ATOM     13  H   UNL     1      37.542 -22.185 -17.992  0.00  0.00    +0.155 HD
ENDROOT
BRANCH  12  15
ATOM     14 CL   UNL     1      36.365 -18.696 -21.579  0.00  0.00    -0.082 Cl
ATOM     15  C   UNL     1      35.814 -21.494 -18.775  0.00  0.00    +0.051 C 
ATOM     16  C   UNL     1      36.402 -20.527 -19.590  0.00  0.00    +0.026 C 
ATOM     17  C   UNL     1      34.469 -21.823 -18.938  0.00  0.00    +0.015 C 
ATOM     18  C   UNL     1      35.642 -19.888 -20.571  0.00  0.00    +0.059 C 
ATOM     19  C   UNL     1      33.710 -21.184 -19.919  0.00  0.00    +0.002 C 
ATOM     20  C   UNL     1      34.297 -20.217 -20.735  0.00  0.00    +0.011 C 
ENDBRANCH  12  15
BRANCH   2  21
ATOM     21  C   UNL     1      38.039 -25.039 -12.703  0.00  0.00    +0.077 C 
ATOM     22  C   UNL     1      37.276 -26.364 -12.704  0.00  0.00    +0.022 C 
ATOM     23  C   UNL     1      37.610 -24.141 -11.540  0.00  0.00    +0.022 C 
ENDBRANCH   2  21
BRANCH   1  24
ATOM     24  CA  UNL     1      32.278 -22.731 -15.331  0.00  0.00    +0.109 C 
BRANCH  24  25
ATOM     25  CB  UNL     1      30.973 -22.635 -14.507  0.00  0.00    +0.021 C 
ATOM     26  CG1 UNL     1      29.735 -22.736 -15.405  0.00  0.00    +0.002 C 
ATOM     27  CG2 UNL     1      30.879 -23.661 -13.373  0.00  0.00    +0.002 C 
ENDBRANCH  24  25
BRANCH  24  28
ATOM     28  C   UNL     1      32.104 -23.543 -16.618  0.00  0.00    +0.157 C 
BRANCH  28  29
ATOM     29  O   UNL     1      31.705 -22.673 -17.671  0.00  0.00    -0.380 OA
ATOM     30  H   UNL     1      31.035 -22.053 -17.343  0.00  0.00    +0.211 HD
ENDBRANCH  28  29
ENDBRANCH  24  28
ENDBRANCH   1  24
TORSDOF 6
ENDMDL
MODEL 4
REMARK VINA RESULT:      -7.9      2.171      5.655
REMARK  Name = 456214
REMARK  6 active torsions:
REMARK  status: ('A' for Active; 'I' for Inactive)
REMARK    1  A    between atoms: N_1  and  CA_24
REMARK    2  A    between atoms: N_2  and  C_12
REMARK    3  A    between atoms: N_15  and  C_18
REMARK    4  A    between atoms: CA_24  and  CB_25
REMARK    5  A    between atoms: CA_24  and  C_28
REMARK    6  A    between atoms: C_28  and  O_29
REMARK                            x       y       z     vdW  Elec       q    Type
REMARK                         _______ _______ _______ _____ _____    ______ ____
ROOT
ATOM      1  N   UNL     1      33.444 -22.569 -17.351  0.00  0.00    -0.258 N 
ATOM      2  N   UNL     1      29.835 -24.183 -14.716  0.00  0.00    -0.262 N 
ATOM      3  N   UNL     1      31.539 -23.303 -16.208  0.00  0.00    -0.311 NA
ATOM      4  N   UNL     1      33.768 -23.530 -15.239  0.00  0.00    -0.311 NA
ATOM      5  N   UNL     1      31.119 -24.850 -13.020  0.00  0.00    -0.240 NA
ATOM      6  C   UNL     1      31.119 -23.881 -15.073  0.00  0.00    +0.220 C 
ATOM      7  C   ACE A   0      32.897 -23.154 -16.227  0.00  0.00    +0.202 C 
ATOM      8  C   UNL     1      31.900 -24.304 -14.009  0.00  0.00    +0.168 C 
ATOM      9  C   UNL     1      33.273 -24.110 -14.120  0.00  0.00    +0.219 C 
ATOM     10  C   UNL     1      29.888 -24.761 -13.477  0.00  0.00    +0.222 C 
ATOM     11  H   UNL     1      32.838 -22.292 -18.076  0.00  0.00    +0.160 HD
ATOM     12  N   UNL     1      34.140 -24.509 -13.088  0.00  0.00    -0.286 N 
ATOM     13  H   UNL     1      33.679 -24.919 -12.321  0.00  0.00    +0.155 HD
ENDROOT
BRANCH  12  15
ATOM     14 CL   UNL     1      38.780 -26.206 -14.475  0.00  0.00    -0.082 Cl
ATOM     15  C   UNL     1      35.542 -24.437 -12.932  0.00  0.00    +0.051 C 
ATOM     16  C   UNL     1      36.370 -25.261 -13.692  0.00  0.00    +0.026 C 
ATOM     17  C   UNL     1      36.094 -23.541 -12.017  0.00  0.00    +0.015 C 
ATOM     18  C   UNL     1      37.755 -25.191 -13.537  0.00  0.00    +0.059 C 
ATOM     19  C   UNL     1      37.479 -23.471 -11.861  0.00  0.00    +0.002 C 
ATOM     20  C   UNL     1      38.309 -24.295 -12.621  0.00  0.00    +0.011 C 
ENDBRANCH  12  15
BRANCH   2  21
ATOM     21  C   UNL     1      28.643 -23.938 -15.491  0.00  0.00    +0.077 C 
ATOM     22  C   UNL     1      28.662 -24.688 -16.824  0.00  0.00    +0.022 C 
ATOM     23  C   UNL     1      28.387 -22.442 -15.689  0.00  0.00    +0.022 C 
ENDBRANCH   2  21
BRANCH   1  24
ATOM     24  CA  UNL     1      34.868 -22.340 -17.520  0.00  0.00    +0.109 C 
BRANCH  24  25
ATOM     25  CB  UNL     1      35.202 -22.067 -19.005  0.00  0.00    +0.021 C 
ATOM     26  CG1 UNL     1      34.042 -21.365 -19.719  0.00  0.00    +0.002 C 
ATOM     27  CG2 UNL     1      36.497 -21.274 -19.214  0.00  0.00    +0.002 C 
ENDBRANCH  24  25
BRANCH  24  28
ATOM     28  C   UNL     1      35.637 -23.536 -16.953  0.00  0.00    +0.157 C 
BRANCH  28  29
ATOM     29  O   UNL     1      36.841 -23.075 -16.347  0.00  0.00    -0.380 OA
ATOM     30  H   UNL     1      37.580 -23.195 -16.963  0.00  0.00    +0.211 HD
ENDBRANCH  28  29
ENDBRANCH  24  28
ENDBRANCH   1  24
TORSDOF 6
ENDMDL
