MODEL 1
REMARK VINA RESULT:      -7.0      0.000      0.000
REMARK  Name = 5289149
REMARK  6 active torsions:
REMARK  status: ('A' for Active; 'I' for Inactive)
REMARK    1  A    between atoms: C_1  and  N_2
REMARK    2  A    between atoms: C_1  and  C_6
REMARK    3  A    between atoms: C_1  and  C_13
REMARK    4  A    between atoms: C_6  and  C_7
REMARK    5  A    between atoms: C_13  and  C_15
REMARK    6  A    between atoms: C_13  and  O_16
REMARK                            x       y       z     vdW  Elec       q    Type
REMARK                         _______ _______ _______ _____ _____    ______ ____
ROOT
ATOM      1  C   UNL     1      34.785 -17.935 -22.560  0.00  0.00    -0.033 C 
ENDROOT
BRANCH   1   2
ATOM      2  N   UNL     1      34.940 -18.520 -23.899  0.00  0.00    +0.384 N 
ATOM      3  H   UNL     1      34.104 -18.329 -24.451  0.00  0.00    -0.089 HD
ATOM      4  H   UNL     1      35.072 -19.528 -23.817  0.00  0.00    -0.089 HD
ATOM      5  H   UNL     1      35.752 -18.107 -24.358  0.00  0.00    -0.089 HD
ENDBRANCH   1   2
BRANCH   1   6
ATOM      6  C   UNL     1      35.732 -18.707 -21.614  0.00  0.00    +0.007 C 
BRANCH   6   7
ATOM      7  C   UNL     1      35.042 -19.782 -20.808  0.00  0.00    -0.024 C 
ATOM      8  C   UNL     1      33.659 -19.782 -20.722  0.00  0.00    -0.004 C 
ATOM      9  C   UNL     1      35.804 -20.748 -20.172  0.00  0.00    -0.004 C 
ATOM     10  C   UNL     1      33.021 -20.775 -19.978  0.00  0.00    -0.000 C 
ATOM     11  C   UNL     1      35.167 -21.741 -19.428  0.00  0.00    -0.000 C 
ATOM     12  C   UNL     1      33.776 -21.754 -19.331  0.00  0.00    -0.000 C 
ENDBRANCH   6   7
ENDBRANCH   1   6
BRANCH   1  13
ATOM     13  C   UNL     1      35.047 -16.408 -22.569  0.00  0.00    +0.107 C 
BRANCH  13  15
ATOM     14 CL   UNL     1      33.032 -15.801 -20.832  0.00  0.00    -0.111 Cl
ATOM     15  C   UNL     1      33.766 -15.582 -22.445  0.00  0.00    +0.122 C 
ENDBRANCH  13  15
BRANCH  13  16
ATOM     16  O   UNL     1      35.728 -16.053 -23.773  0.00  0.00    -0.385 OA
ATOM     17  H   UNL     1      35.297 -15.282 -24.172  0.00  0.00    +0.210 HD
ENDBRANCH  13  16
ENDBRANCH   1  13
TORSDOF 6
ENDMDL
MODEL 2
REMARK VINA RESULT:      -7.0      0.050      1.341
REMARK  Name = 5289149
REMARK  6 active torsions:
REMARK  status: ('A' for Active; 'I' for Inactive)
REMARK    1  A    between atoms: C_1  and  N_2
REMARK    2  A    between atoms: C_1  and  C_6
REMARK    3  A    between atoms: C_1  and  C_13
REMARK    4  A    between atoms: C_6  and  C_7
REMARK    5  A    between atoms: C_13  and  C_15
REMARK    6  A    between atoms: C_13  and  O_16
REMARK                            x       y       z     vdW  Elec       q    Type
REMARK                         _______ _______ _______ _____ _____    ______ ____
ROOT
ATOM      1  C   UNL     1      34.760 -17.923 -22.522  0.00  0.00    -0.033 C 
ENDROOT
BRANCH   1   2
ATOM      2  N   UNL     1      34.877 -18.505 -23.866  0.00  0.00    +0.384 N 
ATOM      3  H   UNL     1      34.326 -19.362 -23.914  0.00  0.00    -0.089 HD
ATOM      4  H   UNL     1      35.855 -18.717 -24.062  0.00  0.00    -0.089 HD
ATOM      5  H   UNL     1      34.529 -17.839 -24.556  0.00  0.00    -0.089 HD
ENDBRANCH   1   2
BRANCH   1   6
ATOM      6  C   UNL     1      35.726 -18.702 -21.603  0.00  0.00    +0.007 C 
BRANCH   6   7
ATOM      7  C   UNL     1      35.055 -19.789 -20.797  0.00  0.00    -0.024 C 
ATOM      8  C   UNL     1      35.836 -20.735 -20.153  0.00  0.00    -0.004 C 
ATOM      9  C   UNL     1      33.673 -19.819 -20.715  0.00  0.00    -0.004 C 
ATOM     10  C   UNL     1      35.217 -21.739 -19.408  0.00  0.00    -0.000 C 
ATOM     11  C   UNL     1      33.054 -20.822 -19.970  0.00  0.00    -0.000 C 
ATOM     12  C   UNL     1      33.826 -21.782 -19.317  0.00  0.00    -0.000 C 
ENDBRANCH   6   7
ENDBRANCH   1   6
BRANCH   1  13
ATOM     13  C   UNL     1      35.030 -16.398 -22.535  0.00  0.00    +0.107 C 
BRANCH  13  15
ATOM     14 CL   UNL     1      33.004 -15.727 -20.833  0.00  0.00    -0.111 Cl
ATOM     15  C   UNL     1      33.750 -15.564 -22.448  0.00  0.00    +0.122 C 
ENDBRANCH  13  15
BRANCH  13  16
ATOM     16  O   UNL     1      35.742 -16.054 -23.723  0.00  0.00    -0.385 OA
ATOM     17  H   UNL     1      35.637 -16.760 -24.379  0.00  0.00    +0.210 HD
ENDBRANCH  13  16
ENDBRANCH   1  13
TORSDOF 6
ENDMDL
MODEL 3
REMARK VINA RESULT:      -6.9      1.691      2.201
REMARK  Name = 5289149
REMARK  6 active torsions:
REMARK  status: ('A' for Active; 'I' for Inactive)
REMARK    1  A    between atoms: C_1  and  N_2
REMARK    2  A    between atoms: C_1  and  C_6
REMARK    3  A    between atoms: C_1  and  C_13
REMARK    4  A    between atoms: C_6  and  C_7
REMARK    5  A    between atoms: C_13  and  C_15
REMARK    6  A    between atoms: C_13  and  O_16
REMARK                            x       y       z     vdW  Elec       q    Type
REMARK                         _______ _______ _______ _____ _____    ______ ____
ROOT
ATOM      1  C   UNL     1      34.562 -18.423 -23.214  0.00  0.00    -0.033 C 
ENDROOT
BRANCH   1   2
ATOM      2  N   UNL     1      34.951 -19.410 -24.231  0.00  0.00    +0.384 N 
ATOM      3  H   UNL     1      34.166 -19.575 -24.860  0.00  0.00    -0.089 HD
ATOM      4  H   UNL     1      35.212 -20.284 -23.774  0.00  0.00    -0.089 HD
ATOM      5  H   UNL     1      35.745 -19.054 -24.763  0.00  0.00    -0.089 HD
ENDBRANCH   1   2
BRANCH   1   6
ATOM      6  C   UNL     1      35.464 -18.659 -21.982  0.00  0.00    +0.007 C 
BRANCH   6   7
ATOM      7  C   UNL     1      34.937 -19.709 -21.034  0.00  0.00    -0.024 C 
ATOM      8  C   UNL     1      35.831 -20.551 -20.391  0.00  0.00    -0.004 C 
ATOM      9  C   UNL     1      33.572 -19.812 -20.825  0.00  0.00    -0.004 C 
ATOM     10  C   UNL     1      35.344 -21.522 -19.515  0.00  0.00    -0.000 C 
ATOM     11  C   UNL     1      33.086 -20.783 -19.949  0.00  0.00    -0.000 C 
ATOM     12  C   UNL     1      33.972 -21.638 -19.295  0.00  0.00    -0.000 C 
ENDBRANCH   6   7
ENDBRANCH   1   6
BRANCH   1  13
ATOM     13  C   UNL     1      34.646 -16.976 -23.760  0.00  0.00    +0.107 C 
BRANCH  13  15
ATOM     14 CL   UNL     1      33.471 -15.594 -25.800  0.00  0.00    -0.111 Cl
ATOM     15  C   UNL     1      34.567 -16.908 -25.286  0.00  0.00    +0.122 C 
ENDBRANCH  13  15
BRANCH  13  16
ATOM     16  O   UNL     1      35.863 -16.374 -23.320  0.00  0.00    -0.385 OA
ATOM     17  H   UNL     1      35.870 -15.438 -23.573  0.00  0.00    +0.210 HD
ENDBRANCH  13  16
ENDBRANCH   1  13
TORSDOF 6
ENDMDL
MODEL 4
REMARK VINA RESULT:      -6.8      2.134      2.357
REMARK  Name = 5289149
REMARK  6 active torsions:
REMARK  status: ('A' for Active; 'I' for Inactive)
REMARK    1  A    between atoms: C_1  and  N_2
REMARK    2  A    between atoms: C_1  and  C_6
REMARK    3  A    between atoms: C_1  and  C_13
REMARK    4  A    between atoms: C_6  and  C_7
REMARK    5  A    between atoms: C_13  and  C_15
REMARK    6  A    between atoms: C_13  and  O_16
REMARK                            x       y       z     vdW  Elec       q    Type
REMARK                         _______ _______ _______ _____ _____    ______ ____
ROOT
ATOM      1  C   UNL     1      34.975 -17.892 -21.420  0.00  0.00    -0.033 C 
ENDROOT
BRANCH   1   2
ATOM      2  N   UNL     1      34.343 -16.608 -21.086  0.00  0.00    +0.384 N 
ATOM      3  H   UNL     1      34.008 -16.161 -21.939  0.00  0.00    -0.089 HD
ATOM      4  H   UNL     1      35.024 -16.002 -20.628  0.00  0.00    -0.089 HD
ATOM      5  H   UNL     1      33.557 -16.771 -20.456  0.00  0.00    -0.089 HD
ENDBRANCH   1   2
BRANCH   1   6
ATOM      6  C   UNL     1      33.867 -18.967 -21.389  0.00  0.00    +0.007 C 
BRANCH   6   7
ATOM      7  C   UNL     1      34.182 -20.141 -20.493  0.00  0.00    -0.024 C 
ATOM      8  C   UNL     1      33.143 -20.828 -19.886  0.00  0.00    -0.004 C 
ATOM      9  C   UNL     1      35.503 -20.509 -20.295  0.00  0.00    -0.004 C 
ATOM     10  C   UNL     1      33.434 -21.913 -19.058  0.00  0.00    -0.000 C 
ATOM     11  C   UNL     1      35.793 -21.593 -19.467  0.00  0.00    -0.000 C 
ATOM     12  C   UNL     1      34.759 -22.295 -18.848  0.00  0.00    -0.000 C 
ENDBRANCH   6   7
ENDBRANCH   1   6
BRANCH   1  13
ATOM     13  C   UNL     1      35.721 -17.826 -22.776  0.00  0.00    +0.107 C 
BRANCH  13  15
ATOM     14 CL   UNL     1      34.492 -17.559 -25.198  0.00  0.00    -0.111 Cl
ATOM     15  C   UNL     1      35.031 -18.633 -23.877  0.00  0.00    +0.122 C 
ENDBRANCH  13  15
BRANCH  13  16
ATOM     16  O   UNL     1      37.057 -18.299 -22.604  0.00  0.00    -0.385 OA
ATOM     17  H   UNL     1      37.121 -19.210 -22.929  0.00  0.00    +0.210 HD
ENDBRANCH  13  16
ENDBRANCH   1  13
TORSDOF 6
ENDMDL
MODEL 5
REMARK VINA RESULT:      -6.5      3.368      5.427
REMARK  Name = 5289149
REMARK  6 active torsions:
REMARK  status: ('A' for Active; 'I' for Inactive)
REMARK    1  A    between atoms: C_1  and  N_2
REMARK    2  A    between atoms: C_1  and  C_6
REMARK    3  A    between atoms: C_1  and  C_13
REMARK    4  A    between atoms: C_6  and  C_7
REMARK    5  A    between atoms: C_13  and  C_15
REMARK    6  A    between atoms: C_13  and  O_16
REMARK                            x       y       z     vdW  Elec       q    Type
REMARK                         _______ _______ _______ _____ _____    ______ ____
ROOT
ATOM      1  C   UNL     1      33.825 -20.237 -20.820  0.00  0.00    -0.033 C 
ENDROOT
BRANCH   1   2
ATOM      2  N   UNL     1      32.620 -19.431 -20.579  0.00  0.00    +0.384 N 
ATOM      3  H   UNL     1      31.946 -19.980 -20.045  0.00  0.00    -0.089 HD
ATOM      4  H   UNL     1      32.208 -19.160 -21.472  0.00  0.00    -0.089 HD
ATOM      5  H   UNL     1      32.871 -18.595 -20.053  0.00  0.00    -0.089 HD
ENDBRANCH   1   2
BRANCH   1   6
ATOM      6  C   UNL     1      34.989 -19.252 -21.068  0.00  0.00    +0.007 C 
BRANCH   6   7
ATOM      7  C   UNL     1      34.901 -18.527 -22.390  0.00  0.00    -0.024 C 
ATOM      8  C   UNL     1      34.695 -19.255 -23.551  0.00  0.00    -0.004 C 
ATOM      9  C   UNL     1      35.027 -17.148 -22.418  0.00  0.00    -0.004 C 
ATOM     10  C   UNL     1      34.614 -18.586 -24.772  0.00  0.00    -0.000 C 
ATOM     11  C   UNL     1      34.946 -16.478 -23.639  0.00  0.00    -0.000 C 
ATOM     12  C   UNL     1      34.740 -17.197 -24.816  0.00  0.00    -0.000 C 
ENDBRANCH   6   7
ENDBRANCH   1   6
BRANCH   1  13
ATOM     13  C   UNL     1      34.098 -21.220 -19.656  0.00  0.00    +0.107 C 
BRANCH  13  15
ATOM     14 CL   UNL     1      36.453 -21.533 -18.313  0.00  0.00    -0.111 Cl
ATOM     15  C   UNL     1      35.465 -21.899 -19.755  0.00  0.00    +0.122 C 
ENDBRANCH  13  15
BRANCH  13  16
ATOM     16  O   UNL     1      33.074 -22.214 -19.626  0.00  0.00    -0.385 OA
ATOM     17  H   UNL     1      33.425 -23.051 -19.968  0.00  0.00    +0.210 HD
ENDBRANCH  13  16
ENDBRANCH   1  13
TORSDOF 6
ENDMDL
MODEL 6
REMARK VINA RESULT:      -6.5      4.727      6.342
REMARK  Name = 5289149
REMARK  6 active torsions:
REMARK  status: ('A' for Active; 'I' for Inactive)
REMARK    1  A    between atoms: C_1  and  N_2
REMARK    2  A    between atoms: C_1  and  C_6
REMARK    3  A    between atoms: C_1  and  C_13
REMARK    4  A    between atoms: C_6  and  C_7
REMARK    5  A    between atoms: C_13  and  C_15
REMARK    6  A    between atoms: C_13  and  O_16
REMARK                            x       y       z     vdW  Elec       q    Type
REMARK                         _______ _______ _______ _____ _____    ______ ____
ROOT
ATOM      1  C   UNL     1      36.500 -21.494 -17.295  0.00  0.00    -0.033 C 
ENDROOT
BRANCH   1   2
ATOM      2  N   UNL     1      37.562 -20.509 -17.051  0.00  0.00    +0.384 N 
ATOM      3  H   UNL     1      38.463 -20.907 -17.316  0.00  0.00    -0.089 HD
ATOM      4  H   UNL     1      37.577 -20.263 -16.061  0.00  0.00    -0.089 HD
ATOM      5  H   UNL     1      37.384 -19.672 -17.607  0.00  0.00    -0.089 HD
ENDBRANCH   1   2
BRANCH   1   6
ATOM      6  C   UNL     1      36.516 -21.815 -18.806  0.00  0.00    +0.007 C 
BRANCH   6   7
ATOM      7  C   UNL     1      35.426 -21.120 -19.587  0.00  0.00    -0.024 C 
ATOM      8  C   UNL     1      34.103 -21.467 -19.361  0.00  0.00    -0.004 C 
ATOM      9  C   UNL     1      35.767 -20.149 -20.514  0.00  0.00    -0.004 C 
ATOM     10  C   UNL     1      33.096 -20.826 -20.082  0.00  0.00    -0.000 C 
ATOM     11  C   UNL     1      34.760 -19.507 -21.235  0.00  0.00    -0.000 C 
ATOM     12  C   UNL     1      33.425 -19.846 -21.019  0.00  0.00    -0.000 C 
ENDBRANCH   6   7
ENDBRANCH   1   6
BRANCH   1  13
ATOM     13  C   UNL     1      36.669 -22.750 -16.405  0.00  0.00    +0.107 C 
BRANCH  13  15
ATOM     14 CL   UNL     1      34.008 -23.340 -16.259  0.00  0.00    -0.111 Cl
ATOM     15  C   UNL     1      35.524 -22.933 -15.407  0.00  0.00    +0.122 C 
ENDBRANCH  13  15
BRANCH  13  16
ATOM     16  O   UNL     1      37.907 -22.666 -15.699  0.00  0.00    -0.385 OA
ATOM     17  H   UNL     1      38.640 -22.658 -16.333  0.00  0.00    +0.210 HD
ENDBRANCH  13  16
ENDBRANCH   1  13
TORSDOF 6
ENDMDL
MODEL 7
REMARK VINA RESULT:      -6.2      5.439      7.250
REMARK  Name = 5289149
REMARK  6 active torsions:
REMARK  status: ('A' for Active; 'I' for Inactive)
REMARK    1  A    between atoms: C_1  and  N_2
REMARK    2  A    between atoms: C_1  and  C_6
REMARK    3  A    between atoms: C_1  and  C_13
REMARK    4  A    between atoms: C_6  and  C_7
REMARK    5  A    between atoms: C_13  and  C_15
REMARK    6  A    between atoms: C_13  and  O_16
REMARK                            x       y       z     vdW  Elec       q    Type
REMARK                         _______ _______ _______ _____ _____    ______ ____
ROOT
ATOM      1  C   UNL     1      33.794 -23.022 -16.414  0.00  0.00    -0.033 C 
ENDROOT
BRANCH   1   2
ATOM      2  N   UNL     1      35.015 -23.682 -15.933  0.00  0.00    +0.384 N 
ATOM      3  H   UNL     1      35.825 -23.284 -16.409  0.00  0.00    -0.089 HD
ATOM      4  H   UNL     1      34.961 -24.681 -16.129  0.00  0.00    -0.089 HD
ATOM      5  H   UNL     1      35.106 -23.537 -14.928  0.00  0.00    -0.089 HD
ENDBRANCH   1   2
BRANCH   1   6
ATOM      6  C   UNL     1      33.648 -23.368 -17.912  0.00  0.00    +0.007 C 
BRANCH   6   7
ATOM      7  C   UNL     1      34.011 -22.232 -18.838  0.00  0.00    -0.024 C 
ATOM      8  C   UNL     1      35.347 -21.981 -19.111  0.00  0.00    -0.004 C 
ATOM      9  C   UNL     1      33.004 -21.463 -19.397  0.00  0.00    -0.004 C 
ATOM     10  C   UNL     1      35.683 -20.932 -19.966  0.00  0.00    -0.000 C 
ATOM     11  C   UNL     1      33.341 -20.414 -20.252  0.00  0.00    -0.000 C 
ATOM     12  C   UNL     1      34.680 -20.148 -20.536  0.00  0.00    -0.000 C 
ENDBRANCH   6   7
ENDBRANCH   1   6
BRANCH   1  13
ATOM     13  C   UNL     1      32.557 -23.425 -15.573  0.00  0.00    +0.107 C 
BRANCH  13  15
ATOM     14 CL   UNL     1      29.969 -22.734 -15.051  0.00  0.00    -0.111 Cl
ATOM     15  C   UNL     1      31.232 -23.094 -16.261  0.00  0.00    +0.122 C 
ENDBRANCH  13  15
BRANCH  13  16
ATOM     16  O   UNL     1      32.613 -22.768 -14.306  0.00  0.00    -0.385 OA
ATOM     17  H   UNL     1      31.745 -22.388 -14.101  0.00  0.00    +0.210 HD
ENDBRANCH  13  16
ENDBRANCH   1  13
TORSDOF 6
ENDMDL
MODEL 8
REMARK VINA RESULT:      -6.2      3.508      4.650
REMARK  Name = 5289149
REMARK  6 active torsions:
REMARK  status: ('A' for Active; 'I' for Inactive)
REMARK    1  A    between atoms: C_1  and  N_2
REMARK    2  A    between atoms: C_1  and  C_6
REMARK    3  A    between atoms: C_1  and  C_13
REMARK    4  A    between atoms: C_6  and  C_7
REMARK    5  A    between atoms: C_13  and  C_15
REMARK    6  A    between atoms: C_13  and  O_16
REMARK                            x       y       z     vdW  Elec       q    Type
REMARK                         _______ _______ _______ _____ _____    ______ ____
ROOT
ATOM      1  C   UNL     1      33.474 -14.136 -23.145  0.00  0.00    -0.033 C 
ENDROOT
BRANCH   1   2
ATOM      2  N   UNL     1      34.077 -12.896 -23.654  0.00  0.00    +0.384 N 
ATOM      3  H   UNL     1      33.356 -12.182 -23.748  0.00  0.00    -0.089 HD
ATOM      4  H   UNL     1      34.502 -13.074 -24.564  0.00  0.00    -0.089 HD
ATOM      5  H   UNL     1      34.792 -12.574 -23.002  0.00  0.00    -0.089 HD
ENDBRANCH   1   2
BRANCH   1   6
ATOM      6  C   UNL     1      34.625 -15.014 -22.606  0.00  0.00    +0.007 C 
BRANCH   6   7
ATOM      7  C   UNL     1      34.659 -16.403 -23.199  0.00  0.00    -0.024 C 
ATOM      8  C   UNL     1      34.474 -16.563 -24.563  0.00  0.00    -0.004 C 
ATOM      9  C   UNL     1      34.875 -17.491 -22.369  0.00  0.00    -0.004 C 
ATOM     10  C   UNL     1      34.505 -17.846 -25.111  0.00  0.00    -0.000 C 
ATOM     11  C   UNL     1      34.906 -18.773 -22.916  0.00  0.00    -0.000 C 
ATOM     12  C   UNL     1      34.721 -18.950 -24.287  0.00  0.00    -0.000 C 
ENDBRANCH   6   7
ENDBRANCH   1   6
BRANCH   1  13
ATOM     13  C   UNL     1      32.383 -13.847 -22.085  0.00  0.00    +0.107 C 
BRANCH  13  15
ATOM     14 CL   UNL     1      31.676 -11.864 -20.348  0.00  0.00    -0.111 Cl
ATOM     15  C   UNL     1      31.973 -12.375 -22.034  0.00  0.00    +0.122 C 
ENDBRANCH  13  15
BRANCH  13  16
ATOM     16  O   UNL     1      32.853 -14.255 -20.799  0.00  0.00    -0.385 OA
ATOM     17  H   UNL     1      33.112 -15.189 -20.832  0.00  0.00    +0.210 HD
ENDBRANCH  13  16
ENDBRANCH   1  13
TORSDOF 6
ENDMDL
MODEL 9
REMARK VINA RESULT:      -6.2      2.639      5.779
REMARK  Name = 5289149
REMARK  6 active torsions:
REMARK  status: ('A' for Active; 'I' for Inactive)
REMARK    1  A    between atoms: C_1  and  N_2
REMARK    2  A    between atoms: C_1  and  C_6
REMARK    3  A    between atoms: C_1  and  C_13
REMARK    4  A    between atoms: C_6  and  C_7
REMARK    5  A    between atoms: C_13  and  C_15
REMARK    6  A    between atoms: C_13  and  O_16
REMARK                            x       y       z     vdW  Elec       q    Type
REMARK                         _______ _______ _______ _____ _____    ______ ____
ROOT
ATOM      1  C   UNL     1      34.552 -17.565 -21.890  0.00  0.00    -0.033 C 
ENDROOT
BRANCH   1   2
ATOM      2  N   UNL     1      35.347 -17.381 -20.668  0.00  0.00    +0.384 N 
ATOM      3  H   UNL     1      34.964 -16.607 -20.127  0.00  0.00    -0.089 HD
ATOM      4  H   UNL     1      36.314 -17.176 -20.920  0.00  0.00    -0.089 HD
ATOM      5  H   UNL     1      35.315 -18.235 -20.111  0.00  0.00    -0.089 HD
ENDBRANCH   1   2
BRANCH   1   6
ATOM      6  C   UNL     1      35.345 -16.924 -23.050  0.00  0.00    +0.007 C 
BRANCH   6   7
ATOM      7  C   UNL     1      34.541 -15.942 -23.868  0.00  0.00    -0.024 C 
ATOM      8  C   UNL     1      34.098 -16.312 -25.129  0.00  0.00    -0.004 C 
ATOM      9  C   UNL     1      34.259 -14.691 -23.344  0.00  0.00    -0.004 C 
ATOM     10  C   UNL     1      33.355 -15.405 -25.885  0.00  0.00    -0.000 C 
ATOM     11  C   UNL     1      33.516 -13.785 -24.100  0.00  0.00    -0.000 C 
ATOM     12  C   UNL     1      33.064 -14.141 -25.370  0.00  0.00    -0.000 C 
ENDBRANCH   6   7
ENDBRANCH   1   6
BRANCH   1  13
ATOM     13  C   UNL     1      34.214 -19.056 -22.134  0.00  0.00    +0.107 C 
BRANCH  13  15
ATOM     14 CL   UNL     1      33.021 -20.408 -20.085  0.00  0.00    -0.111 Cl
ATOM     15  C   UNL     1      34.526 -19.944 -20.928  0.00  0.00    +0.122 C 
ENDBRANCH  13  15
BRANCH  13  16
ATOM     16  O   UNL     1      34.940 -19.525 -23.270  0.00  0.00    -0.385 OA
ATOM     17  H   UNL     1      34.629 -19.065 -24.065  0.00  0.00    +0.210 HD
ENDBRANCH  13  16
ENDBRANCH   1  13
TORSDOF 6
ENDMDL
