MODEL 1
REMARK VINA RESULT:      -7.6      0.000      0.000
REMARK  Name = 3779
REMARK  7 active torsions:
REMARK  status: ('A' for Active; 'I' for Inactive)
REMARK    1  A    between atoms: C_1  and  C_2
REMARK    2  A    between atoms: C_1  and  O_12
REMARK    3  A    between atoms: C_1  and  C_14
REMARK    4  A    between atoms: C_5  and  O_8
REMARK    5  A    between atoms: C_7  and  O_10
REMARK    6  A    between atoms: C_14  and  N_15
REMARK    7  A    between atoms: N_15  and  C_18
REMARK                            x       y       z     vdW  Elec       q    Type
REMARK                         _______ _______ _______ _____ _____    ______ ____
ROOT
ATOM      1  C   UNL     1      36.056 -18.489 -21.628  0.00  0.00    +0.112 C 
ENDROOT
BRANCH   1   2
ATOM      2  C   UNL     1      35.152 -19.482 -20.928  0.00  0.00    +0.005 C 
ATOM      3  C   UNL     1      35.719 -20.505 -20.187  0.00  0.00    +0.038 C 
ATOM      4  C   UNL     1      33.780 -19.345 -21.045  0.00  0.00    +0.001 C 
ATOM      5  C   UNL     1      34.886 -21.419 -19.542  0.00  0.00    +0.167 C 
ATOM      6  C   UNL     1      32.948 -20.260 -20.400  0.00  0.00    +0.040 C 
ATOM      7  C   UNL     1      33.500 -21.297 -19.649  0.00  0.00    +0.167 C 
BRANCH   5   8
ATOM      8  O   UNL     1      35.437 -22.428 -18.810  0.00  0.00    -0.503 OA
ATOM      9  H   UNL     1      36.026 -23.034 -19.217  0.00  0.00    +0.292 HD
ENDBRANCH   5   8
BRANCH   7  10
ATOM     10  O   UNL     1      32.678 -22.184 -19.023  0.00  0.00    -0.503 OA
ATOM     11  H   UNL     1      31.771 -22.223 -19.251  0.00  0.00    +0.292 HD
ENDBRANCH   7  10
ENDBRANCH   1   2
BRANCH   1  12
ATOM     12  O   UNL     1      37.403 -18.936 -21.485  0.00  0.00    -0.382 OA
ATOM     13  H   UNL     1      37.897 -18.307 -20.937  0.00  0.00    +0.211 HD
ENDBRANCH   1  12
BRANCH   1  14
ATOM     14  C   UNL     1      35.696 -18.352 -23.112  0.00  0.00    -0.047 C 
BRANCH  14  15
ATOM     15  N   UNL     1      35.685 -16.953 -23.514  0.00  0.00    +0.387 N 
ATOM     16  H   UNL     1      36.643 -16.645 -23.676  0.00  0.00    -0.084 HD
ATOM     17  H   UNL     1      35.256 -16.403 -22.770  0.00  0.00    -0.084 HD
BRANCH  15  18
ATOM     18  C   UNL     1      34.908 -16.773 -24.739  0.00  0.00    -0.062 C 
ATOM     19  C   UNL     1      33.845 -15.697 -24.538  0.00  0.00    -0.023 C 
ATOM     20  C   UNL     1      34.273 -18.102 -25.138  0.00  0.00    -0.023 C 
ENDBRANCH  15  18
ENDBRANCH  14  15
ENDBRANCH   1  14
TORSDOF 7
ENDMDL
MODEL 2
REMARK VINA RESULT:      -7.4      1.587      1.932
REMARK  Name = 3779
REMARK  7 active torsions:
REMARK  status: ('A' for Active; 'I' for Inactive)
REMARK    1  A    between atoms: C_1  and  C_2
REMARK    2  A    between atoms: C_1  and  O_12
REMARK    3  A    between atoms: C_1  and  C_14
REMARK    4  A    between atoms: C_5  and  O_8
REMARK    5  A    between atoms: C_7  and  O_10
REMARK    6  A    between atoms: C_14  and  N_15
REMARK    7  A    between atoms: N_15  and  C_18
REMARK                            x       y       z     vdW  Elec       q    Type
REMARK                         _______ _______ _______ _____ _____    ______ ____
ROOT
ATOM      1  C   UNL     1      35.689 -18.597 -21.809  0.00  0.00    +0.112 C 
ENDROOT
BRANCH   1   2
ATOM      2  C   UNL     1      34.908 -19.599 -20.986  0.00  0.00    +0.005 C 
ATOM      3  C   UNL     1      35.595 -20.550 -20.250  0.00  0.00    +0.038 C 
ATOM      4  C   UNL     1      33.525 -19.544 -20.988  0.00  0.00    +0.001 C 
ATOM      5  C   UNL     1      34.875 -21.473 -19.493  0.00  0.00    +0.167 C 
ATOM      6  C   UNL     1      32.806 -20.468 -20.230  0.00  0.00    +0.040 C 
ATOM      7  C   UNL     1      33.480 -21.433 -19.483  0.00  0.00    +0.167 C 
BRANCH   5   8
ATOM      8  O   UNL     1      35.545 -22.411 -18.765  0.00  0.00    -0.503 OA
ATOM      9  H   UNL     1      35.241 -22.644 -17.909  0.00  0.00    +0.292 HD
ENDBRANCH   5   8
BRANCH   7  10
ATOM     10  O   UNL     1      32.767 -22.330 -18.746  0.00  0.00    -0.503 OA
ATOM     11  H   UNL     1      32.998 -23.237 -18.760  0.00  0.00    +0.292 HD
ENDBRANCH   7  10
ENDBRANCH   1   2
BRANCH   1  12
ATOM     12  O   UNL     1      35.401 -18.830 -23.186  0.00  0.00    -0.382 OA
ATOM     13  H   UNL     1      35.741 -18.093 -23.717  0.00  0.00    +0.211 HD
ENDBRANCH   1  12
BRANCH   1  14
ATOM     14  C   UNL     1      35.329 -17.156 -21.427  0.00  0.00    -0.047 C 
BRANCH  14  15
ATOM     15  N   UNL     1      34.957 -16.387 -22.604  0.00  0.00    +0.387 N 
ATOM     16  H   UNL     1      34.530 -17.010 -23.290  0.00  0.00    -0.084 HD
ATOM     17  H   UNL     1      35.796 -15.954 -22.991  0.00  0.00    -0.084 HD
BRANCH  15  18
ATOM     18  C   UNL     1      34.004 -15.333 -22.255  0.00  0.00    -0.062 C 
ATOM     19  C   UNL     1      34.175 -14.136 -23.185  0.00  0.00    -0.023 C 
ATOM     20  C   UNL     1      34.207 -14.929 -20.798  0.00  0.00    -0.023 C 
ENDBRANCH  15  18
ENDBRANCH  14  15
ENDBRANCH   1  14
TORSDOF 7
ENDMDL
MODEL 3
REMARK VINA RESULT:      -7.3      3.217      6.346
REMARK  Name = 3779
REMARK  7 active torsions:
REMARK  status: ('A' for Active; 'I' for Inactive)
REMARK    1  A    between atoms: C_1  and  C_2
REMARK    2  A    between atoms: C_1  and  O_12
REMARK    3  A    between atoms: C_1  and  C_14
REMARK    4  A    between atoms: C_5  and  O_8
REMARK    5  A    between atoms: C_7  and  O_10
REMARK    6  A    between atoms: C_14  and  N_15
REMARK    7  A    between atoms: N_15  and  C_18
REMARK                            x       y       z     vdW  Elec       q    Type
REMARK                         _______ _______ _______ _____ _____    ______ ____
ROOT
ATOM      1  C   UNL     1      35.249 -16.927 -21.514  0.00  0.00    +0.112 C 
ENDROOT
BRANCH   1   2
ATOM      2  C   UNL     1      34.749 -16.537 -22.888  0.00  0.00    +0.005 C 
ATOM      3  C   UNL     1      34.106 -15.321 -23.053  0.00  0.00    +0.038 C 
ATOM      4  C   UNL     1      34.945 -17.403 -23.950  0.00  0.00    +0.001 C 
ATOM      5  C   UNL     1      33.646 -14.962 -24.319  0.00  0.00    +0.167 C 
ATOM      6  C   UNL     1      34.484 -17.042 -25.216  0.00  0.00    +0.040 C 
ATOM      7  C   UNL     1      33.834 -15.823 -25.401  0.00  0.00    +0.167 C 
BRANCH   5   8
ATOM      8  O   UNL     1      33.013 -13.767 -24.488  0.00  0.00    -0.503 OA
ATOM      9  H   UNL     1      33.024 -13.345 -25.325  0.00  0.00    +0.292 HD
ENDBRANCH   5   8
BRANCH   7  10
ATOM     10  O   UNL     1      33.389 -15.481 -26.642  0.00  0.00    -0.503 OA
ATOM     11  H   UNL     1      32.804 -14.757 -26.748  0.00  0.00    +0.292 HD
ENDBRANCH   7  10
ENDBRANCH   1   2
BRANCH   1  12
ATOM     12  O   UNL     1      34.867 -15.906 -20.594  0.00  0.00    -0.382 OA
ATOM     13  H   UNL     1      33.923 -15.989 -20.391  0.00  0.00    +0.211 HD
ENDBRANCH   1  12
BRANCH   1  14
ATOM     14  C   UNL     1      34.678 -18.280 -21.073  0.00  0.00    -0.047 C 
BRANCH  14  15
ATOM     15  N   UNL     1      35.741 -19.171 -20.632  0.00  0.00    +0.387 N 
ATOM     16  H   UNL     1      36.093 -18.851 -19.730  0.00  0.00    -0.084 HD
ATOM     17  H   UNL     1      36.486 -19.160 -21.328  0.00  0.00    -0.084 HD
BRANCH  15  18
ATOM     18  C   UNL     1      35.245 -20.540 -20.496  0.00  0.00    -0.062 C 
ATOM     19  C   UNL     1      33.749 -20.533 -20.199  0.00  0.00    -0.023 C 
ATOM     20  C   UNL     1      36.020 -21.253 -19.391  0.00  0.00    -0.023 C 
ENDBRANCH  15  18
ENDBRANCH  14  15
ENDBRANCH   1  14
TORSDOF 7
ENDMDL
MODEL 4
REMARK VINA RESULT:      -7.3      2.032      2.801
REMARK  Name = 3779
REMARK  7 active torsions:
REMARK  status: ('A' for Active; 'I' for Inactive)
REMARK    1  A    between atoms: C_1  and  C_2
REMARK    2  A    between atoms: C_1  and  O_12
REMARK    3  A    between atoms: C_1  and  C_14
REMARK    4  A    between atoms: C_5  and  O_8
REMARK    5  A    between atoms: C_7  and  O_10
REMARK    6  A    between atoms: C_14  and  N_15
REMARK    7  A    between atoms: N_15  and  C_18
REMARK                            x       y       z     vdW  Elec       q    Type
REMARK                         _______ _______ _______ _____ _____    ______ ____
ROOT
ATOM      1  C   UNL     1      35.430 -18.503 -21.902  0.00  0.00    +0.112 C 
ENDROOT
BRANCH   1   2
ATOM      2  C   UNL     1      35.305 -19.651 -20.923  0.00  0.00    +0.005 C 
ATOM      3  C   UNL     1      34.049 -20.154 -20.629  0.00  0.00    +0.038 C 
ATOM      4  C   UNL     1      36.449 -20.171 -20.343  0.00  0.00    +0.001 C 
ATOM      5  C   UNL     1      33.935 -21.211 -19.727  0.00  0.00    +0.167 C 
ATOM      6  C   UNL     1      36.333 -21.228 -19.440  0.00  0.00    +0.040 C 
ATOM      7  C   UNL     1      35.077 -21.748 -19.132  0.00  0.00    +0.167 C 
BRANCH   5   8
ATOM      8  O   UNL     1      32.702 -21.712 -19.434  0.00  0.00    -0.503 OA
ATOM      9  H   UNL     1      32.342 -22.404 -19.954  0.00  0.00    +0.292 HD
ENDBRANCH   5   8
BRANCH   7  10
ATOM     10  O   UNL     1      34.976 -22.782 -18.250  0.00  0.00    -0.503 OA
ATOM     11  H   UNL     1      34.717 -22.619 -17.365  0.00  0.00    +0.292 HD
ENDBRANCH   7  10
ENDBRANCH   1   2
BRANCH   1  12
ATOM     12  O   UNL     1      35.263 -19.022 -23.220  0.00  0.00    -0.382 OA
ATOM     13  H   UNL     1      35.502 -19.961 -23.231  0.00  0.00    +0.211 HD
ENDBRANCH   1  12
BRANCH   1  14
ATOM     14  C   UNL     1      34.388 -17.413 -21.623  0.00  0.00    -0.047 C 
BRANCH  14  15
ATOM     15  N   UNL     1      34.910 -16.424 -20.691  0.00  0.00    +0.387 N 
ATOM     16  H   UNL     1      35.927 -16.402 -20.763  0.00  0.00    -0.084 HD
ATOM     17  H   UNL     1      34.627 -16.684 -19.747  0.00  0.00    -0.084 HD
BRANCH  15  18
ATOM     18  C   UNL     1      34.377 -15.096 -20.993  0.00  0.00    -0.062 C 
ATOM     19  C   UNL     1      32.958 -14.961 -20.449  0.00  0.00    -0.023 C 
ATOM     20  C   UNL     1      34.410 -14.866 -22.501  0.00  0.00    -0.023 C 
ENDBRANCH  15  18
ENDBRANCH  14  15
ENDBRANCH   1  14
TORSDOF 7
ENDMDL
MODEL 5
REMARK VINA RESULT:      -7.0      3.136      6.396
REMARK  Name = 3779
REMARK  7 active torsions:
REMARK  status: ('A' for Active; 'I' for Inactive)
REMARK    1  A    between atoms: C_1  and  C_2
REMARK    2  A    between atoms: C_1  and  O_12
REMARK    3  A    between atoms: C_1  and  C_14
REMARK    4  A    between atoms: C_5  and  O_8
REMARK    5  A    between atoms: C_7  and  O_10
REMARK    6  A    between atoms: C_14  and  N_15
REMARK    7  A    between atoms: N_15  and  C_18
REMARK                            x       y       z     vdW  Elec       q    Type
REMARK                         _______ _______ _______ _____ _____    ______ ____
ROOT
ATOM      1  C   UNL     1      35.138 -18.136 -22.792  0.00  0.00    +0.112 C 
ENDROOT
BRANCH   1   2
ATOM      2  C   UNL     1      34.642 -16.834 -23.384  0.00  0.00    +0.005 C 
ATOM      3  C   UNL     1      34.260 -16.800 -24.714  0.00  0.00    +0.038 C 
ATOM      4  C   UNL     1      34.582 -15.708 -22.582  0.00  0.00    +0.001 C 
ATOM      5  C   UNL     1      33.803 -15.600 -25.259  0.00  0.00    +0.167 C 
ATOM      6  C   UNL     1      34.125 -14.508 -23.129  0.00  0.00    +0.040 C 
ATOM      7  C   UNL     1      33.736 -14.454 -24.467  0.00  0.00    +0.167 C 
BRANCH   5   8
ATOM      8  O   UNL     1      33.425 -15.559 -26.568  0.00  0.00    -0.503 OA
ATOM      9  H   UNL     1      33.863 -16.097 -27.199  0.00  0.00    +0.292 HD
ENDBRANCH   5   8
BRANCH   7  10
ATOM     10  O   UNL     1      33.290 -13.277 -24.989  0.00  0.00    -0.503 OA
ATOM     11  H   UNL     1      33.552 -12.465 -24.605  0.00  0.00    +0.292 HD
ENDBRANCH   7  10
ENDBRANCH   1   2
BRANCH   1  12
ATOM     12  O   UNL     1      36.550 -18.204 -22.986  0.00  0.00    -0.382 OA
ATOM     13  H   UNL     1      36.759 -18.932 -23.591  0.00  0.00    +0.211 HD
ENDBRANCH   1  12
BRANCH   1  14
ATOM     14  C   UNL     1      34.800 -18.239 -21.300  0.00  0.00    -0.047 C 
BRANCH  14  15
ATOM     15  N   UNL     1      35.774 -19.067 -20.605  0.00  0.00    +0.387 N 
ATOM     16  H   UNL     1      35.907 -18.707 -19.660  0.00  0.00    -0.084 HD
ATOM     17  H   UNL     1      36.653 -19.042 -21.122  0.00  0.00    -0.084 HD
BRANCH  15  18
ATOM     18  C   UNL     1      35.314 -20.453 -20.530  0.00  0.00    -0.062 C 
ATOM     19  C   UNL     1      33.826 -20.499 -20.196  0.00  0.00    -0.023 C 
ATOM     20  C   UNL     1      36.133 -21.204 -19.485  0.00  0.00    -0.023 C 
ENDBRANCH  15  18
ENDBRANCH  14  15
ENDBRANCH   1  14
TORSDOF 7
ENDMDL
MODEL 6
REMARK VINA RESULT:      -7.0      3.307      6.413
REMARK  Name = 3779
REMARK  7 active torsions:
REMARK  status: ('A' for Active; 'I' for Inactive)
REMARK    1  A    between atoms: C_1  and  C_2
REMARK    2  A    between atoms: C_1  and  O_12
REMARK    3  A    between atoms: C_1  and  C_14
REMARK    4  A    between atoms: C_5  and  O_8
REMARK    5  A    between atoms: C_7  and  O_10
REMARK    6  A    between atoms: C_14  and  N_15
REMARK    7  A    between atoms: N_15  and  C_18
REMARK                            x       y       z     vdW  Elec       q    Type
REMARK                         _______ _______ _______ _____ _____    ______ ____
ROOT
ATOM      1  C   UNL     1      35.095 -16.424 -21.414  0.00  0.00    +0.112 C 
ENDROOT
BRANCH   1   2
ATOM      2  C   UNL     1      34.512 -15.725 -22.623  0.00  0.00    +0.005 C 
ATOM      3  C   UNL     1      34.430 -16.408 -23.825  0.00  0.00    +0.038 C 
ATOM      4  C   UNL     1      34.074 -14.418 -22.501  0.00  0.00    +0.001 C 
ATOM      5  C   UNL     1      33.893 -15.763 -24.938  0.00  0.00    +0.167 C 
ATOM      6  C   UNL     1      33.537 -13.773 -23.616  0.00  0.00    +0.040 C 
ATOM      7  C   UNL     1      33.447 -14.445 -24.834  0.00  0.00    +0.167 C 
BRANCH   5   8
ATOM      8  O   UNL     1      33.809 -16.431 -26.123  0.00  0.00    -0.503 OA
ATOM      9  H   UNL     1      34.247 -17.252 -26.230  0.00  0.00    +0.292 HD
ENDBRANCH   5   8
BRANCH   7  10
ATOM     10  O   UNL     1      32.919 -13.806 -25.916  0.00  0.00    -0.503 OA
ATOM     11  H   UNL     1      32.358 -13.067 -25.795  0.00  0.00    +0.292 HD
ENDBRANCH   7  10
ENDBRANCH   1   2
BRANCH   1  12
ATOM     12  O   UNL     1      34.844 -15.616 -20.267  0.00  0.00    -0.382 OA
ATOM     13  H   UNL     1      35.490 -14.894 -20.231  0.00  0.00    +0.211 HD
ENDBRANCH   1  12
BRANCH   1  14
ATOM     14  C   UNL     1      34.486 -17.819 -21.226  0.00  0.00    -0.047 C 
BRANCH  14  15
ATOM     15  N   UNL     1      35.475 -18.748 -20.701  0.00  0.00    +0.387 N 
ATOM     16  H   UNL     1      35.644 -18.536 -19.717  0.00  0.00    -0.084 HD
ATOM     17  H   UNL     1      36.336 -18.648 -21.238  0.00  0.00    -0.084 HD
BRANCH  15  18
ATOM     18  C   UNL     1      35.005 -20.128 -20.821  0.00  0.00    -0.062 C 
ATOM     19  C   UNL     1      33.520 -20.211 -20.479  0.00  0.00    -0.023 C 
ATOM     20  C   UNL     1      35.830 -21.027 -19.905  0.00  0.00    -0.023 C 
ENDBRANCH  15  18
ENDBRANCH  14  15
ENDBRANCH   1  14
TORSDOF 7
ENDMDL
MODEL 7
REMARK VINA RESULT:      -6.8      7.717      9.336
REMARK  Name = 3779
REMARK  7 active torsions:
REMARK  status: ('A' for Active; 'I' for Inactive)
REMARK    1  A    between atoms: C_1  and  C_2
REMARK    2  A    between atoms: C_1  and  O_12
REMARK    3  A    between atoms: C_1  and  C_14
REMARK    4  A    between atoms: C_5  and  O_8
REMARK    5  A    between atoms: C_7  and  O_10
REMARK    6  A    between atoms: C_14  and  N_15
REMARK    7  A    between atoms: N_15  and  C_18
REMARK                            x       y       z     vdW  Elec       q    Type
REMARK                         _______ _______ _______ _____ _____    ______ ____
ROOT
ATOM      1  C   UNL     1      31.306 -23.166 -13.652  0.00  0.00    +0.112 C 
ENDROOT
BRANCH   1   2
ATOM      2  C   UNL     1      30.279 -23.440 -14.729  0.00  0.00    +0.005 C 
ATOM      3  C   UNL     1      29.509 -22.394 -15.209  0.00  0.00    +0.038 C 
ATOM      4  C   UNL     1      30.131 -24.729 -15.210  0.00  0.00    +0.001 C 
ATOM      5  C   UNL     1      28.562 -22.646 -16.201  0.00  0.00    +0.167 C 
ATOM      6  C   UNL     1      29.183 -24.981 -16.203  0.00  0.00    +0.040 C 
ATOM      7  C   UNL     1      28.398 -23.940 -16.698  0.00  0.00    +0.167 C 
BRANCH   5   8
ATOM      8  O   UNL     1      27.801 -21.621 -16.679  0.00  0.00    -0.503 OA
ATOM      9  H   UNL     1      28.057 -20.734 -16.517  0.00  0.00    +0.292 HD
ENDBRANCH   5   8
BRANCH   7  10
ATOM     10  O   UNL     1      27.477 -24.197 -17.668  0.00  0.00    -0.503 OA
ATOM     11  H   UNL     1      27.693 -24.763 -18.382  0.00  0.00    +0.292 HD
ENDBRANCH   7  10
ENDBRANCH   1   2
BRANCH   1  12
ATOM     12  O   UNL     1      30.801 -23.667 -12.416  0.00  0.00    -0.382 OA
ATOM     13  H   UNL     1      31.537 -23.972 -11.865  0.00  0.00    +0.211 HD
ENDBRANCH   1  12
BRANCH   1  14
ATOM     14  C   UNL     1      32.652 -23.823 -13.982  0.00  0.00    -0.047 C 
BRANCH  14  15
ATOM     15  N   UNL     1      33.521 -22.895 -14.690  0.00  0.00    +0.387 N 
ATOM     16  H   UNL     1      34.271 -22.597 -14.066  0.00  0.00    -0.084 HD
ATOM     17  H   UNL     1      32.967 -22.092 -14.989  0.00  0.00    -0.084 HD
BRANCH  15  18
ATOM     18  C   UNL     1      34.102 -23.530 -15.872  0.00  0.00    -0.062 C 
ATOM     19  C   UNL     1      35.505 -22.988 -16.127  0.00  0.00    -0.023 C 
ATOM     20  C   UNL     1      33.195 -23.291 -17.075  0.00  0.00    -0.023 C 
ENDBRANCH  15  18
ENDBRANCH  14  15
ENDBRANCH   1  14
TORSDOF 7
ENDMDL
MODEL 8
REMARK VINA RESULT:      -6.8      3.014      4.954
REMARK  Name = 3779
REMARK  7 active torsions:
REMARK  status: ('A' for Active; 'I' for Inactive)
REMARK    1  A    between atoms: C_1  and  C_2
REMARK    2  A    between atoms: C_1  and  O_12
REMARK    3  A    between atoms: C_1  and  C_14
REMARK    4  A    between atoms: C_5  and  O_8
REMARK    5  A    between atoms: C_7  and  O_10
REMARK    6  A    between atoms: C_14  and  N_15
REMARK    7  A    between atoms: N_15  and  C_18
REMARK                            x       y       z     vdW  Elec       q    Type
REMARK                         _______ _______ _______ _____ _____    ______ ____
ROOT
ATOM      1  C   UNL     1      34.160 -15.767 -24.968  0.00  0.00    +0.112 C 
ENDROOT
BRANCH   1   2
ATOM      2  C   UNL     1      34.622 -16.569 -23.771  0.00  0.00    +0.005 C 
ATOM      3  C   UNL     1      34.610 -15.980 -22.518  0.00  0.00    +0.038 C 
ATOM      4  C   UNL     1      35.047 -17.873 -23.955  0.00  0.00    +0.001 C 
ATOM      5  C   UNL     1      35.036 -16.719 -21.415  0.00  0.00    +0.167 C 
ATOM      6  C   UNL     1      35.474 -18.612 -22.851  0.00  0.00    +0.040 C 
ATOM      7  C   UNL     1      35.468 -18.035 -21.581  0.00  0.00    +0.167 C 
BRANCH   5   8
ATOM      8  O   UNL     1      35.025 -16.146 -20.179  0.00  0.00    -0.503 OA
ATOM      9  H   UNL     1      34.401 -16.427 -19.538  0.00  0.00    +0.292 HD
ENDBRANCH   5   8
BRANCH   7  10
ATOM     10  O   UNL     1      35.886 -18.767 -20.510  0.00  0.00    -0.503 OA
ATOM     11  H   UNL     1      36.664 -19.283 -20.570  0.00  0.00    +0.292 HD
ENDBRANCH   7  10
ENDBRANCH   1   2
BRANCH   1  12
ATOM     12  O   UNL     1      33.618 -16.671 -25.929  0.00  0.00    -0.382 OA
ATOM     13  H   UNL     1      34.306 -16.917 -26.566  0.00  0.00    +0.211 HD
ENDBRANCH   1  12
BRANCH   1  14
ATOM     14  C   UNL     1      33.111 -14.721 -24.571  0.00  0.00    -0.047 C 
BRANCH  14  15
ATOM     15  N   UNL     1      33.559 -13.381 -24.918  0.00  0.00    +0.387 N 
ATOM     16  H   UNL     1      32.901 -12.968 -25.578  0.00  0.00    -0.084 HD
ATOM     17  H   UNL     1      34.488 -13.445 -25.335  0.00  0.00    -0.084 HD
BRANCH  15  18
ATOM     18  C   UNL     1      33.638 -12.537 -23.726  0.00  0.00    -0.062 C 
ATOM     19  C   UNL     1      32.462 -12.824 -22.797  0.00  0.00    -0.023 C 
ATOM     20  C   UNL     1      33.661 -11.070 -24.144  0.00  0.00    -0.023 C 
ENDBRANCH  15  18
ENDBRANCH  14  15
ENDBRANCH   1  14
TORSDOF 7
ENDMDL
MODEL 9
REMARK VINA RESULT:      -6.8      8.319     10.069
REMARK  Name = 3779
REMARK  7 active torsions:
REMARK  status: ('A' for Active; 'I' for Inactive)
REMARK    1  A    between atoms: C_1  and  C_2
REMARK    2  A    between atoms: C_1  and  O_12
REMARK    3  A    between atoms: C_1  and  C_14
REMARK    4  A    between atoms: C_5  and  O_8
REMARK    5  A    between atoms: C_7  and  O_10
REMARK    6  A    between atoms: C_14  and  N_15
REMARK    7  A    between atoms: N_15  and  C_18
REMARK                            x       y       z     vdW  Elec       q    Type
REMARK                         _______ _______ _______ _____ _____    ______ ____
ROOT
ATOM      1  C   UNL     1      33.753 -24.515 -14.094  0.00  0.00    +0.112 C 
ENDROOT
BRANCH   1   2
ATOM      2  C   UNL     1      35.032 -24.092 -13.404  0.00  0.00    +0.005 C 
ATOM      3  C   UNL     1      35.133 -24.224 -12.029  0.00  0.00    +0.038 C 
ATOM      4  C   UNL     1      36.072 -23.581 -14.161  0.00  0.00    +0.001 C 
ATOM      5  C   UNL     1      36.311 -23.834 -11.393  0.00  0.00    +0.167 C 
ATOM      6  C   UNL     1      37.250 -23.191 -13.524  0.00  0.00    +0.040 C 
ATOM      7  C   UNL     1      37.370 -23.317 -12.140  0.00  0.00    +0.167 C 
BRANCH   5   8
ATOM      8  O   UNL     1      36.417 -23.964 -10.041  0.00  0.00    -0.503 OA
ATOM      9  H   UNL     1      36.133 -24.753  -9.622  0.00  0.00    +0.292 HD
ENDBRANCH   5   8
BRANCH   7  10
ATOM     10  O   UNL     1      38.525 -22.934 -11.529  0.00  0.00    -0.503 OA
ATOM     11  H   UNL     1      39.215 -23.553 -11.401  0.00  0.00    +0.292 HD
ENDBRANCH   7  10
ENDBRANCH   1   2
BRANCH   1  12
ATOM     12  O   UNL     1      32.837 -24.966 -13.098  0.00  0.00    -0.382 OA
ATOM     13  H   UNL     1      31.999 -24.487 -13.189  0.00  0.00    +0.211 HD
ENDBRANCH   1  12
BRANCH   1  14
ATOM     14  C   UNL     1      33.141 -23.361 -14.897  0.00  0.00    -0.047 C 
BRANCH  14  15
ATOM     15  N   UNL     1      32.010 -22.781 -14.189  0.00  0.00    +0.387 N 
ATOM     16  H   UNL     1      32.229 -21.816 -13.942  0.00  0.00    -0.084 HD
ATOM     17  H   UNL     1      31.834 -23.331 -13.348  0.00  0.00    -0.084 HD
BRANCH  15  18
ATOM     18  C   UNL     1      30.810 -22.804 -15.023  0.00  0.00    -0.062 C 
ATOM     19  C   UNL     1      29.909 -23.968 -14.623  0.00  0.00    -0.023 C 
ATOM     20  C   UNL     1      31.214 -22.903 -16.491  0.00  0.00    -0.023 C 
ENDBRANCH  15  18
ENDBRANCH  14  15
ENDBRANCH   1  14
TORSDOF 7
ENDMDL
