MODEL 1
REMARK VINA RESULT:     -10.4      0.000      0.000
REMARK  Name = 24751752
REMARK  5 active torsions:
REMARK  status: ('A' for Active; 'I' for Inactive)
REMARK    1  A    between atoms: S_1  and  N_4
REMARK    2  A    between atoms: S_1  and  C_18
REMARK    3  A    between atoms: C_7  and  O_10
REMARK    4  A    between atoms: O_10  and  C_13
REMARK    5  A    between atoms: C_18  and  C_23
REMARK                            x       y       z     vdW  Elec       q    Type
REMARK                         _______ _______ _______ _____ _____    ______ ____
ROOT
ATOM      1  S   UNL     1      36.075 -24.002 -15.169  0.00  0.00    +0.046 S 
ATOM      2  O   UNL     1      35.432 -25.296 -15.230  0.00  0.00    -0.157 OA
ATOM      3  O   UNL     1      35.781 -23.054 -14.118  0.00  0.00    -0.157 OA
ENDROOT
BRANCH   1   4
ATOM      4  N   UNL     1      35.883 -23.222 -16.683  0.00  0.00    -0.159 NA
ATOM      5  C   UNL     1      36.788 -22.058 -16.920  0.00  0.00    +0.099 C 
ATOM      6  C   UNL     1      34.473 -22.927 -17.073  0.00  0.00    +0.099 C 
ATOM      7  C   UNL     1      35.341 -21.391 -18.872  0.00  0.00    +0.170 C 
ATOM      8  C   UNL     1      36.764 -21.684 -18.397  0.00  0.00    +0.063 C 
ATOM      9  C   UNL     1      34.418 -22.564 -18.553  0.00  0.00    +0.063 C 
BRANCH   7  10
ATOM     10  O   UNL     1      35.338 -21.174 -20.278  0.00  0.00    -0.464 OA
BRANCH  10  13
ATOM     11 CL   UNL     1      34.054 -15.804 -22.097  0.00  0.00    -0.081 Cl
ATOM     12  N   UNL     1      36.031 -19.048 -20.897  0.00  0.00    -0.209 NA
ATOM     13  C   UNL     1      35.011 -19.915 -20.707  0.00  0.00    +0.225 C 
ATOM     14  C   UNL     1      33.678 -19.603 -20.920  0.00  0.00    +0.059 C 
ATOM     15  C   UNL     1      33.372 -18.318 -21.356  0.00  0.00    +0.018 C 
ATOM     16  C   UNL     1      35.696 -17.809 -21.320  0.00  0.00    +0.113 C 
ATOM     17  C   UNL     1      34.394 -17.398 -21.563  0.00  0.00    +0.077 C 
ENDBRANCH  10  13
ENDBRANCH   7  10
ENDBRANCH   1   4
BRANCH   1  18
ATOM     18  C   UNL     1      37.830 -24.259 -15.204  0.00  0.00    +0.196 C 
BRANCH  18  23
ATOM     19  O   UNL     1      38.015 -27.305 -15.032  0.00  0.00    -0.273 OA
ATOM     20  O   UNL     1      36.192 -25.557 -11.206  0.00  0.00    -0.252 OA
ATOM     21  N   UNL     1      37.650 -24.668 -12.802  0.00  0.00    -0.283 N 
ATOM     22  N   UNL     1      36.925 -26.755 -13.060  0.00  0.00    -0.238 N 
ATOM     23  C   UNL     1      38.292 -25.092 -14.030  0.00  0.00    +0.151 C 
ATOM     24  C   UNL     1      39.808 -25.105 -13.883  0.00  0.00    +0.031 C 
ATOM     25  C   UNL     1      37.749 -26.519 -14.133  0.00  0.00    +0.247 C 
ATOM     26  C   UNL     1      36.843 -25.655 -12.238  0.00  0.00    +0.307 C 
ATOM     27  H   UNL     1      37.771 -23.774 -12.406  0.00  0.00    +0.151 HD
ATOM     28  H   UNL     1      36.451 -27.603 -12.900  0.00  0.00    +0.159 HD
ENDBRANCH  18  23
ENDBRANCH   1  18
TORSDOF 5
ENDMDL
MODEL 2
REMARK VINA RESULT:     -10.4      1.400      2.242
REMARK  Name = 24751752
REMARK  5 active torsions:
REMARK  status: ('A' for Active; 'I' for Inactive)
REMARK    1  A    between atoms: S_1  and  N_4
REMARK    2  A    between atoms: S_1  and  C_18
REMARK    3  A    between atoms: C_7  and  O_10
REMARK    4  A    between atoms: O_10  and  C_13
REMARK    5  A    between atoms: C_18  and  C_23
REMARK                            x       y       z     vdW  Elec       q    Type
REMARK                         _______ _______ _______ _____ _____    ______ ____
ROOT
ATOM      1  S   UNL     1      34.810 -24.356 -14.991  0.00  0.00    +0.046 S 
ATOM      2  O   UNL     1      35.377 -25.683 -15.091  0.00  0.00    -0.157 OA
ATOM      3  O   UNL     1      33.448 -24.141 -14.555  0.00  0.00    -0.157 OA
ENDROOT
BRANCH   1   4
ATOM      4  N   UNL     1      35.047 -23.544 -16.480  0.00  0.00    -0.159 NA
ATOM      5  C   UNL     1      36.018 -22.411 -16.442  0.00  0.00    +0.099 C 
ATOM      6  C   UNL     1      33.798 -23.189 -17.218  0.00  0.00    +0.099 C 
ATOM      7  C   UNL     1      35.155 -21.657 -18.686  0.00  0.00    +0.170 C 
ATOM      8  C   UNL     1      36.394 -22.011 -17.864  0.00  0.00    +0.063 C 
ATOM      9  C   UNL     1      34.143 -22.799 -18.650  0.00  0.00    +0.063 C 
BRANCH   7  10
ATOM     10  O   UNL     1      35.527 -21.416 -20.038  0.00  0.00    -0.464 OA
BRANCH  10  13
ATOM     11 CL   UNL     1      34.397 -16.136 -22.193  0.00  0.00    -0.081 Cl
ATOM     12  N   UNL     1      36.278 -19.342 -20.759  0.00  0.00    -0.209 NA
ATOM     13  C   UNL     1      35.236 -20.178 -20.547  0.00  0.00    +0.225 C 
ATOM     14  C   UNL     1      33.916 -19.853 -20.811  0.00  0.00    +0.059 C 
ATOM     15  C   UNL     1      33.646 -18.590 -21.327  0.00  0.00    +0.018 C 
ATOM     16  C   UNL     1      35.978 -18.124 -21.261  0.00  0.00    +0.113 C 
ATOM     17  C   UNL     1      34.692 -17.703 -21.560  0.00  0.00    +0.077 C 
ENDBRANCH  10  13
ENDBRANCH   7  10
ENDBRANCH   1   4
BRANCH   1  18
ATOM     18  C   UNL     1      35.877 -23.379 -13.964  0.00  0.00    +0.196 C 
BRANCH  18  23
ATOM     19  O   UNL     1      37.380 -22.351 -11.509  0.00  0.00    -0.273 OA
ATOM     20  O   UNL     1      39.416 -26.080 -13.230  0.00  0.00    -0.252 OA
ATOM     21  N   UNL     1      37.206 -25.320 -13.302  0.00  0.00    -0.283 N 
ATOM     22  N   UNL     1      38.723 -24.101 -12.225  0.00  0.00    -0.238 N 
ATOM     23  C   UNL     1      36.440 -24.190 -12.818  0.00  0.00    +0.151 C 
ATOM     24  C   UNL     1      35.365 -24.634 -11.834  0.00  0.00    +0.031 C 
ATOM     25  C   UNL     1      37.542 -23.411 -12.097  0.00  0.00    +0.247 C 
ATOM     26  C   UNL     1      38.554 -25.258 -12.949  0.00  0.00    +0.307 C 
ATOM     27  H   UNL     1      36.815 -26.057 -13.827  0.00  0.00    +0.151 HD
ATOM     28  H   UNL     1      39.583 -23.804 -11.847  0.00  0.00    +0.159 HD
ENDBRANCH  18  23
ENDBRANCH   1  18
TORSDOF 5
ENDMDL
MODEL 3
REMARK VINA RESULT:     -10.0      5.102     10.477
REMARK  Name = 24751752
REMARK  5 active torsions:
REMARK  status: ('A' for Active; 'I' for Inactive)
REMARK    1  A    between atoms: S_1  and  N_4
REMARK    2  A    between atoms: S_1  and  C_18
REMARK    3  A    between atoms: C_7  and  O_10
REMARK    4  A    between atoms: O_10  and  C_13
REMARK    5  A    between atoms: C_18  and  C_23
REMARK                            x       y       z     vdW  Elec       q    Type
REMARK                         _______ _______ _______ _____ _____    ______ ____
ROOT
ATOM      1  S   UNL     1      34.873 -18.264 -22.432  0.00  0.00    +0.046 S 
ATOM      2  O   UNL     1      34.240 -18.531 -23.705  0.00  0.00    -0.157 OA
ATOM      3  O   UNL     1      36.247 -17.826 -22.342  0.00  0.00    -0.157 OA
ENDROOT
BRANCH   1   4
ATOM      4  N   UNL     1      34.662 -19.629 -21.418  0.00  0.00    -0.159 NA
ATOM      5  C   UNL     1      33.391 -19.652 -20.636  0.00  0.00    +0.099 C 
ATOM      6  C   UNL     1      35.845 -19.988 -20.580  0.00  0.00    +0.099 C 
ATOM      7  C   UNL     1      34.358 -21.489 -19.208  0.00  0.00    +0.170 C 
ATOM      8  C   UNL     1      33.170 -21.046 -20.061  0.00  0.00    +0.063 C 
ATOM      9  C   UNL     1      35.657 -21.386 -20.003  0.00  0.00    +0.063 C 
BRANCH   7  10
ATOM     10  O   UNL     1      34.178 -22.839 -18.795  0.00  0.00    -0.464 OA
BRANCH  10  13
ATOM     11 CL   UNL     1      31.431 -23.671 -13.740  0.00  0.00    -0.081 Cl
ATOM     12  N   UNL     1      32.202 -22.992 -17.589  0.00  0.00    -0.209 NA
ATOM     13  C   UNL     1      33.554 -23.038 -17.592  0.00  0.00    +0.225 C 
ATOM     14  C   UNL     1      34.324 -23.272 -16.465  0.00  0.00    +0.059 C 
ATOM     15  C   UNL     1      33.666 -23.472 -15.257  0.00  0.00    +0.018 C 
ATOM     16  C   UNL     1      31.597 -23.191 -16.397  0.00  0.00    +0.113 C 
ATOM     17  C   UNL     1      32.277 -23.432 -15.213  0.00  0.00    +0.077 C 
ENDBRANCH  10  13
ENDBRANCH   7  10
ENDBRANCH   1   4
BRANCH   1  18
ATOM     18  C   UNL     1      33.864 -17.100 -21.552  0.00  0.00    +0.196 C 
BRANCH  18  23
ATOM     19  O   UNL     1      31.974 -14.708 -21.342  0.00  0.00    -0.273 OA
ATOM     20  O   UNL     1      33.943 -14.879 -25.478  0.00  0.00    -0.252 OA
ATOM     21  N   UNL     1      34.616 -15.666 -23.382  0.00  0.00    -0.283 N 
ATOM     22  N   UNL     1      32.666 -14.610 -23.554  0.00  0.00    -0.238 N 
ATOM     23  C   UNL     1      34.109 -15.684 -22.025  0.00  0.00    +0.151 C 
ATOM     24  C   UNL     1      35.019 -14.904 -21.086  0.00  0.00    +0.031 C 
ATOM     25  C   UNL     1      32.783 -14.947 -22.227  0.00  0.00    +0.247 C 
ATOM     26  C   UNL     1      33.756 -15.032 -24.278  0.00  0.00    +0.307 C 
ATOM     27  H   UNL     1      35.479 -16.062 -23.645  0.00  0.00    +0.151 HD
ATOM     28  H   UNL     1      31.898 -14.128 -23.937  0.00  0.00    +0.159 HD
ENDBRANCH  18  23
ENDBRANCH   1  18
TORSDOF 5
ENDMDL
MODEL 4
REMARK VINA RESULT:      -9.5      2.337      3.611
REMARK  Name = 24751752
REMARK  5 active torsions:
REMARK  status: ('A' for Active; 'I' for Inactive)
REMARK    1  A    between atoms: S_1  and  N_4
REMARK    2  A    between atoms: S_1  and  C_18
REMARK    3  A    between atoms: C_7  and  O_10
REMARK    4  A    between atoms: O_10  and  C_13
REMARK    5  A    between atoms: C_18  and  C_23
REMARK                            x       y       z     vdW  Elec       q    Type
REMARK                         _______ _______ _______ _____ _____    ______ ____
ROOT
ATOM      1  S   UNL     1      33.503 -23.101 -17.961  0.00  0.00    +0.046 S 
ATOM      2  O   UNL     1      33.651 -24.456 -18.445  0.00  0.00    -0.157 OA
ATOM      3  O   UNL     1      32.253 -22.617 -17.419  0.00  0.00    -0.157 OA
ENDROOT
BRANCH   1   4
ATOM      4  N   UNL     1      34.028 -22.022 -19.184  0.00  0.00    -0.159 NA
ATOM      5  C   UNL     1      35.439 -21.550 -19.055  0.00  0.00    +0.099 C 
ATOM      6  C   UNL     1      33.087 -20.905 -19.494  0.00  0.00    +0.099 C 
ATOM      7  C   UNL     1      34.942 -19.753 -20.751  0.00  0.00    +0.170 C 
ATOM      8  C   UNL     1      35.880 -20.895 -20.359  0.00  0.00    +0.063 C 
ATOM      9  C   UNL     1      33.497 -20.241 -20.804  0.00  0.00    +0.063 C 
BRANCH   7  10
ATOM     10  O   UNL     1      35.304 -19.251 -22.032  0.00  0.00    -0.464 OA
BRANCH  10  13
ATOM     11 CL   UNL     1      34.146 -13.672 -23.182  0.00  0.00    -0.081 Cl
ATOM     12  N   UNL     1      34.909 -17.562 -23.573  0.00  0.00    -0.209 NA
ATOM     13  C   UNL     1      35.031 -17.932 -22.278  0.00  0.00    +0.225 C 
ATOM     14  C   UNL     1      34.896 -17.063 -21.208  0.00  0.00    +0.059 C 
ATOM     15  C   UNL     1      34.618 -15.728 -21.484  0.00  0.00    +0.018 C 
ATOM     16  C   UNL     1      34.639 -16.258 -23.803  0.00  0.00    +0.113 C 
ATOM     17  C   UNL     1      34.486 -15.310 -22.804  0.00  0.00    +0.077 C 
ENDBRANCH  10  13
ENDBRANCH   7  10
ENDBRANCH   1   4
BRANCH   1  18
ATOM     18  C   UNL     1      34.775 -22.806 -16.759  0.00  0.00    +0.196 C 
BRANCH  18  23
ATOM     19  O   UNL     1      36.198 -22.608 -14.062  0.00  0.00    -0.273 OA
ATOM     20  O   UNL     1      36.232 -26.920 -15.618  0.00  0.00    -0.252 OA
ATOM     21  N   UNL     1      34.781 -25.125 -15.990  0.00  0.00    -0.283 N 
ATOM     22  N   UNL     1      36.526 -24.830 -14.642  0.00  0.00    -0.238 N 
ATOM     23  C   UNL     1      34.651 -23.742 -15.578  0.00  0.00    +0.151 C 
ATOM     24  C   UNL     1      33.367 -23.521 -14.790  0.00  0.00    +0.031 C 
ATOM     25  C   UNL     1      35.872 -23.622 -14.664  0.00  0.00    +0.247 C 
ATOM     26  C   UNL     1      35.893 -25.759 -15.434  0.00  0.00    +0.307 C 
ATOM     27  H   UNL     1      34.150 -25.572 -16.601  0.00  0.00    +0.151 HD
ATOM     28  H   UNL     1      37.345 -25.008 -14.124  0.00  0.00    +0.159 HD
ENDBRANCH  18  23
ENDBRANCH   1  18
TORSDOF 5
ENDMDL
MODEL 5
REMARK VINA RESULT:      -9.5      6.548     10.296
REMARK  Name = 24751752
REMARK  5 active torsions:
REMARK  status: ('A' for Active; 'I' for Inactive)
REMARK    1  A    between atoms: S_1  and  N_4
REMARK    2  A    between atoms: S_1  and  C_18
REMARK    3  A    between atoms: C_7  and  O_10
REMARK    4  A    between atoms: O_10  and  C_13
REMARK    5  A    between atoms: C_18  and  C_23
REMARK                            x       y       z     vdW  Elec       q    Type
REMARK                         _______ _______ _______ _____ _____    ______ ____
ROOT
ATOM      1  S   UNL     1      34.816 -16.402 -21.553  0.00  0.00    +0.046 S 
ATOM      2  O   UNL     1      35.342 -16.394 -20.206  0.00  0.00    -0.157 OA
ATOM      3  O   UNL     1      35.680 -16.503 -22.708  0.00  0.00    -0.157 OA
ENDROOT
BRANCH   1   4
ATOM      4  N   UNL     1      33.792 -15.042 -21.749  0.00  0.00    -0.159 NA
ATOM      5  C   UNL     1      34.215 -14.071 -22.801  0.00  0.00    +0.099 C 
ATOM      6  C   UNL     1      33.389 -14.361 -20.483  0.00  0.00    +0.099 C 
ATOM      7  C   UNL     1      32.586 -12.401 -21.848  0.00  0.00    +0.170 C 
ATOM      8  C   UNL     1      33.066 -13.118 -23.109  0.00  0.00    +0.063 C 
ATOM      9  C   UNL     1      32.229 -13.411 -20.760  0.00  0.00    +0.063 C 
BRANCH   7  10
ATOM     10  O   UNL     1      31.433 -11.622 -22.146  0.00  0.00    -0.464 OA
BRANCH  10  13
ATOM     11 CL   UNL     1      31.937  -5.847 -21.712  0.00  0.00    -0.081 Cl
ATOM     12  N   UNL     1      31.357  -9.523 -23.133  0.00  0.00    -0.209 NA
ATOM     13  C   UNL     1      31.557 -10.264 -22.019  0.00  0.00    +0.225 C 
ATOM     14  C   UNL     1      31.874  -9.731 -20.780  0.00  0.00    +0.059 C 
ATOM     15  C   UNL     1      31.994  -8.349 -20.677  0.00  0.00    +0.018 C 
ATOM     16  C   UNL     1      31.481  -8.185 -22.995  0.00  0.00    +0.113 C 
ATOM     17  C   UNL     1      31.795  -7.554 -21.801  0.00  0.00    +0.077 C 
ENDBRANCH  10  13
ENDBRANCH   7  10
ENDBRANCH   1   4
BRANCH   1  18
ATOM     18  C   UNL     1      33.600 -17.689 -21.659  0.00  0.00    +0.196 C 
BRANCH  18  23
ATOM     19  O   UNL     1      32.402 -20.434 -21.052  0.00  0.00    -0.273 OA
ATOM     20  O   UNL     1      36.762 -20.204 -19.652  0.00  0.00    -0.252 OA
ATOM     21  N   UNL     1      35.586 -19.073 -21.326  0.00  0.00    -0.283 N 
ATOM     22  N   UNL     1      34.510 -20.581 -20.095  0.00  0.00    -0.238 N 
ATOM     23  C   UNL     1      34.241 -19.043 -21.865  0.00  0.00    +0.151 C 
ATOM     24  C   UNL     1      34.222 -19.482 -23.323  0.00  0.00    +0.031 C 
ATOM     25  C   UNL     1      33.575 -20.095 -20.976  0.00  0.00    +0.247 C 
ATOM     26  C   UNL     1      35.735 -19.982 -20.279  0.00  0.00    +0.307 C 
ATOM     27  H   UNL     1      36.319 -18.508 -21.664  0.00  0.00    +0.151 HD
ATOM     28  H   UNL     1      34.327 -21.271 -19.416  0.00  0.00    +0.159 HD
ENDBRANCH  18  23
ENDBRANCH   1  18
TORSDOF 5
ENDMDL
MODEL 6
REMARK VINA RESULT:      -9.4      1.955      2.375
REMARK  Name = 24751752
REMARK  5 active torsions:
REMARK  status: ('A' for Active; 'I' for Inactive)
REMARK    1  A    between atoms: S_1  and  N_4
REMARK    2  A    between atoms: S_1  and  C_18
REMARK    3  A    between atoms: C_7  and  O_10
REMARK    4  A    between atoms: O_10  and  C_13
REMARK    5  A    between atoms: C_18  and  C_23
REMARK                            x       y       z     vdW  Elec       q    Type
REMARK                         _______ _______ _______ _____ _____    ______ ____
ROOT
ATOM      1  S   UNL     1      34.422 -23.718 -16.051  0.00  0.00    +0.046 S 
ATOM      2  O   UNL     1      34.794 -25.108 -16.195  0.00  0.00    -0.157 OA
ATOM      3  O   UNL     1      33.114 -23.324 -15.576  0.00  0.00    -0.157 OA
ENDROOT
BRANCH   1   4
ATOM      4  N   UNL     1      34.737 -22.910 -17.529  0.00  0.00    -0.159 NA
ATOM      5  C   UNL     1      35.870 -21.938 -17.496  0.00  0.00    +0.099 C 
ATOM      6  C   UNL     1      33.536 -22.351 -18.218  0.00  0.00    +0.099 C 
ATOM      7  C   UNL     1      35.069 -21.001 -19.693  0.00  0.00    +0.170 C 
ATOM      8  C   UNL     1      36.262 -21.560 -18.919  0.00  0.00    +0.063 C 
ATOM      9  C   UNL     1      33.897 -21.978 -19.652  0.00  0.00    +0.063 C 
BRANCH   7  10
ATOM     10  O   UNL     1      35.436 -20.781 -21.050  0.00  0.00    -0.464 OA
BRANCH  10  13
ATOM     11 CL   UNL     1      34.709 -15.362 -23.025  0.00  0.00    -0.081 Cl
ATOM     12  N   UNL     1      35.372 -18.496 -20.656  0.00  0.00    -0.209 NA
ATOM     13  C   UNL     1      35.261 -19.513 -21.539  0.00  0.00    +0.225 C 
ATOM     14  C   UNL     1      34.985 -19.344 -22.886  0.00  0.00    +0.059 C 
ATOM     15  C   UNL     1      34.812 -18.048 -23.358  0.00  0.00    +0.018 C 
ATOM     16  C   UNL     1      35.198 -17.250 -21.150  0.00  0.00    +0.113 C 
ATOM     17  C   UNL     1      34.919 -16.975 -22.479  0.00  0.00    +0.077 C 
ENDBRANCH  10  13
ENDBRANCH   7  10
ENDBRANCH   1   4
BRANCH   1  18
ATOM     18  C   UNL     1      35.640 -22.927 -15.032  0.00  0.00    +0.196 C 
BRANCH  18  23
ATOM     19  O   UNL     1      34.243 -24.144 -12.602  0.00  0.00    -0.273 OA
ATOM     20  O   UNL     1      38.469 -22.733 -11.523  0.00  0.00    -0.252 OA
ATOM     21  N   UNL     1      37.509 -23.426 -13.539  0.00  0.00    -0.283 N 
ATOM     22  N   UNL     1      36.247 -23.395 -11.707  0.00  0.00    -0.238 N 
ATOM     23  C   UNL     1      36.220 -23.885 -14.016  0.00  0.00    +0.151 C 
ATOM     24  C   UNL     1      36.304 -25.312 -14.541  0.00  0.00    +0.031 C 
ATOM     25  C   UNL     1      35.422 -23.837 -12.711  0.00  0.00    +0.247 C 
ATOM     26  C   UNL     1      37.515 -23.136 -12.175  0.00  0.00    +0.307 C 
ATOM     27  H   UNL     1      38.299 -23.327 -14.119  0.00  0.00    +0.151 HD
ATOM     28  H   UNL     1      35.967 -23.277 -10.770  0.00  0.00    +0.159 HD
ENDBRANCH  18  23
ENDBRANCH   1  18
TORSDOF 5
ENDMDL
MODEL 7
REMARK VINA RESULT:      -9.4      2.910      3.937
REMARK  Name = 24751752
REMARK  5 active torsions:
REMARK  status: ('A' for Active; 'I' for Inactive)
REMARK    1  A    between atoms: S_1  and  N_4
REMARK    2  A    between atoms: S_1  and  C_18
REMARK    3  A    between atoms: C_7  and  O_10
REMARK    4  A    between atoms: O_10  and  C_13
REMARK    5  A    between atoms: C_18  and  C_23
REMARK                            x       y       z     vdW  Elec       q    Type
REMARK                         _______ _______ _______ _____ _____    ______ ____
ROOT
ATOM      1  S   UNL     1      34.489 -23.484 -16.269  0.00  0.00    +0.046 S 
ATOM      2  O   UNL     1      34.863 -22.585 -15.200  0.00  0.00    -0.157 OA
ATOM      3  O   UNL     1      35.020 -24.826 -16.357  0.00  0.00    -0.157 OA
ENDROOT
BRANCH   1   4
ATOM      4  N   UNL     1      34.744 -22.692 -17.766  0.00  0.00    -0.159 NA
ATOM      5  C   UNL     1      35.944 -21.806 -17.824  0.00  0.00    +0.099 C 
ATOM      6  C   UNL     1      33.536 -22.041 -18.356  0.00  0.00    +0.099 C 
ATOM      7  C   UNL     1      35.041 -20.798 -19.948  0.00  0.00    +0.170 C 
ATOM      8  C   UNL     1      36.248 -21.449 -19.274  0.00  0.00    +0.063 C 
ATOM      9  C   UNL     1      33.807 -21.686 -19.813  0.00  0.00    +0.063 C 
BRANCH   7  10
ATOM     10  O   UNL     1      35.312 -20.596 -21.331  0.00  0.00    -0.464 OA
BRANCH  10  13
ATOM     11 CL   UNL     1      34.703 -15.147 -23.259  0.00  0.00    -0.081 Cl
ATOM     12  N   UNL     1      35.247 -18.316 -20.908  0.00  0.00    -0.209 NA
ATOM     13  C   UNL     1      35.166 -19.321 -21.809  0.00  0.00    +0.225 C 
ATOM     14  C   UNL     1      34.947 -19.132 -23.164  0.00  0.00    +0.059 C 
ATOM     15  C   UNL     1      34.802 -17.828 -23.624  0.00  0.00    +0.018 C 
ATOM     16  C   UNL     1      35.101 -17.063 -21.392  0.00  0.00    +0.113 C 
ATOM     17  C   UNL     1      34.880 -16.768 -22.728  0.00  0.00    +0.077 C 
ENDBRANCH  10  13
ENDBRANCH   7  10
ENDBRANCH   1   4
BRANCH   1  18
ATOM     18  C   UNL     1      32.718 -23.589 -16.303  0.00  0.00    +0.196 C 
BRANCH  18  23
ATOM     19  O   UNL     1      30.959 -22.133 -14.272  0.00  0.00    -0.273 OA
ATOM     20  O   UNL     1      34.274 -24.498 -12.167  0.00  0.00    -0.252 OA
ATOM     21  N   UNL     1      33.205 -24.782 -14.226  0.00  0.00    -0.283 N 
ATOM     22  N   UNL     1      32.599 -23.077 -12.931  0.00  0.00    -0.238 N 
ATOM     23  C   UNL     1      32.169 -24.129 -15.001  0.00  0.00    +0.151 C 
ATOM     24  C   UNL     1      30.973 -25.049 -15.208  0.00  0.00    +0.031 C 
ATOM     25  C   UNL     1      31.810 -22.983 -14.052  0.00  0.00    +0.247 C 
ATOM     26  C   UNL     1      33.454 -24.152 -13.006  0.00  0.00    +0.307 C 
ATOM     27  H   UNL     1      33.685 -25.587 -14.530  0.00  0.00    +0.151 HD
ATOM     28  H   UNL     1      32.558 -22.453 -12.170  0.00  0.00    +0.159 HD
ENDBRANCH  18  23
ENDBRANCH   1  18
TORSDOF 5
ENDMDL
MODEL 8
REMARK VINA RESULT:      -9.4      1.407      1.676
REMARK  Name = 24751752
REMARK  5 active torsions:
REMARK  status: ('A' for Active; 'I' for Inactive)
REMARK    1  A    between atoms: S_1  and  N_4
REMARK    2  A    between atoms: S_1  and  C_18
REMARK    3  A    between atoms: C_7  and  O_10
REMARK    4  A    between atoms: O_10  and  C_13
REMARK    5  A    between atoms: C_18  and  C_23
REMARK                            x       y       z     vdW  Elec       q    Type
REMARK                         _______ _______ _______ _____ _____    ______ ____
ROOT
ATOM      1  S   UNL     1      35.722 -24.345 -14.981  0.00  0.00    +0.046 S 
ATOM      2  O   UNL     1      36.265 -25.661 -15.239  0.00  0.00    -0.157 OA
ATOM      3  O   UNL     1      34.600 -24.144 -14.092  0.00  0.00    -0.157 OA
ENDROOT
BRANCH   1   4
ATOM      4  N   UNL     1      35.379 -23.591 -16.481  0.00  0.00    -0.159 NA
ATOM      5  C   UNL     1      36.226 -22.405 -16.807  0.00  0.00    +0.099 C 
ATOM      6  C   UNL     1      33.932 -23.340 -16.751  0.00  0.00    +0.099 C 
ATOM      7  C   UNL     1      34.598 -21.804 -18.634  0.00  0.00    +0.170 C 
ATOM      8  C   UNL     1      36.064 -22.051 -18.281  0.00  0.00    +0.063 C 
ATOM      9  C   UNL     1      33.739 -22.998 -18.224  0.00  0.00    +0.063 C 
BRANCH   7  10
ATOM     10  O   UNL     1      34.467 -21.605 -20.037  0.00  0.00    -0.464 OA
BRANCH  10  13
ATOM     11 CL   UNL     1      34.897 -16.140 -21.969  0.00  0.00    -0.081 Cl
ATOM     12  N   UNL     1      33.452 -19.617 -20.671  0.00  0.00    -0.209 NA
ATOM     13  C   UNL     1      34.594 -20.320 -20.492  0.00  0.00    +0.225 C 
ATOM     14  C   UNL     1      35.860 -19.817 -20.742  0.00  0.00    +0.059 C 
ATOM     15  C   UNL     1      35.962 -18.509 -21.203  0.00  0.00    +0.018 C 
ATOM     16  C   UNL     1      33.590 -18.350 -21.120  0.00  0.00    +0.113 C 
ATOM     17  C   UNL     1      34.810 -17.755 -21.398  0.00  0.00    +0.077 C 
ENDBRANCH  10  13
ENDBRANCH   7  10
ENDBRANCH   1   4
BRANCH   1  18
ATOM     18  C   UNL     1      37.050 -23.301 -14.438  0.00  0.00    +0.196 C 
BRANCH  18  23
ATOM     19  O   UNL     1      39.864 -24.462 -14.169  0.00  0.00    -0.273 OA
ATOM     20  O   UNL     1      36.809 -27.034 -11.916  0.00  0.00    -0.252 OA
ATOM     21  N   UNL     1      36.835 -24.769 -12.497  0.00  0.00    -0.283 N 
ATOM     22  N   UNL     1      38.560 -26.045 -13.085  0.00  0.00    -0.238 N 
ATOM     23  C   UNL     1      37.709 -23.845 -13.191  0.00  0.00    +0.151 C 
ATOM     24  C   UNL     1      38.198 -22.743 -12.259  0.00  0.00    +0.031 C 
ATOM     25  C   UNL     1      38.857 -24.790 -13.556  0.00  0.00    +0.247 C 
ATOM     26  C   UNL     1      37.345 -26.067 -12.441  0.00  0.00    +0.307 C 
ATOM     27  H   UNL     1      35.970 -24.509 -12.105  0.00  0.00    +0.151 HD
ATOM     28  H   UNL     1      39.143 -26.831 -13.195  0.00  0.00    +0.159 HD
ENDBRANCH  18  23
ENDBRANCH   1  18
TORSDOF 5
ENDMDL
MODEL 9
REMARK VINA RESULT:      -9.3      8.414     13.773
REMARK  Name = 24751752
REMARK  5 active torsions:
REMARK  status: ('A' for Active; 'I' for Inactive)
REMARK    1  A    between atoms: S_1  and  N_4
REMARK    2  A    between atoms: S_1  and  C_18
REMARK    3  A    between atoms: C_7  and  O_10
REMARK    4  A    between atoms: O_10  and  C_13
REMARK    5  A    between atoms: C_18  and  C_23
REMARK                            x       y       z     vdW  Elec       q    Type
REMARK                         _______ _______ _______ _____ _____    ______ ____
ROOT
ATOM      1  S   UNL     1      31.710 -11.555 -21.574  0.00  0.00    +0.046 S 
ATOM      2  O   UNL     1      32.168 -11.254 -20.236  0.00  0.00    -0.157 OA
ATOM      3  O   UNL     1      30.314 -11.467 -21.940  0.00  0.00    -0.157 OA
ENDROOT
BRANCH   1   4
ATOM      4  N   UNL     1      32.301 -13.100 -22.022  0.00  0.00    -0.159 NA
ATOM      5  C   UNL     1      32.684 -13.990 -20.887  0.00  0.00    +0.099 C 
ATOM      6  C   UNL     1      33.326 -13.099 -23.108  0.00  0.00    +0.099 C 
ATOM      7  C   UNL     1      33.876 -15.488 -22.525  0.00  0.00    +0.170 C 
ATOM      8  C   UNL     1      32.853 -15.418 -21.391  0.00  0.00    +0.063 C 
ATOM      9  C   UNL     1      33.505 -14.516 -23.642  0.00  0.00    +0.063 C 
BRANCH   7  10
ATOM     10  O   UNL     1      33.914 -16.807 -23.059  0.00  0.00    -0.464 OA
BRANCH  10  13
ATOM     11 CL   UNL     1      36.586 -20.832 -19.827  0.00  0.00    -0.081 Cl
ATOM     12  N   UNL     1      35.869 -17.712 -22.198  0.00  0.00    -0.209 NA
ATOM     13  C   UNL     1      34.521 -17.765 -22.291  0.00  0.00    +0.225 C 
ATOM     14  C   UNL     1      33.737 -18.720 -21.664  0.00  0.00    +0.059 C 
ATOM     15  C   UNL     1      34.377 -19.682 -20.890  0.00  0.00    +0.018 C 
ATOM     16  C   UNL     1      36.456 -18.663 -21.438  0.00  0.00    +0.113 C 
ATOM     17  C   UNL     1      35.763 -19.660 -20.770  0.00  0.00    +0.077 C 
ENDBRANCH  10  13
ENDBRANCH   7  10
ENDBRANCH   1   4
BRANCH   1  18
ATOM     18  C   UNL     1      32.640 -10.557 -22.710  0.00  0.00    +0.196 C 
BRANCH  18  23
ATOM     19  O   UNL     1      34.218  -8.145 -23.725  0.00  0.00    -0.273 OA
ATOM     20  O   UNL     1      32.586  -7.378 -19.510  0.00  0.00    -0.252 OA
ATOM     21  N   UNL     1      31.860  -8.760 -21.250  0.00  0.00    -0.283 N 
ATOM     22  N   UNL     1      33.681  -7.519 -21.556  0.00  0.00    -0.238 N 
ATOM     23  C   UNL     1      32.267  -9.096 -22.599  0.00  0.00    +0.151 C 
ATOM     24  C   UNL     1      31.206  -8.686 -23.613  0.00  0.00    +0.031 C 
ATOM     25  C   UNL     1      33.508  -8.211 -22.730  0.00  0.00    +0.247 C 
ATOM     26  C   UNL     1      32.703  -7.830 -20.641  0.00  0.00    +0.307 C 
ATOM     27  H   UNL     1      31.071  -9.149 -20.807  0.00  0.00    +0.151 HD
ATOM     28  H   UNL     1      34.413  -6.882 -21.391  0.00  0.00    +0.159 HD
ENDBRANCH  18  23
ENDBRANCH   1  18
TORSDOF 5
ENDMDL
