MODEL 1
REMARK VINA RESULT:      -6.2      0.000      0.000
REMARK  Name = 193758
REMARK  6 active torsions:
REMARK  status: ('A' for Active; 'I' for Inactive)
REMARK    1  A    between atoms: C_1  and  O_11
REMARK    2  A    between atoms: C_2  and  O_13
REMARK    3  A    between atoms: C_3  and  N_7
REMARK    4  A    between atoms: C_4  and  O_15
REMARK    5  A    between atoms: C_5  and  C_17
REMARK    6  A    between atoms: C_17  and  O_18
REMARK                            x       y       z     vdW  Elec       q    Type
REMARK                         _______ _______ _______ _____ _____    ______ ____
ROOT
ATOM      1  C   UNL     1      36.395 -25.057 -13.186  0.00  0.00    +0.124 C 
ATOM      2  C   UNL     1      36.569 -25.459 -14.658  0.00  0.00    +0.166 C 
ATOM      3  C   UNL     1      37.465 -24.030 -12.756  0.00  0.00    -0.013 C 
ATOM      4  C   UNL     1      37.980 -26.000 -14.954  0.00  0.00    +0.160 C 
ATOM      5  C   UNL     1      39.088 -25.258 -14.239  0.00  0.00    +0.007 C 
ATOM      6  C   UNL     1      38.844 -24.366 -13.263  0.00  0.00    -0.050 C 
ENDROOT
BRANCH   3   7
ATOM      7  N   UNL     1      37.460 -23.848 -11.303  0.00  0.00    +0.386 N 
ATOM      8  H   UNL     1      37.295 -22.865 -11.084  0.00  0.00    -0.089 HD
ATOM      9  H   UNL     1      38.360 -24.135 -10.920  0.00  0.00    -0.089 HD
ATOM     10  H   UNL     1      36.720 -24.417 -10.891  0.00  0.00    -0.089 HD
ENDBRANCH   3   7
BRANCH   1  11
ATOM     11  O   UNL     1      36.438 -26.226 -12.367  0.00  0.00    -0.384 OA
ATOM     12  H   UNL     1      35.801 -26.878 -12.700  0.00  0.00    +0.210 HD
ENDBRANCH   1  11
BRANCH   2  13
ATOM     13  O   UNL     1      36.336 -24.326 -15.493  0.00  0.00    -0.379 OA
ATOM     14  H   UNL     1      36.470 -23.514 -14.979  0.00  0.00    +0.211 HD
ENDBRANCH   2  13
BRANCH   4  15
ATOM     15  O   UNL     1      38.058 -27.372 -14.568  0.00  0.00    -0.378 OA
ATOM     16  H   UNL     1      38.519 -27.442 -13.717  0.00  0.00    +0.211 HD
ENDBRANCH   4  15
BRANCH   5  17
ATOM     17  C   UNL     1      40.489 -25.556 -14.694  0.00  0.00    +0.161 C 
BRANCH  17  18
ATOM     18  O   UNL     1      40.468 -25.986 -16.042  0.00  0.00    -0.377 OA
ATOM     19  H   UNL     1      41.258 -26.521 -16.222  0.00  0.00    +0.211 HD
ENDBRANCH  17  18
ENDBRANCH   5  17
TORSDOF 6
ENDMDL
MODEL 2
REMARK VINA RESULT:      -6.1      2.271      3.961
REMARK  Name = 193758
REMARK  6 active torsions:
REMARK  status: ('A' for Active; 'I' for Inactive)
REMARK    1  A    between atoms: C_1  and  O_11
REMARK    2  A    between atoms: C_2  and  O_13
REMARK    3  A    between atoms: C_3  and  N_7
REMARK    4  A    between atoms: C_4  and  O_15
REMARK    5  A    between atoms: C_5  and  C_17
REMARK    6  A    between atoms: C_17  and  O_18
REMARK                            x       y       z     vdW  Elec       q    Type
REMARK                         _______ _______ _______ _____ _____    ______ ____
ROOT
ATOM      1  C   UNL     1      36.753 -25.447 -15.022  0.00  0.00    +0.124 C 
ATOM      2  C   UNL     1      37.890 -25.540 -13.995  0.00  0.00    +0.166 C 
ATOM      3  C   UNL     1      35.946 -24.143 -14.848  0.00  0.00    -0.013 C 
ATOM      4  C   UNL     1      37.382 -25.414 -12.546  0.00  0.00    +0.160 C 
ATOM      5  C   UNL     1      36.283 -24.391 -12.365  0.00  0.00    +0.007 C 
ATOM      6  C   UNL     1      35.654 -23.816 -13.406  0.00  0.00    -0.050 C 
ENDROOT
BRANCH   3   7
ATOM      7  N   UNL     1      34.717 -24.178 -15.646  0.00  0.00    +0.386 N 
ATOM      8  H   UNL     1      34.146 -23.361 -15.427  0.00  0.00    -0.089 HD
ATOM      9  H   UNL     1      34.195 -25.026 -15.430  0.00  0.00    -0.089 HD
ATOM     10  H   UNL     1      34.956 -24.169 -16.638  0.00  0.00    -0.089 HD
ENDBRANCH   3   7
BRANCH   1  11
ATOM     11  O   UNL     1      35.914 -26.597 -14.906  0.00  0.00    -0.384 OA
ATOM     12  H   UNL     1      35.978 -26.955 -14.007  0.00  0.00    +0.210 HD
ENDBRANCH   1  11
BRANCH   2  13
ATOM     13  O   UNL     1      38.835 -24.497 -14.233  0.00  0.00    -0.379 OA
ATOM     14  H   UNL     1      38.662 -23.761 -13.626  0.00  0.00    +0.211 HD
ENDBRANCH   2  13
BRANCH   4  15
ATOM     15  O   UNL     1      36.877 -26.674 -12.104  0.00  0.00    -0.378 OA
ATOM     16  H   UNL     1      36.153 -26.528 -11.475  0.00  0.00    +0.211 HD
ENDBRANCH   4  15
BRANCH   5  17
ATOM     17  C   UNL     1      35.940 -24.028 -10.947  0.00  0.00    +0.161 C 
BRANCH  17  18
ATOM     18  O   UNL     1      35.273 -25.111 -10.328  0.00  0.00    -0.377 OA
ATOM     19  H   UNL     1      35.262 -24.977  -9.367  0.00  0.00    +0.211 HD
ENDBRANCH  17  18
ENDBRANCH   5  17
TORSDOF 6
ENDMDL
MODEL 3
REMARK VINA RESULT:      -6.0      2.683      4.606
REMARK  Name = 193758
REMARK  6 active torsions:
REMARK  status: ('A' for Active; 'I' for Inactive)
REMARK    1  A    between atoms: C_1  and  O_11
REMARK    2  A    between atoms: C_2  and  O_13
REMARK    3  A    between atoms: C_3  and  N_7
REMARK    4  A    between atoms: C_4  and  O_15
REMARK    5  A    between atoms: C_5  and  C_17
REMARK    6  A    between atoms: C_17  and  O_18
REMARK                            x       y       z     vdW  Elec       q    Type
REMARK                         _______ _______ _______ _____ _____    ______ ____
ROOT
ATOM      1  C   UNL     1      37.304 -25.693 -13.582  0.00  0.00    +0.124 C 
ATOM      2  C   UNL     1      36.985 -24.438 -12.759  0.00  0.00    +0.166 C 
ATOM      3  C   UNL     1      36.701 -25.601 -15.001  0.00  0.00    -0.013 C 
ATOM      4  C   UNL     1      35.473 -24.157 -12.680  0.00  0.00    +0.160 C 
ATOM      5  C   UNL     1      34.728 -24.423 -13.970  0.00  0.00    +0.007 C 
ATOM      6  C   UNL     1      35.294 -25.060 -15.011  0.00  0.00    -0.050 C 
ENDROOT
BRANCH   3   7
ATOM      7  N   UNL     1      36.781 -26.892 -15.688  0.00  0.00    +0.386 N 
ATOM      8  H   UNL     1      37.493 -26.846 -16.417  0.00  0.00    -0.089 HD
ATOM      9  H   UNL     1      35.878 -27.111 -16.108  0.00  0.00    -0.089 HD
ATOM     10  H   UNL     1      37.028 -27.620 -15.017  0.00  0.00    -0.089 HD
ENDBRANCH   3   7
BRANCH   1  11
ATOM     11  O   UNL     1      36.829 -26.848 -12.890  0.00  0.00    -0.384 OA
ATOM     12  H   UNL     1      37.576 -27.434 -12.688  0.00  0.00    +0.210 HD
ENDBRANCH   1  11
BRANCH   2  13
ATOM     13  O   UNL     1      37.622 -23.305 -13.348  0.00  0.00    -0.379 OA
ATOM     14  H   UNL     1      38.476 -23.153 -12.913  0.00  0.00    +0.211 HD
ENDBRANCH   2  13
BRANCH   4  15
ATOM     15  O   UNL     1      34.886 -24.974 -11.666  0.00  0.00    -0.378 OA
ATOM     16  H   UNL     1      35.546 -25.606 -11.339  0.00  0.00    +0.211 HD
ENDBRANCH   4  15
BRANCH   5  17
ATOM     17  C   UNL     1      33.315 -23.914 -14.040  0.00  0.00    +0.161 C 
BRANCH  17  18
ATOM     18  O   UNL     1      32.993 -23.245 -12.836  0.00  0.00    -0.377 OA
ATOM     19  H   UNL     1      33.472 -22.401 -12.798  0.00  0.00    +0.211 HD
ENDBRANCH  17  18
ENDBRANCH   5  17
TORSDOF 6
ENDMDL
MODEL 4
REMARK VINA RESULT:      -6.0      2.147      3.976
REMARK  Name = 193758
REMARK  6 active torsions:
REMARK  status: ('A' for Active; 'I' for Inactive)
REMARK    1  A    between atoms: C_1  and  O_11
REMARK    2  A    between atoms: C_2  and  O_13
REMARK    3  A    between atoms: C_3  and  N_7
REMARK    4  A    between atoms: C_4  and  O_15
REMARK    5  A    between atoms: C_5  and  C_17
REMARK    6  A    between atoms: C_17  and  O_18
REMARK                            x       y       z     vdW  Elec       q    Type
REMARK                         _______ _______ _______ _____ _____    ______ ____
ROOT
ATOM      1  C   UNL     1      37.691 -25.325 -14.986  0.00  0.00    +0.124 C 
ATOM      2  C   UNL     1      36.164 -25.166 -14.973  0.00  0.00    +0.166 C 
ATOM      3  C   UNL     1      38.196 -25.991 -13.688  0.00  0.00    -0.013 C 
ATOM      4  C   UNL     1      35.668 -24.385 -13.742  0.00  0.00    +0.160 C 
ATOM      5  C   UNL     1      36.403 -24.718 -12.462  0.00  0.00    +0.007 C 
ATOM      6  C   UNL     1      37.530 -25.451 -12.449  0.00  0.00    -0.050 C 
ENDROOT
BRANCH   3   7
ATOM      7  N   UNL     1      39.656 -25.905 -13.591  0.00  0.00    +0.386 N 
ATOM      8  H   UNL     1      40.075 -26.230 -14.462  0.00  0.00    -0.089 HD
ATOM      9  H   UNL     1      39.980 -26.487 -12.819  0.00  0.00    -0.089 HD
ATOM     10  H   UNL     1      39.929 -24.936 -13.423  0.00  0.00    -0.089 HD
ENDBRANCH   3   7
BRANCH   1  11
ATOM     11  O   UNL     1      38.299 -24.048 -15.186  0.00  0.00    -0.384 OA
ATOM     12  H   UNL     1      38.155 -23.761 -16.102  0.00  0.00    +0.210 HD
ENDBRANCH   1  11
BRANCH   2  13
ATOM     13  O   UNL     1      35.550 -26.454 -14.966  0.00  0.00    -0.379 OA
ATOM     14  H   UNL     1      36.235 -27.138 -15.039  0.00  0.00    +0.211 HD
ENDBRANCH   2  13
BRANCH   4  15
ATOM     15  O   UNL     1      35.813 -22.984 -13.973  0.00  0.00    -0.378 OA
ATOM     16  H   UNL     1      35.582 -22.498 -13.165  0.00  0.00    +0.211 HD
ENDBRANCH   4  15
BRANCH   5  17
ATOM     17  C   UNL     1      35.792 -24.200 -11.190  0.00  0.00    +0.161 C 
BRANCH  17  18
ATOM     18  O   UNL     1      35.286 -25.283 -10.433  0.00  0.00    -0.377 OA
ATOM     19  H   UNL     1      35.689 -25.275  -9.550  0.00  0.00    +0.211 HD
ENDBRANCH  17  18
ENDBRANCH   5  17
TORSDOF 6
ENDMDL
MODEL 5
REMARK VINA RESULT:      -5.9      2.568      3.978
REMARK  Name = 193758
REMARK  6 active torsions:
REMARK  status: ('A' for Active; 'I' for Inactive)
REMARK    1  A    between atoms: C_1  and  O_11
REMARK    2  A    between atoms: C_2  and  O_13
REMARK    3  A    between atoms: C_3  and  N_7
REMARK    4  A    between atoms: C_4  and  O_15
REMARK    5  A    between atoms: C_5  and  C_17
REMARK    6  A    between atoms: C_17  and  O_18
REMARK                            x       y       z     vdW  Elec       q    Type
REMARK                         _______ _______ _______ _____ _____    ______ ____
ROOT
ATOM      1  C   UNL     1      37.641 -25.222 -11.954  0.00  0.00    +0.124 C 
ATOM      2  C   UNL     1      36.695 -24.086 -11.542  0.00  0.00    +0.166 C 
ATOM      3  C   UNL     1      38.340 -24.911 -13.295  0.00  0.00    -0.013 C 
ATOM      4  C   UNL     1      35.650 -23.771 -12.629  0.00  0.00    +0.160 C 
ATOM      5  C   UNL     1      36.192 -23.827 -14.040  0.00  0.00    +0.007 C 
ATOM      6  C   UNL     1      37.407 -24.328 -14.326  0.00  0.00    -0.050 C 
ENDROOT
BRANCH   3   7
ATOM      7  N   UNL     1      39.033 -26.094 -13.810  0.00  0.00    +0.386 N 
ATOM      8  H   UNL     1      38.629 -26.933 -13.394  0.00  0.00    -0.089 HD
ATOM      9  H   UNL     1      40.023 -26.039 -13.573  0.00  0.00    -0.089 HD
ATOM     10  H   UNL     1      38.930 -26.134 -14.825  0.00  0.00    -0.089 HD
ENDBRANCH   3   7
BRANCH   1  11
ATOM     11  O   UNL     1      36.910 -26.448 -12.021  0.00  0.00    -0.384 OA
ATOM     12  H   UNL     1      37.181 -26.943 -12.810  0.00  0.00    +0.210 HD
ENDBRANCH   1  11
BRANCH   2  13
ATOM     13  O   UNL     1      37.451 -22.903 -11.288  0.00  0.00    -0.379 OA
ATOM     14  H   UNL     1      38.226 -23.126 -10.749  0.00  0.00    +0.211 HD
ENDBRANCH   2  13
BRANCH   4  15
ATOM     15  O   UNL     1      34.572 -24.703 -12.543  0.00  0.00    -0.378 OA
ATOM     16  H   UNL     1      33.760 -24.287 -12.872  0.00  0.00    +0.211 HD
ENDBRANCH   4  15
BRANCH   5  17
ATOM     17  C   UNL     1      35.305 -23.267 -15.117  0.00  0.00    +0.161 C 
BRANCH  17  18
ATOM     18  O   UNL     1      34.166 -22.668 -14.528  0.00  0.00    -0.377 OA
ATOM     19  H   UNL     1      33.730 -23.310 -13.944  0.00  0.00    +0.211 HD
ENDBRANCH  17  18
ENDBRANCH   5  17
TORSDOF 6
ENDMDL
MODEL 6
REMARK VINA RESULT:      -5.8      2.134      2.908
REMARK  Name = 193758
REMARK  6 active torsions:
REMARK  status: ('A' for Active; 'I' for Inactive)
REMARK    1  A    between atoms: C_1  and  O_11
REMARK    2  A    between atoms: C_2  and  O_13
REMARK    3  A    between atoms: C_3  and  N_7
REMARK    4  A    between atoms: C_4  and  O_15
REMARK    5  A    between atoms: C_5  and  C_17
REMARK    6  A    between atoms: C_17  and  O_18
REMARK                            x       y       z     vdW  Elec       q    Type
REMARK                         _______ _______ _______ _____ _____    ______ ____
ROOT
ATOM      1  C   UNL     1      35.811 -24.595 -12.931  0.00  0.00    +0.124 C 
ATOM      2  C   UNL     1      36.972 -25.212 -12.139  0.00  0.00    +0.166 C 
ATOM      3  C   UNL     1      35.827 -25.059 -14.403  0.00  0.00    -0.013 C 
ATOM      4  C   UNL     1      38.341 -24.913 -12.779  0.00  0.00    +0.160 C 
ATOM      5  C   UNL     1      38.341 -24.973 -14.291  0.00  0.00    +0.007 C 
ATOM      6  C   UNL     1      37.207 -25.053 -15.009  0.00  0.00    -0.050 C 
ENDROOT
BRANCH   3   7
ATOM      7  N   UNL     1      34.887 -24.275 -15.209  0.00  0.00    +0.386 N 
ATOM      8  H   UNL     1      35.119 -24.377 -16.197  0.00  0.00    -0.089 HD
ATOM      9  H   UNL     1      34.950 -23.292 -14.945  0.00  0.00    -0.089 HD
ATOM     10  H   UNL     1      33.938 -24.610 -15.045  0.00  0.00    -0.089 HD
ENDBRANCH   3   7
BRANCH   1  11
ATOM     11  O   UNL     1      35.873 -23.171 -12.833  0.00  0.00    -0.384 OA
ATOM     12  H   UNL     1      36.656 -22.917 -12.319  0.00  0.00    +0.210 HD
ENDBRANCH   1  11
BRANCH   2  13
ATOM     13  O   UNL     1      36.805 -26.628 -12.073  0.00  0.00    -0.379 OA
ATOM     14  H   UNL     1      36.908 -26.922 -11.154  0.00  0.00    +0.211 HD
ENDBRANCH   2  13
BRANCH   4  15
ATOM     15  O   UNL     1      38.773 -23.607 -12.398  0.00  0.00    -0.378 OA
ATOM     16  H   UNL     1      39.680 -23.654 -12.057  0.00  0.00    +0.211 HD
ENDBRANCH   4  15
BRANCH   5  17
ATOM     17  C   UNL     1      39.690 -24.963 -14.956  0.00  0.00    +0.161 C 
BRANCH  17  18
ATOM     18  O   UNL     1      40.704 -24.993 -13.970  0.00  0.00    -0.377 OA
ATOM     19  H   UNL     1      40.517 -25.705 -13.337  0.00  0.00    +0.211 HD
ENDBRANCH  17  18
ENDBRANCH   5  17
TORSDOF 6
ENDMDL
MODEL 7
REMARK VINA RESULT:      -5.7      1.832      3.463
REMARK  Name = 193758
REMARK  6 active torsions:
REMARK  status: ('A' for Active; 'I' for Inactive)
REMARK    1  A    between atoms: C_1  and  O_11
REMARK    2  A    between atoms: C_2  and  O_13
REMARK    3  A    between atoms: C_3  and  N_7
REMARK    4  A    between atoms: C_4  and  O_15
REMARK    5  A    between atoms: C_5  and  C_17
REMARK    6  A    between atoms: C_17  and  O_18
REMARK                            x       y       z     vdW  Elec       q    Type
REMARK                         _______ _______ _______ _____ _____    ______ ____
ROOT
ATOM      1  C   UNL     1      37.822 -25.125 -12.569  0.00  0.00    +0.124 C 
ATOM      2  C   UNL     1      37.428 -25.991 -13.773  0.00  0.00    +0.166 C 
ATOM      3  C   UNL     1      36.575 -24.563 -11.852  0.00  0.00    -0.013 C 
ATOM      4  C   UNL     1      36.533 -25.233 -14.772  0.00  0.00    +0.160 C 
ATOM      5  C   UNL     1      35.505 -24.335 -14.120  0.00  0.00    +0.007 C 
ATOM      6  C   UNL     1      35.526 -24.052 -12.806  0.00  0.00    -0.050 C 
ENDROOT
BRANCH   3   7
ATOM      7  N   UNL     1      36.952 -23.538 -10.875  0.00  0.00    +0.386 N 
ATOM      8  H   UNL     1      37.819 -23.089 -11.171  0.00  0.00    -0.089 HD
ATOM      9  H   UNL     1      37.088 -23.972  -9.962  0.00  0.00    -0.089 HD
ATOM     10  H   UNL     1      36.211 -22.840 -10.811  0.00  0.00    -0.089 HD
ENDBRANCH   3   7
BRANCH   1  11
ATOM     11  O   UNL     1      38.690 -24.077 -13.001  0.00  0.00    -0.384 OA
ATOM     12  H   UNL     1      39.043 -23.610 -12.227  0.00  0.00    +0.210 HD
ENDBRANCH   1  11
BRANCH   2  13
ATOM     13  O   UNL     1      36.721 -27.145 -13.321  0.00  0.00    -0.379 OA
ATOM     14  H   UNL     1      36.785 -27.205 -12.356  0.00  0.00    +0.211 HD
ENDBRANCH   2  13
BRANCH   4  15
ATOM     15  O   UNL     1      37.344 -24.419 -15.620  0.00  0.00    -0.378 OA
ATOM     16  H   UNL     1      36.811 -24.099 -16.365  0.00  0.00    +0.211 HD
ENDBRANCH   4  15
BRANCH   5  17
ATOM     17  C   UNL     1      34.434 -23.786 -15.022  0.00  0.00    +0.161 C 
BRANCH  17  18
ATOM     18  O   UNL     1      34.763 -24.063 -16.370  0.00  0.00    -0.377 OA
ATOM     19  H   UNL     1      35.598 -23.621 -16.595  0.00  0.00    +0.211 HD
ENDBRANCH  17  18
ENDBRANCH   5  17
TORSDOF 6
ENDMDL
MODEL 8
REMARK VINA RESULT:      -5.6      2.906      3.994
REMARK  Name = 193758
REMARK  6 active torsions:
REMARK  status: ('A' for Active; 'I' for Inactive)
REMARK    1  A    between atoms: C_1  and  O_11
REMARK    2  A    between atoms: C_2  and  O_13
REMARK    3  A    between atoms: C_3  and  N_7
REMARK    4  A    between atoms: C_4  and  O_15
REMARK    5  A    between atoms: C_5  and  C_17
REMARK    6  A    between atoms: C_17  and  O_18
REMARK                            x       y       z     vdW  Elec       q    Type
REMARK                         _______ _______ _______ _____ _____    ______ ____
ROOT
ATOM      1  C   UNL     1      36.371 -25.050 -14.566  0.00  0.00    +0.124 C 
ATOM      2  C   UNL     1      35.307 -23.946 -14.502  0.00  0.00    +0.166 C 
ATOM      3  C   UNL     1      37.787 -24.455 -14.729  0.00  0.00    -0.013 C 
ATOM      4  C   UNL     1      35.357 -23.014 -15.727  0.00  0.00    +0.160 C 
ATOM      5  C   UNL     1      36.757 -22.686 -16.196  0.00  0.00    +0.007 C 
ATOM      6  C   UNL     1      37.842 -23.331 -15.730  0.00  0.00    -0.050 C 
ENDROOT
BRANCH   3   7
ATOM      7  N   UNL     1      38.760 -25.503 -15.049  0.00  0.00    +0.386 N 
ATOM      8  H   UNL     1      38.645 -26.283 -14.401  0.00  0.00    -0.089 HD
ATOM      9  H   UNL     1      39.704 -25.127 -14.964  0.00  0.00    -0.089 HD
ATOM     10  H   UNL     1      38.608 -25.828 -16.003  0.00  0.00    -0.089 HD
ENDBRANCH   3   7
BRANCH   1  11
ATOM     11  O   UNL     1      36.059 -25.950 -15.630  0.00  0.00    -0.384 OA
ATOM     12  H   UNL     1      36.362 -26.843 -15.398  0.00  0.00    +0.210 HD
ENDBRANCH   1  11
BRANCH   2  13
ATOM     13  O   UNL     1      35.505 -23.159 -13.328  0.00  0.00    -0.379 OA
ATOM     14  H   UNL     1      34.644 -22.910 -12.959  0.00  0.00    +0.211 HD
ENDBRANCH   2  13
BRANCH   4  15
ATOM     15  O   UNL     1      34.666 -23.620 -16.819  0.00  0.00    -0.378 OA
ATOM     16  H   UNL     1      33.915 -24.134 -16.481  0.00  0.00    +0.211 HD
ENDBRANCH   4  15
BRANCH   5  17
ATOM     17  C   UNL     1      36.879 -21.576 -17.202  0.00  0.00    +0.161 C 
BRANCH  17  18
ATOM     18  O   UNL     1      36.296 -21.980 -18.426  0.00  0.00    -0.377 OA
ATOM     19  H   UNL     1      36.977 -21.992 -19.118  0.00  0.00    +0.211 HD
ENDBRANCH  17  18
ENDBRANCH   5  17
TORSDOF 6
ENDMDL
MODEL 9
REMARK VINA RESULT:      -5.6      2.440      3.134
REMARK  Name = 193758
REMARK  6 active torsions:
REMARK  status: ('A' for Active; 'I' for Inactive)
REMARK    1  A    between atoms: C_1  and  O_11
REMARK    2  A    between atoms: C_2  and  O_13
REMARK    3  A    between atoms: C_3  and  N_7
REMARK    4  A    between atoms: C_4  and  O_15
REMARK    5  A    between atoms: C_5  and  C_17
REMARK    6  A    between atoms: C_17  and  O_18
REMARK                            x       y       z     vdW  Elec       q    Type
REMARK                         _______ _______ _______ _____ _____    ______ ____
ROOT
ATOM      1  C   UNL     1      36.226 -23.367 -12.708  0.00  0.00    +0.124 C 
ATOM      2  C   UNL     1      36.342 -24.668 -11.902  0.00  0.00    +0.166 C 
ATOM      3  C   UNL     1      35.499 -23.601 -14.050  0.00  0.00    -0.013 C 
ATOM      4  C   UNL     1      37.036 -25.789 -12.698  0.00  0.00    +0.160 C 
ATOM      5  C   UNL     1      36.650 -25.839 -14.160  0.00  0.00    +0.007 C 
ATOM      6  C   UNL     1      35.947 -24.857 -14.753  0.00  0.00    -0.050 C 
ENDROOT
BRANCH   3   7
ATOM      7  N   UNL     1      35.619 -22.430 -14.921  0.00  0.00    +0.386 N 
ATOM      8  H   UNL     1      36.334 -21.802 -14.550  0.00  0.00    -0.089 HD
ATOM      9  H   UNL     1      34.725 -21.941 -14.960  0.00  0.00    -0.089 HD
ATOM     10  H   UNL     1      35.884 -22.730 -15.860  0.00  0.00    -0.089 HD
ENDBRANCH   3   7
BRANCH   1  11
ATOM     11  O   UNL     1      37.528 -22.817 -12.911  0.00  0.00    -0.384 OA
ATOM     12  H   UNL     1      38.066 -22.955 -12.115  0.00  0.00    +0.210 HD
ENDBRANCH   1  11
BRANCH   2  13
ATOM     13  O   UNL     1      35.039 -25.119 -11.532  0.00  0.00    -0.379 OA
ATOM     14  H   UNL     1      34.895 -24.947 -10.589  0.00  0.00    +0.211 HD
ENDBRANCH   2  13
BRANCH   4  15
ATOM     15  O   UNL     1      38.452 -25.619 -12.630  0.00  0.00    -0.378 OA
ATOM     16  H   UNL     1      38.871 -26.116 -13.351  0.00  0.00    +0.211 HD
ENDBRANCH   4  15
BRANCH   5  17
ATOM     17  C   UNL     1      37.075 -27.064 -14.919  0.00  0.00    +0.161 C 
BRANCH  17  18
ATOM     18  O   UNL     1      38.475 -27.230 -14.805  0.00  0.00    -0.377 OA
ATOM     19  H   UNL     1      38.920 -26.677 -15.468  0.00  0.00    +0.211 HD
ENDBRANCH  17  18
ENDBRANCH   5  17
TORSDOF 6
ENDMDL
