MODEL 1
REMARK VINA RESULT:      -8.6      0.000      0.000
REMARK  Name = 449190
REMARK  5 active torsions:
REMARK  status: ('A' for Active; 'I' for Inactive)
REMARK    1  A    between atoms: C_1  and  C_10
REMARK    2  A    between atoms: C_4  and  O_17
REMARK    3  A    between atoms: C_6  and  O_15
REMARK    4  A    between atoms: O_17  and  C_18
REMARK    5  A    between atoms: C_18  and  C_19
REMARK                            x       y       z     vdW  Elec       q    Type
REMARK                         _______ _______ _______ _____ _____    ______ ____
ROOT
ATOM      1  C   UNL     1      31.899 -23.466 -15.565  0.00  0.00    +0.019 C 
ATOM      2  C   UNL     1      32.077 -23.285 -16.938  0.00  0.00    +0.039 C 
ATOM      3  C   UNL     1      33.001 -23.436 -14.710  0.00  0.00    +0.002 C 
ATOM      4  C   UNL     1      33.356 -23.076 -17.453  0.00  0.00    +0.172 C 
ATOM      5  C   UNL     1      34.280 -23.228 -15.226  0.00  0.00    +0.040 C 
ATOM      6  C   UNL     1      34.457 -23.048 -16.598  0.00  0.00    +0.172 C 
ENDROOT
BRANCH   1  10
ATOM      7  O   UNL     1      29.677 -22.506 -15.144  0.00  0.00    -0.436 OA
ATOM      8  O   UNL     1      28.054 -21.803 -16.599  0.00  0.00    -0.226 OA
ATOM      9  N   UNL     1      28.831 -23.993 -16.582  0.00  0.00    -0.267 N 
ATOM     10  C   UNL     1      30.499 -23.695 -15.000  0.00  0.00    +0.174 C 
ATOM     11  C   UNL     1      29.713 -24.763 -15.765  0.00  0.00    +0.137 C 
ATOM     12  C   UNL     1      30.570 -24.005 -13.503  0.00  0.00    +0.050 C 
ATOM     13  C   UNL     1      28.779 -22.686 -16.164  0.00  0.00    +0.402 C 
ATOM     14  H   UNL     1      28.327 -24.352 -17.346  0.00  0.00    +0.153 HD
ENDBRANCH   1  10
BRANCH   6  15
ATOM     15  O   UNL     1      35.711 -22.843 -17.090  0.00  0.00    -0.468 OA
ATOM     16  C   UNL     1      36.744 -22.575 -16.143  0.00  0.00    +0.253 C 
ENDBRANCH   6  15
BRANCH   4  17
ATOM     17  O   UNL     1      33.517 -22.901 -18.795  0.00  0.00    -0.472 OA
BRANCH  17  18
ATOM     18  C   UNL     1      33.233 -21.605 -19.317  0.00  0.00    +0.206 C 
BRANCH  18  19
ATOM     19  C   UNL     1      34.511 -21.016 -19.894  0.00  0.00    +0.047 C 
ATOM     20  C   UNL     1      34.232 -19.813 -20.777  0.00  0.00    +0.004 C 
ENDBRANCH  18  19
ENDBRANCH  17  18
ENDBRANCH   4  17
TORSDOF 5
ENDMDL
MODEL 2
REMARK VINA RESULT:      -8.5      2.682      4.991
REMARK  Name = 449190
REMARK  5 active torsions:
REMARK  status: ('A' for Active; 'I' for Inactive)
REMARK    1  A    between atoms: C_1  and  C_10
REMARK    2  A    between atoms: C_4  and  O_17
REMARK    3  A    between atoms: C_6  and  O_15
REMARK    4  A    between atoms: O_17  and  C_18
REMARK    5  A    between atoms: C_18  and  C_19
REMARK                            x       y       z     vdW  Elec       q    Type
REMARK                         _______ _______ _______ _____ _____    ______ ____
ROOT
ATOM      1  C   UNL     1      34.278 -23.421 -15.481  0.00  0.00    +0.019 C 
ATOM      2  C   UNL     1      34.135 -23.128 -16.837  0.00  0.00    +0.039 C 
ATOM      3  C   UNL     1      33.153 -23.473 -14.656  0.00  0.00    +0.002 C 
ATOM      4  C   UNL     1      32.868 -22.885 -17.369  0.00  0.00    +0.172 C 
ATOM      5  C   UNL     1      31.887 -23.230 -15.187  0.00  0.00    +0.040 C 
ATOM      6  C   UNL     1      31.744 -22.937 -16.543  0.00  0.00    +0.172 C 
ENDROOT
BRANCH   1  10
ATOM      7  O   UNL     1      35.663 -23.535 -13.454  0.00  0.00    -0.436 OA
ATOM      8  O   UNL     1      35.568 -24.952 -11.659  0.00  0.00    -0.226 OA
ATOM      9  N   UNL     1      35.912 -25.725 -13.824  0.00  0.00    -0.267 N 
ATOM     10  C   UNL     1      35.665 -23.686 -14.899  0.00  0.00    +0.174 C 
ATOM     11  C   UNL     1      36.132 -25.130 -15.102  0.00  0.00    +0.137 C 
ATOM     12  C   UNL     1      36.678 -22.679 -15.449  0.00  0.00    +0.050 C 
ATOM     13  C   UNL     1      35.699 -24.769 -12.860  0.00  0.00    +0.402 C 
ATOM     14  H   UNL     1      35.914 -26.694 -13.654  0.00  0.00    +0.153 HD
ENDBRANCH   1  10
BRANCH   6  15
ATOM     15  O   UNL     1      30.501 -22.703 -17.051  0.00  0.00    -0.468 OA
ATOM     16  C   UNL     1      29.395 -22.888 -16.170  0.00  0.00    +0.253 C 
ENDBRANCH   6  15
BRANCH   4  17
ATOM     17  O   UNL     1      32.741 -22.600 -18.694  0.00  0.00    -0.472 OA
BRANCH  17  18
ATOM     18  C   UNL     1      33.813 -21.888 -19.309  0.00  0.00    +0.206 C 
BRANCH  18  19
ATOM     19  C   UNL     1      33.244 -20.693 -20.059  0.00  0.00    +0.047 C 
ATOM     20  C   UNL     1      34.329 -19.901 -20.767  0.00  0.00    +0.004 C 
ENDBRANCH  18  19
ENDBRANCH  17  18
ENDBRANCH   4  17
TORSDOF 5
ENDMDL
MODEL 3
REMARK VINA RESULT:      -8.4      3.739      7.057
REMARK  Name = 449190
REMARK  5 active torsions:
REMARK  status: ('A' for Active; 'I' for Inactive)
REMARK    1  A    between atoms: C_1  and  C_10
REMARK    2  A    between atoms: C_4  and  O_17
REMARK    3  A    between atoms: C_6  and  O_15
REMARK    4  A    between atoms: O_17  and  C_18
REMARK    5  A    between atoms: C_18  and  C_19
REMARK                            x       y       z     vdW  Elec       q    Type
REMARK                         _______ _______ _______ _____ _____    ______ ____
ROOT
ATOM      1  C   UNL     1      34.554 -20.038 -20.692  0.00  0.00    +0.019 C 
ATOM      2  C   UNL     1      35.669 -20.557 -20.033  0.00  0.00    +0.039 C 
ATOM      3  C   UNL     1      33.288 -20.569 -20.444  0.00  0.00    +0.002 C 
ATOM      4  C   UNL     1      35.517 -21.608 -19.128  0.00  0.00    +0.172 C 
ATOM      5  C   UNL     1      33.136 -21.620 -19.539  0.00  0.00    +0.040 C 
ATOM      6  C   UNL     1      34.251 -22.139 -18.881  0.00  0.00    +0.172 C 
ENDROOT
BRANCH   1  10
ATOM      7  O   UNL     1      33.540 -18.041 -21.702  0.00  0.00    -0.436 OA
ATOM      8  O   UNL     1      32.950 -16.033 -20.773  0.00  0.00    -0.226 OA
ATOM      9  N   UNL     1      35.138 -16.816 -20.733  0.00  0.00    -0.267 N 
ATOM     10  C   UNL     1      34.720 -18.888 -21.683  0.00  0.00    +0.174 C 
ATOM     11  C   UNL     1      35.843 -17.923 -21.296  0.00  0.00    +0.137 C 
ATOM     12  C   UNL     1      34.900 -19.428 -23.105  0.00  0.00    +0.050 C 
ATOM     13  C   UNL     1      33.799 -16.873 -21.034  0.00  0.00    +0.402 C 
ATOM     14  H   UNL     1      35.558 -16.105 -20.198  0.00  0.00    +0.153 HD
ENDBRANCH   1  10
BRANCH   6  15
ATOM     15  O   UNL     1      34.091 -23.164 -17.998  0.00  0.00    -0.468 OA
ATOM     16  C   UNL     1      32.899 -23.163 -17.213  0.00  0.00    +0.253 C 
ENDBRANCH   6  15
BRANCH   4  17
ATOM     17  O   UNL     1      36.613 -22.106 -18.491  0.00  0.00    -0.472 OA
BRANCH  17  18
ATOM     18  C   UNL     1      37.026 -21.443 -17.298  0.00  0.00    +0.206 C 
BRANCH  18  19
ATOM     19  C   UNL     1      37.441 -22.488 -16.273  0.00  0.00    +0.047 C 
ATOM     20  C   UNL     1      36.302 -22.842 -15.333  0.00  0.00    +0.004 C 
ENDBRANCH  18  19
ENDBRANCH  17  18
ENDBRANCH   4  17
TORSDOF 5
ENDMDL
MODEL 4
REMARK VINA RESULT:      -8.1      2.367      5.118
REMARK  Name = 449190
REMARK  5 active torsions:
REMARK  status: ('A' for Active; 'I' for Inactive)
REMARK    1  A    between atoms: C_1  and  C_10
REMARK    2  A    between atoms: C_4  and  O_17
REMARK    3  A    between atoms: C_6  and  O_15
REMARK    4  A    between atoms: O_17  and  C_18
REMARK    5  A    between atoms: C_18  and  C_19
REMARK                            x       y       z     vdW  Elec       q    Type
REMARK                         _______ _______ _______ _____ _____    ______ ____
ROOT
ATOM      1  C   UNL     1      34.040 -23.751 -15.653  0.00  0.00    +0.019 C 
ATOM      2  C   UNL     1      33.952 -23.249 -16.953  0.00  0.00    +0.039 C 
ATOM      3  C   UNL     1      32.903 -23.794 -14.845  0.00  0.00    +0.002 C 
ATOM      4  C   UNL     1      32.730 -22.791 -17.443  0.00  0.00    +0.172 C 
ATOM      5  C   UNL     1      31.680 -23.334 -15.335  0.00  0.00    +0.040 C 
ATOM      6  C   UNL     1      31.594 -22.833 -16.634  0.00  0.00    +0.172 C 
ENDROOT
BRANCH   1  10
ATOM      7  O   UNL     1      36.475 -23.823 -15.966  0.00  0.00    -0.436 OA
ATOM      8  O   UNL     1      38.039 -22.151 -15.901  0.00  0.00    -0.226 OA
ATOM      9  N   UNL     1      36.690 -22.650 -14.076  0.00  0.00    -0.267 N 
ATOM     10  C   UNL     1      35.378 -24.252 -15.117  0.00  0.00    +0.174 C 
ATOM     11  C   UNL     1      35.735 -23.660 -13.751  0.00  0.00    +0.137 C 
ATOM     12  C   UNL     1      35.407 -25.783 -15.097  0.00  0.00    +0.050 C 
ATOM     13  C   UNL     1      37.156 -22.799 -15.359  0.00  0.00    +0.402 C 
ATOM     14  H   UNL     1      36.977 -21.938 -13.460  0.00  0.00    +0.153 HD
ENDBRANCH   1  10
BRANCH   6  15
ATOM     15  O   UNL     1      30.393 -22.390 -17.102  0.00  0.00    -0.468 OA
ATOM     16  C   UNL     1      29.221 -22.907 -16.475  0.00  0.00    +0.253 C 
ENDBRANCH   6  15
BRANCH   4  17
ATOM     17  O   UNL     1      32.657 -22.303 -18.712  0.00  0.00    -0.472 OA
BRANCH  17  18
ATOM     18  C   UNL     1      33.866 -22.283 -19.468  0.00  0.00    +0.206 C 
BRANCH  18  19
ATOM     19  C   UNL     1      34.134 -20.859 -19.931  0.00  0.00    +0.047 C 
ATOM     20  C   UNL     1      32.878 -20.191 -20.463  0.00  0.00    +0.004 C 
ENDBRANCH  18  19
ENDBRANCH  17  18
ENDBRANCH   4  17
TORSDOF 5
ENDMDL
MODEL 5
REMARK VINA RESULT:      -8.1      3.536      5.804
REMARK  Name = 449190
REMARK  5 active torsions:
REMARK  status: ('A' for Active; 'I' for Inactive)
REMARK    1  A    between atoms: C_1  and  C_10
REMARK    2  A    between atoms: C_4  and  O_17
REMARK    3  A    between atoms: C_6  and  O_15
REMARK    4  A    between atoms: O_17  and  C_18
REMARK    5  A    between atoms: C_18  and  C_19
REMARK                            x       y       z     vdW  Elec       q    Type
REMARK                         _______ _______ _______ _____ _____    ______ ____
ROOT
ATOM      1  C   UNL     1      35.399 -24.253 -14.117  0.00  0.00    +0.019 C 
ATOM      2  C   UNL     1      35.700 -23.791 -15.399  0.00  0.00    +0.039 C 
ATOM      3  C   UNL     1      34.076 -24.263 -13.672  0.00  0.00    +0.002 C 
ATOM      4  C   UNL     1      34.679 -23.338 -16.234  0.00  0.00    +0.172 C 
ATOM      5  C   UNL     1      33.056 -23.809 -14.508  0.00  0.00    +0.040 C 
ATOM      6  C   UNL     1      33.357 -23.347 -15.789  0.00  0.00    +0.172 C 
ENDROOT
BRANCH   1  10
ATOM      7  O   UNL     1      37.649 -23.840 -13.223  0.00  0.00    -0.436 OA
ATOM      8  O   UNL     1      38.435 -22.170 -11.868  0.00  0.00    -0.226 OA
ATOM      9  N   UNL     1      36.733 -23.604 -11.198  0.00  0.00    -0.267 N 
ATOM     10  C   UNL     1      36.516 -24.748 -13.202  0.00  0.00    +0.174 C 
ATOM     11  C   UNL     1      36.111 -24.776 -11.725  0.00  0.00    +0.137 C 
ATOM     12  C   UNL     1      37.031 -26.111 -13.675  0.00  0.00    +0.050 C 
ATOM     13  C   UNL     1      37.674 -23.106 -12.066  0.00  0.00    +0.402 C 
ATOM     14  H   UNL     1      36.516 -23.205 -10.325  0.00  0.00    +0.153 HD
ENDBRANCH   1  10
BRANCH   6  15
ATOM     15  O   UNL     1      32.351 -22.909 -16.597  0.00  0.00    -0.468 OA
ATOM     16  C   UNL     1      31.019 -23.254 -16.221  0.00  0.00    +0.253 C 
ENDBRANCH   6  15
BRANCH   4  17
ATOM     17  O   UNL     1      34.986 -22.889 -17.483  0.00  0.00    -0.472 OA
BRANCH  17  18
ATOM     18  C   UNL     1      36.110 -22.019 -17.601  0.00  0.00    +0.206 C 
BRANCH  18  19
ATOM     19  C   UNL     1      36.251 -21.591 -19.054  0.00  0.00    +0.047 C 
ATOM     20  C   UNL     1      34.917 -21.186 -19.656  0.00  0.00    +0.004 C 
ENDBRANCH  18  19
ENDBRANCH  17  18
ENDBRANCH   4  17
TORSDOF 5
ENDMDL
MODEL 6
REMARK VINA RESULT:      -8.0      3.234      5.675
REMARK  Name = 449190
REMARK  5 active torsions:
REMARK  status: ('A' for Active; 'I' for Inactive)
REMARK    1  A    between atoms: C_1  and  C_10
REMARK    2  A    between atoms: C_4  and  O_17
REMARK    3  A    between atoms: C_6  and  O_15
REMARK    4  A    between atoms: O_17  and  C_18
REMARK    5  A    between atoms: C_18  and  C_19
REMARK                            x       y       z     vdW  Elec       q    Type
REMARK                         _______ _______ _______ _____ _____    ______ ____
ROOT
ATOM      1  C   UNL     1      35.210 -23.826 -14.680  0.00  0.00    +0.019 C 
ATOM      2  C   UNL     1      35.240 -23.448 -16.023  0.00  0.00    +0.039 C 
ATOM      3  C   UNL     1      33.987 -23.963 -14.023  0.00  0.00    +0.002 C 
ATOM      4  C   UNL     1      34.049 -23.205 -16.707  0.00  0.00    +0.172 C 
ATOM      5  C   UNL     1      32.796 -23.719 -14.706  0.00  0.00    +0.040 C 
ATOM      6  C   UNL     1      32.826 -23.341 -16.048  0.00  0.00    +0.172 C 
ENDROOT
BRANCH   1  10
ATOM      7  O   UNL     1      36.689 -25.511 -13.675  0.00  0.00    -0.436 OA
ATOM      8  O   UNL     1      37.881 -27.215 -14.634  0.00  0.00    -0.226 OA
ATOM      9  N   UNL     1      38.224 -24.990 -15.214  0.00  0.00    -0.267 N 
ATOM     10  C   UNL     1      36.514 -24.092 -13.932  0.00  0.00    +0.174 C 
ATOM     11  C   UNL     1      37.756 -23.725 -14.748  0.00  0.00    +0.137 C 
ATOM     12  C   UNL     1      36.502 -23.393 -12.570  0.00  0.00    +0.050 C 
ATOM     13  C   UNL     1      37.629 -26.023 -14.530  0.00  0.00    +0.402 C 
ATOM     14  H   UNL     1      38.886 -25.108 -15.932  0.00  0.00    +0.153 HD
ENDBRANCH   1  10
BRANCH   6  15
ATOM     15  O   UNL     1      31.656 -23.108 -16.705  0.00  0.00    -0.468 OA
ATOM     16  C   UNL     1      30.459 -23.574 -16.085  0.00  0.00    +0.253 C 
ENDBRANCH   6  15
BRANCH   4  17
ATOM     17  O   UNL     1      34.091 -22.836 -18.017  0.00  0.00    -0.472 OA
BRANCH  17  18
ATOM     18  C   UNL     1      35.236 -22.102 -18.446  0.00  0.00    +0.206 C 
BRANCH  18  19
ATOM     19  C   UNL     1      34.872 -21.305 -19.690  0.00  0.00    +0.047 C 
ATOM     20  C   UNL     1      33.384 -21.011 -19.758  0.00  0.00    +0.004 C 
ENDBRANCH  18  19
ENDBRANCH  17  18
ENDBRANCH   4  17
TORSDOF 5
ENDMDL
MODEL 7
REMARK VINA RESULT:      -8.0      3.296      6.147
REMARK  Name = 449190
REMARK  5 active torsions:
REMARK  status: ('A' for Active; 'I' for Inactive)
REMARK    1  A    between atoms: C_1  and  C_10
REMARK    2  A    between atoms: C_4  and  O_17
REMARK    3  A    between atoms: C_6  and  O_15
REMARK    4  A    between atoms: O_17  and  C_18
REMARK    5  A    between atoms: C_18  and  C_19
REMARK                            x       y       z     vdW  Elec       q    Type
REMARK                         _______ _______ _______ _____ _____    ______ ____
ROOT
ATOM      1  C   UNL     1      36.804 -23.582 -15.199  0.00  0.00    +0.019 C 
ATOM      2  C   UNL     1      35.454 -23.761 -15.506  0.00  0.00    +0.039 C 
ATOM      3  C   UNL     1      37.596 -22.755 -15.996  0.00  0.00    +0.002 C 
ATOM      4  C   UNL     1      34.899 -23.115 -16.610  0.00  0.00    +0.172 C 
ATOM      5  C   UNL     1      37.040 -22.109 -17.100  0.00  0.00    +0.040 C 
ATOM      6  C   UNL     1      35.692 -22.289 -17.407  0.00  0.00    +0.172 C 
ENDROOT
BRANCH   1  10
ATOM      7  O   UNL     1      37.942 -23.331 -13.036  0.00  0.00    -0.436 OA
ATOM      8  O   UNL     1      37.222 -22.410 -11.067  0.00  0.00    -0.226 OA
ATOM      9  N   UNL     1      36.138 -24.213 -12.055  0.00  0.00    -0.267 N 
ATOM     10  C   UNL     1      37.412 -24.289 -13.990  0.00  0.00    +0.174 C 
ATOM     11  C   UNL     1      36.379 -25.069 -13.172  0.00  0.00    +0.137 C 
ATOM     12  C   UNL     1      38.582 -25.177 -14.423  0.00  0.00    +0.050 C 
ATOM     13  C   UNL     1      37.100 -23.237 -11.959  0.00  0.00    +0.402 C 
ATOM     14  H   UNL     1      35.381 -24.310 -11.435  0.00  0.00    +0.153 HD
ENDBRANCH   1  10
BRANCH   6  15
ATOM     15  O   UNL     1      35.160 -21.651 -18.487  0.00  0.00    -0.468 OA
ATOM     16  C   UNL     1      36.051 -21.325 -19.553  0.00  0.00    +0.253 C 
ENDBRANCH   6  15
BRANCH   4  17
ATOM     17  O   UNL     1      33.581 -23.298 -16.900  0.00  0.00    -0.472 OA
BRANCH  17  18
ATOM     18  C   UNL     1      32.686 -23.424 -15.797  0.00  0.00    +0.206 C 
BRANCH  18  19
ATOM     19  C   UNL     1      31.281 -23.067 -16.259  0.00  0.00    +0.047 C 
ATOM     20  C   UNL     1      30.321 -22.923 -15.092  0.00  0.00    +0.004 C 
ENDBRANCH  18  19
ENDBRANCH  17  18
ENDBRANCH   4  17
TORSDOF 5
ENDMDL
MODEL 8
REMARK VINA RESULT:      -7.9     10.566     13.949
REMARK  Name = 449190
REMARK  5 active torsions:
REMARK  status: ('A' for Active; 'I' for Inactive)
REMARK    1  A    between atoms: C_1  and  C_10
REMARK    2  A    between atoms: C_4  and  O_17
REMARK    3  A    between atoms: C_6  and  O_15
REMARK    4  A    between atoms: O_17  and  C_18
REMARK    5  A    between atoms: C_18  and  C_19
REMARK                            x       y       z     vdW  Elec       q    Type
REMARK                         _______ _______ _______ _____ _____    ______ ____
ROOT
ATOM      1  C   UNL     1      32.701 -10.109 -23.143  0.00  0.00    +0.019 C 
ATOM      2  C   UNL     1      32.188 -11.213 -22.461  0.00  0.00    +0.039 C 
ATOM      3  C   UNL     1      33.600 -10.295 -24.194  0.00  0.00    +0.002 C 
ATOM      4  C   UNL     1      32.575 -12.501 -22.829  0.00  0.00    +0.172 C 
ATOM      5  C   UNL     1      33.987 -11.583 -24.562  0.00  0.00    +0.040 C 
ATOM      6  C   UNL     1      33.475 -12.687 -23.879  0.00  0.00    +0.172 C 
ENDROOT
BRANCH   1  10
ATOM      7  O   UNL     1      31.535  -8.712 -21.492  0.00  0.00    -0.436 OA
ATOM      8  O   UNL     1      32.017  -8.281 -19.295  0.00  0.00    -0.226 OA
ATOM      9  N   UNL     1      33.497  -7.757 -21.008  0.00  0.00    -0.267 N 
ATOM     10  C   UNL     1      32.278  -8.698 -22.740  0.00  0.00    +0.174 C 
ATOM     11  C   UNL     1      33.466  -7.782 -22.435  0.00  0.00    +0.137 C 
ATOM     12  C   UNL     1      31.352  -8.093 -23.800  0.00  0.00    +0.050 C 
ATOM     13  C   UNL     1      32.331  -8.251 -20.476  0.00  0.00    +0.402 C 
ATOM     14  H   UNL     1      34.256  -7.428 -20.475  0.00  0.00    +0.153 HD
ENDBRANCH   1  10
BRANCH   6  15
ATOM     15  O   UNL     1      33.858 -13.941 -24.249  0.00  0.00    -0.468 OA
ATOM     16  C   UNL     1      33.142 -14.549 -25.322  0.00  0.00    +0.253 C 
ENDBRANCH   6  15
BRANCH   4  17
ATOM     17  O   UNL     1      32.068 -13.571 -22.155  0.00  0.00    -0.472 OA
BRANCH  17  18
ATOM     18  C   UNL     1      32.540 -13.781 -20.826  0.00  0.00    +0.206 C 
BRANCH  18  19
ATOM     19  C   UNL     1      32.992 -15.228 -20.687  0.00  0.00    +0.047 C 
ATOM     20  C   UNL     1      34.498 -15.337 -20.533  0.00  0.00    +0.004 C 
ENDBRANCH  18  19
ENDBRANCH  17  18
ENDBRANCH   4  17
TORSDOF 5
ENDMDL
MODEL 9
REMARK VINA RESULT:      -7.9      1.383      3.427
REMARK  Name = 449190
REMARK  5 active torsions:
REMARK  status: ('A' for Active; 'I' for Inactive)
REMARK    1  A    between atoms: C_1  and  C_10
REMARK    2  A    between atoms: C_4  and  O_17
REMARK    3  A    between atoms: C_6  and  O_15
REMARK    4  A    between atoms: O_17  and  C_18
REMARK    5  A    between atoms: C_18  and  C_19
REMARK                            x       y       z     vdW  Elec       q    Type
REMARK                         _______ _______ _______ _____ _____    ______ ____
ROOT
ATOM      1  C   UNL     1      31.857 -23.430 -15.671  0.00  0.00    +0.019 C 
ATOM      2  C   UNL     1      32.998 -23.475 -14.868  0.00  0.00    +0.039 C 
ATOM      3  C   UNL     1      31.976 -23.164 -17.036  0.00  0.00    +0.002 C 
ATOM      4  C   UNL     1      34.255 -23.254 -15.430  0.00  0.00    +0.172 C 
ATOM      5  C   UNL     1      33.233 -22.942 -17.597  0.00  0.00    +0.040 C 
ATOM      6  C   UNL     1      34.373 -22.987 -16.794  0.00  0.00    +0.172 C 
ENDROOT
BRANCH   1  10
ATOM      7  O   UNL     1      29.643 -22.490 -15.169  0.00  0.00    -0.436 OA
ATOM      8  O   UNL     1      27.963 -21.798 -16.562  0.00  0.00    -0.226 OA
ATOM      9  N   UNL     1      28.759 -23.982 -16.578  0.00  0.00    -0.267 N 
ATOM     10  C   UNL     1      30.480 -23.672 -15.057  0.00  0.00    +0.174 C 
ATOM     11  C   UNL     1      29.677 -24.745 -15.795  0.00  0.00    +0.137 C 
ATOM     12  C   UNL     1      30.608 -23.984 -13.563  0.00  0.00    +0.050 C 
ATOM     13  C   UNL     1      28.711 -22.676 -16.155  0.00  0.00    +0.402 C 
ATOM     14  H   UNL     1      28.230 -24.344 -17.324  0.00  0.00    +0.153 HD
ENDBRANCH   1  10
BRANCH   6  15
ATOM     15  O   UNL     1      35.596 -22.771 -17.354  0.00  0.00    -0.468 OA
ATOM     16  C   UNL     1      35.642 -21.938 -18.512  0.00  0.00    +0.253 C 
ENDBRANCH   6  15
BRANCH   4  17
ATOM     17  O   UNL     1      35.361 -23.301 -14.636  0.00  0.00    -0.472 OA
BRANCH  17  18
ATOM     18  C   UNL     1      35.622 -24.530 -13.962  0.00  0.00    +0.206 C 
BRANCH  18  19
ATOM     19  C   UNL     1      36.346 -25.469 -14.916  0.00  0.00    +0.047 C 
ATOM     20  C   UNL     1      37.853 -25.393 -14.751  0.00  0.00    +0.004 C 
ENDBRANCH  18  19
ENDBRANCH  17  18
ENDBRANCH   4  17
TORSDOF 5
ENDMDL
