MODEL 1
REMARK VINA RESULT:      -9.5      0.000      0.000
REMARK  Name = 449500
REMARK  11 active torsions:
REMARK  status: ('A' for Active; 'I' for Inactive)
REMARK    1  A    between atoms: N_2  and  C_5
REMARK    2  A    between atoms: C_3  and  C_23
REMARK    3  A    between atoms: C_5  and  P_6
REMARK    4  A    between atoms: C_5  and  C_12
REMARK    5  A    between atoms: P_6  and  O_8
REMARK    6  A    between atoms: P_6  and  O_10
REMARK    7  A    between atoms: C_12  and  C_14
REMARK    8  A    between atoms: C_23  and  N_25
REMARK    9  A    between atoms: C_23  and  C_33
REMARK   10  A    between atoms: C_26  and  C_29
REMARK   11  A    between atoms: C_33  and  C_34
REMARK                            x       y       z     vdW  Elec       q    Type
REMARK                         _______ _______ _______ _____ _____    ______ ____
ROOT
ATOM      1  O   UNL     1      34.916 -14.909 -20.850  0.00  0.00    -0.273 OA
ATOM      2  N   UNL     1      34.301 -14.482 -23.048  0.00  0.00    -0.294 N 
ATOM      3  C   UNL     1      34.863 -15.242 -22.032  0.00  0.00    +0.241 C 
ATOM      4  H   UNL     1      34.313 -14.844 -23.963  0.00  0.00    +0.150 HD
ENDROOT
BRANCH   2   5
ATOM      5  C   UNL     1      33.695 -13.176 -22.830  0.00  0.00    +0.181 C 
BRANCH   5   6
ATOM      6  P   UNL     1      32.277 -13.462 -21.762  0.00  0.00    +0.355 P 
ATOM      7  O   UNL     1      31.824 -14.892 -21.708  0.00  0.00    -0.256 OA
BRANCH   6   8
ATOM      8  O   UNL     1      31.163 -12.415 -22.288  0.00  0.00    -0.323 OA
ATOM      9  H   UNL     1      31.412 -12.093 -23.169  0.00  0.00    +0.220 HD
ENDBRANCH   6   8
BRANCH   6  10
ATOM     10  O   UNL     1      32.730 -12.843 -20.339  0.00  0.00    -0.323 OA
ATOM     11  H   UNL     1      33.693 -12.717 -20.332  0.00  0.00    +0.220 HD
ENDBRANCH   6  10
ENDBRANCH   5   6
BRANCH   5  12
ATOM     12  C   UNL     1      33.312 -12.508 -24.157  0.00  0.00    +0.060 C 
BRANCH  12  14
ATOM     13  N   UNL     1      35.343  -9.629 -25.202  0.00  0.00    -0.312 N 
ATOM     14  C   UNL     1      33.992 -11.189 -24.385  0.00  0.00    -0.004 C 
ATOM     15  C   UNL     1      33.729  -9.969 -23.701  0.00  0.00    +0.011 C 
ATOM     16  C   UNL     1      34.590  -9.008 -24.232  0.00  0.00    +0.048 C 
ATOM     17  C   UNL     1      34.989 -10.948 -25.302  0.00  0.00    +0.058 C 
ATOM     18  C   UNL     1      32.837  -9.591 -22.677  0.00  0.00    +0.001 C 
ATOM     19  C   UNL     1      34.604  -7.679 -23.790  0.00  0.00    +0.015 C 
ATOM     20  C   UNL     1      32.840  -8.266 -22.225  0.00  0.00    +0.000 C 
ATOM     21  C   UNL     1      33.711  -7.327 -22.774  0.00  0.00    +0.001 C 
ATOM     22  H   UNL     1      36.037  -9.189 -25.746  0.00  0.00    +0.152 HD
ENDBRANCH  12  14
ENDBRANCH   5  12
ENDBRANCH   2   5
BRANCH   3  23
ATOM     23  C   UNL     1      35.469 -16.537 -22.560  0.00  0.00    +0.149 C 
BRANCH  23  25
ATOM     24  O   UNL     1      36.639 -18.746 -21.255  0.00  0.00    -0.267 OA
ATOM     25  N   UNL     1      34.755 -17.624 -21.940  0.00  0.00    -0.292 N 
ATOM     26  C   UNL     1      35.410 -18.684 -21.311  0.00  0.00    +0.281 C 
ATOM     27  H   UNL     1      33.770 -17.618 -21.959  0.00  0.00    +0.150 HD
BRANCH  26  29
ATOM     28  O   UNL     1      35.134 -20.694 -19.984  0.00  0.00    -0.446 OA
ATOM     29  C   UNL     1      34.543 -19.698 -20.695  0.00  0.00    +0.198 C 
ATOM     30  C   UNL     1      33.175 -19.849 -20.692  0.00  0.00    +0.045 C 
ATOM     31  C   UNL     1      32.909 -21.013 -19.932  0.00  0.00    +0.044 C 
ATOM     32  C   UNL     1      34.133 -21.490 -19.524  0.00  0.00    +0.180 C 
ENDBRANCH  26  29
ENDBRANCH  23  25
BRANCH  23  33
ATOM     33  C   UNL     1      35.375 -16.579 -24.091  0.00  0.00    +0.029 C 
BRANCH  33  34
ATOM     34  C   UNL     1      34.137 -17.314 -24.643  0.00  0.00    +0.002 C 
ATOM     35  C   UNL     1      33.523 -16.597 -25.847  0.00  0.00    +0.000 C 
ATOM     36  C   UNL     1      34.518 -18.745 -25.034  0.00  0.00    +0.000 C 
ENDBRANCH  33  34
ENDBRANCH  23  33
ENDBRANCH   3  23
TORSDOF 11
ENDMDL
MODEL 2
REMARK VINA RESULT:      -9.5      7.908     11.923
REMARK  Name = 449500
REMARK  11 active torsions:
REMARK  status: ('A' for Active; 'I' for Inactive)
REMARK    1  A    between atoms: N_2  and  C_5
REMARK    2  A    between atoms: C_3  and  C_23
REMARK    3  A    between atoms: C_5  and  P_6
REMARK    4  A    between atoms: C_5  and  C_12
REMARK    5  A    between atoms: P_6  and  O_8
REMARK    6  A    between atoms: P_6  and  O_10
REMARK    7  A    between atoms: C_12  and  C_14
REMARK    8  A    between atoms: C_23  and  N_25
REMARK    9  A    between atoms: C_23  and  C_33
REMARK   10  A    between atoms: C_26  and  C_29
REMARK   11  A    between atoms: C_33  and  C_34
REMARK                            x       y       z     vdW  Elec       q    Type
REMARK                         _______ _______ _______ _____ _____    ______ ____
ROOT
ATOM      1  O   UNL     1      35.346 -22.404 -15.151  0.00  0.00    -0.273 OA
ATOM      2  N   UNL     1      33.475 -23.734 -15.500  0.00  0.00    -0.294 N 
ATOM      3  C   UNL     1      34.696 -23.421 -14.919  0.00  0.00    +0.241 C 
ATOM      4  H   UNL     1      33.038 -24.578 -15.242  0.00  0.00    +0.150 HD
ENDROOT
BRANCH   2   5
ATOM      5  C   UNL     1      32.807 -22.880 -16.471  0.00  0.00    +0.181 C 
BRANCH   5   6
ATOM      6  P   UNL     1      31.048 -23.014 -16.119  0.00  0.00    +0.355 P 
ATOM      7  O   UNL     1      30.163 -22.373 -17.148  0.00  0.00    -0.256 OA
BRANCH   6   8
ATOM      8  O   UNL     1      30.895 -22.418 -14.624  0.00  0.00    -0.323 OA
ATOM      9  H   UNL     1      31.633 -21.817 -14.437  0.00  0.00    +0.220 HD
ENDBRANCH   6   8
BRANCH   6  10
ATOM     10  O   UNL     1      30.812 -24.601 -15.917  0.00  0.00    -0.323 OA
ATOM     11  H   UNL     1      31.597 -24.996 -15.506  0.00  0.00    +0.220 HD
ENDBRANCH   6  10
ENDBRANCH   5   6
BRANCH   5  12
ATOM     12  C   UNL     1      33.156 -23.286 -17.909  0.00  0.00    +0.060 C 
BRANCH  12  14
ATOM     13  N   UNL     1      36.103 -21.455 -19.121  0.00  0.00    -0.312 N 
ATOM     14  C   UNL     1      34.169 -22.389 -18.558  0.00  0.00    -0.004 C 
ATOM     15  C   UNL     1      33.906 -21.351 -19.496  0.00  0.00    +0.011 C 
ATOM     16  C   UNL     1      35.135 -20.782 -19.832  0.00  0.00    +0.048 C 
ATOM     17  C   UNL     1      35.528 -22.428 -18.348  0.00  0.00    +0.058 C 
ATOM     18  C   UNL     1      32.736 -20.841 -20.093  0.00  0.00    +0.001 C 
ATOM     19  C   UNL     1      35.254 -19.722 -20.740  0.00  0.00    +0.015 C 
ATOM     20  C   UNL     1      32.839 -19.782 -21.002  0.00  0.00    +0.000 C 
ATOM     21  C   UNL     1      34.080 -19.233 -21.319  0.00  0.00    +0.001 C 
ATOM     22  H   UNL     1      37.068 -21.263 -19.161  0.00  0.00    +0.152 HD
ENDBRANCH  12  14
ENDBRANCH   5  12
ENDBRANCH   2   5
BRANCH   3  23
ATOM     23  C   UNL     1      35.179 -24.523 -13.982  0.00  0.00    +0.149 C 
BRANCH  23  25
ATOM     24  O   UNL     1      36.583 -26.807 -14.853  0.00  0.00    -0.267 OA
ATOM     25  N   UNL     1      36.606 -24.622 -14.143  0.00  0.00    -0.292 N 
ATOM     26  C   UNL     1      37.228 -25.793 -14.581  0.00  0.00    +0.281 C 
ATOM     27  H   UNL     1      37.163 -23.836 -13.938  0.00  0.00    +0.150 HD
BRANCH  26  29
ATOM     28  O   UNL     1      39.396 -26.877 -14.575  0.00  0.00    -0.446 OA
ATOM     29  C   UNL     1      38.689 -25.727 -14.727  0.00  0.00    +0.198 C 
ATOM     30  C   UNL     1      39.531 -24.675 -15.005  0.00  0.00    +0.045 C 
ATOM     31  C   UNL     1      40.840 -25.213 -15.024  0.00  0.00    +0.044 C 
ATOM     32  C   UNL     1      40.704 -26.555 -14.757  0.00  0.00    +0.180 C 
ENDBRANCH  26  29
ENDBRANCH  23  25
BRANCH  23  33
ATOM     33  C   UNL     1      34.777 -24.201 -12.537  0.00  0.00    +0.029 C 
BRANCH  33  34
ATOM     34  C   UNL     1      35.927 -24.285 -11.512  0.00  0.00    +0.002 C 
ATOM     35  C   UNL     1      36.788 -23.021 -11.499  0.00  0.00    +0.000 C 
ATOM     36  C   UNL     1      35.355 -24.536 -10.114  0.00  0.00    +0.000 C 
ENDBRANCH  33  34
ENDBRANCH  23  33
ENDBRANCH   3  23
TORSDOF 11
ENDMDL
MODEL 3
REMARK VINA RESULT:      -9.2      2.698      9.473
REMARK  Name = 449500
REMARK  11 active torsions:
REMARK  status: ('A' for Active; 'I' for Inactive)
REMARK    1  A    between atoms: N_2  and  C_5
REMARK    2  A    between atoms: C_3  and  C_23
REMARK    3  A    between atoms: C_5  and  P_6
REMARK    4  A    between atoms: C_5  and  C_12
REMARK    5  A    between atoms: P_6  and  O_8
REMARK    6  A    between atoms: P_6  and  O_10
REMARK    7  A    between atoms: C_12  and  C_14
REMARK    8  A    between atoms: C_23  and  N_25
REMARK    9  A    between atoms: C_23  and  C_33
REMARK   10  A    between atoms: C_26  and  C_29
REMARK   11  A    between atoms: C_33  and  C_34
REMARK                            x       y       z     vdW  Elec       q    Type
REMARK                         _______ _______ _______ _____ _____    ______ ____
ROOT
ATOM      1  O   UNL     1      33.252 -10.884 -24.556  0.00  0.00    -0.273 OA
ATOM      2  N   UNL     1      32.839 -11.802 -22.464  0.00  0.00    -0.294 N 
ATOM      3  C   UNL     1      33.055 -10.755 -23.350  0.00  0.00    +0.241 C 
ATOM      4  H   UNL     1      32.691 -11.587 -21.514  0.00  0.00    +0.150 HD
ENDROOT
BRANCH   2   5
ATOM      5  C   UNL     1      32.821 -13.202 -22.865  0.00  0.00    +0.181 C 
BRANCH   5   6
ATOM      6  P   UNL     1      32.720 -14.151 -21.341  0.00  0.00    +0.355 P 
ATOM      7  O   UNL     1      31.982 -15.451 -21.472  0.00  0.00    -0.256 OA
BRANCH   6   8
ATOM      8  O   UNL     1      32.091 -13.117 -20.268  0.00  0.00    -0.323 OA
ATOM      9  H   UNL     1      31.351 -13.541 -19.805  0.00  0.00    +0.220 HD
ENDBRANCH   6   8
BRANCH   6  10
ATOM     10  O   UNL     1      34.260 -14.292 -20.868  0.00  0.00    -0.323 OA
ATOM     11  H   UNL     1      34.840 -14.287 -21.645  0.00  0.00    +0.220 HD
ENDBRANCH   6  10
ENDBRANCH   5   6
BRANCH   5  12
ATOM     12  C   UNL     1      34.053 -13.559 -23.706  0.00  0.00    +0.060 C 
BRANCH  12  14
ATOM     13  N   UNL     1      33.318 -16.264 -26.082  0.00  0.00    -0.312 N 
ATOM     14  C   UNL     1      33.897 -14.829 -24.492  0.00  0.00    -0.004 C 
ATOM     15  C   UNL     1      34.400 -16.112 -24.138  0.00  0.00    +0.011 C 
ATOM     16  C   UNL     1      34.023 -16.994 -25.152  0.00  0.00    +0.048 C 
ATOM     17  C   UNL     1      33.237 -14.954 -25.692  0.00  0.00    +0.058 C 
ATOM     18  C   UNL     1      35.144 -16.609 -23.048  0.00  0.00    +0.001 C 
ATOM     19  C   UNL     1      34.352 -18.355 -25.132  0.00  0.00    +0.015 C 
ATOM     20  C   UNL     1      35.480 -17.967 -23.015  0.00  0.00    +0.000 C 
ATOM     21  C   UNL     1      35.089 -18.824 -24.041  0.00  0.00    +0.001 C 
ATOM     22  H   UNL     1      32.928 -16.631 -26.909  0.00  0.00    +0.152 HD
ENDBRANCH  12  14
ENDBRANCH   5  12
ENDBRANCH   2   5
BRANCH   3  23
ATOM     23  C   UNL     1      33.072  -9.406 -22.641  0.00  0.00    +0.149 C 
BRANCH  23  25
ATOM     24  O   UNL     1      34.972  -7.361 -23.039  0.00  0.00    -0.267 OA
ATOM     25  N   UNL     1      33.014  -8.390 -23.661  0.00  0.00    -0.292 N 
ATOM     26  C   UNL     1      33.998  -7.409 -23.793  0.00  0.00    +0.281 C 
ATOM     27  H   UNL     1      32.255  -8.389 -24.287  0.00  0.00    +0.150 HD
BRANCH  26  29
ATOM     28  O   UNL     1      32.617  -5.833 -25.012  0.00  0.00    -0.446 OA
ATOM     29  C   UNL     1      33.816  -6.463 -24.903  0.00  0.00    +0.198 C 
ATOM     30  C   UNL     1      34.664  -6.065 -25.911  0.00  0.00    +0.045 C 
ATOM     31  C   UNL     1      33.940  -5.130 -26.689  0.00  0.00    +0.044 C 
ATOM     32  C   UNL     1      32.701  -5.024 -26.101  0.00  0.00    +0.180 C 
ENDBRANCH  26  29
ENDBRANCH  23  25
BRANCH  23  33
ATOM     33  C   UNL     1      31.899  -9.310 -21.657  0.00  0.00    +0.029 C 
BRANCH  33  34
ATOM     34  C   UNL     1      32.296  -8.942 -20.213  0.00  0.00    +0.002 C 
ATOM     35  C   UNL     1      32.093  -7.455 -19.914  0.00  0.00    +0.000 C 
ATOM     36  C   UNL     1      31.485  -9.783 -19.224  0.00  0.00    +0.000 C 
ENDBRANCH  33  34
ENDBRANCH  23  33
ENDBRANCH   3  23
TORSDOF 11
ENDMDL
MODEL 4
REMARK VINA RESULT:      -9.2      4.906      8.819
REMARK  Name = 449500
REMARK  11 active torsions:
REMARK  status: ('A' for Active; 'I' for Inactive)
REMARK    1  A    between atoms: N_2  and  C_5
REMARK    2  A    between atoms: C_3  and  C_23
REMARK    3  A    between atoms: C_5  and  P_6
REMARK    4  A    between atoms: C_5  and  C_12
REMARK    5  A    between atoms: P_6  and  O_8
REMARK    6  A    between atoms: P_6  and  O_10
REMARK    7  A    between atoms: C_12  and  C_14
REMARK    8  A    between atoms: C_23  and  N_25
REMARK    9  A    between atoms: C_23  and  C_33
REMARK   10  A    between atoms: C_26  and  C_29
REMARK   11  A    between atoms: C_33  and  C_34
REMARK                            x       y       z     vdW  Elec       q    Type
REMARK                         _______ _______ _______ _____ _____    ______ ____
ROOT
ATOM      1  O   UNL     1      33.972 -23.866 -19.559  0.00  0.00    -0.273 OA
ATOM      2  N   UNL     1      34.009 -21.673 -18.795  0.00  0.00    -0.294 N 
ATOM      3  C   UNL     1      33.782 -23.038 -18.672  0.00  0.00    +0.241 C 
ATOM      4  H   UNL     1      33.821 -21.097 -18.019  0.00  0.00    +0.150 HD
ENDROOT
BRANCH   2   5
ATOM      5  C   UNL     1      34.509 -21.051 -20.013  0.00  0.00    +0.181 C 
BRANCH   5   6
ATOM      6  P   UNL     1      36.249 -20.713 -19.715  0.00  0.00    +0.355 P 
ATOM      7  O   UNL     1      36.659 -19.296 -19.995  0.00  0.00    -0.256 OA
BRANCH   6   8
ATOM      8  O   UNL     1      37.028 -21.831 -20.587  0.00  0.00    -0.323 OA
ATOM      9  H   UNL     1      37.817 -22.125 -20.105  0.00  0.00    +0.220 HD
ENDBRANCH   6   8
BRANCH   6  10
ATOM     10  O   UNL     1      36.484 -21.196 -18.190  0.00  0.00    -0.323 OA
ATOM     11  H   UNL     1      37.192 -20.667 -17.788  0.00  0.00    +0.220 HD
ENDBRANCH   6  10
ENDBRANCH   5   6
BRANCH   5  12
ATOM     12  C   UNL     1      33.711 -19.789 -20.365  0.00  0.00    +0.060 C 
BRANCH  12  14
ATOM     13  N   UNL     1      35.017 -18.740 -23.636  0.00  0.00    -0.312 N 
ATOM     14  C   UNL     1      34.200 -19.094 -21.603  0.00  0.00    -0.004 C 
ATOM     15  C   UNL     1      34.262 -17.689 -21.819  0.00  0.00    +0.011 C 
ATOM     16  C   UNL     1      34.778 -17.494 -23.101  0.00  0.00    +0.048 C 
ATOM     17  C   UNL     1      34.670 -19.714 -22.738  0.00  0.00    +0.058 C 
ATOM     18  C   UNL     1      33.927 -16.561 -21.043  0.00  0.00    +0.001 C 
ATOM     19  C   UNL     1      34.977 -16.221 -23.650  0.00  0.00    +0.015 C 
ATOM     20  C   UNL     1      34.121 -15.283 -21.579  0.00  0.00    +0.000 C 
ATOM     21  C   UNL     1      34.638 -15.118 -22.862  0.00  0.00    +0.001 C 
ATOM     22  H   UNL     1      35.384 -18.907 -24.535  0.00  0.00    +0.152 HD
ENDBRANCH  12  14
ENDBRANCH   5  12
ENDBRANCH   2   5
BRANCH   3  23
ATOM     23  C   UNL     1      33.209 -23.396 -17.305  0.00  0.00    +0.149 C 
BRANCH  23  25
ATOM     24  O   UNL     1      33.712 -24.992 -15.036  0.00  0.00    -0.267 OA
ATOM     25  N   UNL     1      34.251 -23.177 -16.337  0.00  0.00    -0.292 N 
ATOM     26  C   UNL     1      34.436 -24.016 -15.236  0.00  0.00    +0.281 C 
ATOM     27  H   UNL     1      34.856 -22.409 -16.456  0.00  0.00    +0.150 HD
BRANCH  26  29
ATOM     28  O   UNL     1      35.345 -23.668 -13.016  0.00  0.00    -0.446 OA
ATOM     29  C   UNL     1      35.565 -23.680 -14.356  0.00  0.00    +0.198 C 
ATOM     30  C   UNL     1      36.874 -23.359 -14.634  0.00  0.00    +0.045 C 
ATOM     31  C   UNL     1      37.497 -23.135 -13.384  0.00  0.00    +0.044 C 
ATOM     32  C   UNL     1      36.525 -23.335 -12.431  0.00  0.00    +0.180 C 
ENDBRANCH  26  29
ENDBRANCH  23  25
BRANCH  23  33
ATOM     33  C   UNL     1      31.960 -22.553 -17.017  0.00  0.00    +0.029 C 
BRANCH  33  34
ATOM     34  C   UNL     1      30.933 -23.219 -16.079  0.00  0.00    +0.002 C 
ATOM     35  C   UNL     1      31.084 -22.757 -14.629  0.00  0.00    +0.000 C 
ATOM     36  C   UNL     1      29.514 -22.920 -16.571  0.00  0.00    +0.000 C 
ENDBRANCH  33  34
ENDBRANCH  23  33
ENDBRANCH   3  23
TORSDOF 11
ENDMDL
MODEL 5
REMARK VINA RESULT:      -9.1      3.546      8.424
REMARK  Name = 449500
REMARK  11 active torsions:
REMARK  status: ('A' for Active; 'I' for Inactive)
REMARK    1  A    between atoms: N_2  and  C_5
REMARK    2  A    between atoms: C_3  and  C_23
REMARK    3  A    between atoms: C_5  and  P_6
REMARK    4  A    between atoms: C_5  and  C_12
REMARK    5  A    between atoms: P_6  and  O_8
REMARK    6  A    between atoms: P_6  and  O_10
REMARK    7  A    between atoms: C_12  and  C_14
REMARK    8  A    between atoms: C_23  and  N_25
REMARK    9  A    between atoms: C_23  and  C_33
REMARK   10  A    between atoms: C_26  and  C_29
REMARK   11  A    between atoms: C_33  and  C_34
REMARK                            x       y       z     vdW  Elec       q    Type
REMARK                         _______ _______ _______ _____ _____    ______ ____
ROOT
ATOM      1  O   UNL     1      35.465 -10.408 -25.112  0.00  0.00    -0.273 OA
ATOM      2  N   UNL     1      33.459 -11.455 -24.594  0.00  0.00    -0.294 N 
ATOM      3  C   UNL     1      34.324 -10.371 -24.657  0.00  0.00    +0.241 C 
ATOM      4  H   UNL     1      32.564 -11.316 -24.208  0.00  0.00    +0.150 HD
ENDROOT
BRANCH   2   5
ATOM      5  C   UNL     1      33.806 -12.787 -25.068  0.00  0.00    +0.181 C 
BRANCH   5   6
ATOM      6  P   UNL     1      33.558 -12.757 -26.849  0.00  0.00    +0.355 P 
ATOM      7  O   UNL     1      32.253 -12.154 -27.279  0.00  0.00    -0.256 OA
BRANCH   6   8
ATOM      8  O   UNL     1      33.783 -14.291 -27.309  0.00  0.00    -0.323 OA
ATOM      9  H   UNL     1      32.995 -14.607 -27.779  0.00  0.00    +0.220 HD
ENDBRANCH   6   8
BRANCH   6  10
ATOM     10  O   UNL     1      34.871 -12.000 -27.412  0.00  0.00    -0.323 OA
ATOM     11  H   UNL     1      35.557 -12.653 -27.622  0.00  0.00    +0.220 HD
ENDBRANCH   6  10
ENDBRANCH   5   6
BRANCH   5  12
ATOM     12  C   UNL     1      32.969 -13.867 -24.371  0.00  0.00    +0.060 C 
BRANCH  12  14
ATOM     13  N   UNL     1      34.888 -15.543 -21.724  0.00  0.00    -0.312 N 
ATOM     14  C   UNL     1      33.771 -14.768 -23.477  0.00  0.00    -0.004 C 
ATOM     15  C   UNL     1      34.238 -16.075 -23.790  0.00  0.00    +0.011 C 
ATOM     16  C   UNL     1      34.936 -16.538 -22.674  0.00  0.00    +0.048 C 
ATOM     17  C   UNL     1      34.186 -14.469 -22.200  0.00  0.00    +0.058 C 
ATOM     18  C   UNL     1      34.133 -16.911 -24.920  0.00  0.00    +0.001 C 
ATOM     19  C   UNL     1      35.537 -17.802 -22.630  0.00  0.00    +0.015 C 
ATOM     20  C   UNL     1      34.730 -18.176 -24.890  0.00  0.00    +0.000 C 
ATOM     21  C   UNL     1      35.420 -18.613 -23.762  0.00  0.00    +0.001 C 
ATOM     22  H   UNL     1      35.300 -15.596 -20.831  0.00  0.00    +0.152 HD
ENDBRANCH  12  14
ENDBRANCH   5  12
ENDBRANCH   2   5
BRANCH   3  23
ATOM     23  C   UNL     1      33.712  -9.119 -24.040  0.00  0.00    +0.149 C 
BRANCH  23  25
ATOM     24  O   UNL     1      31.060  -9.509 -23.164  0.00  0.00    -0.267 OA
ATOM     25  N   UNL     1      33.310  -9.459 -22.700  0.00  0.00    -0.292 N 
ATOM     26  C   UNL     1      31.972  -9.636 -22.345  0.00  0.00    +0.281 C 
ATOM     27  H   UNL     1      34.003  -9.572 -22.010  0.00  0.00    +0.150 HD
BRANCH  26  29
ATOM     28  O   UNL     1      32.288  -9.255 -19.971  0.00  0.00    -0.446 OA
ATOM     29  C   UNL     1      31.724 -10.015 -20.946  0.00  0.00    +0.198 C 
ATOM     30  C   UNL     1      30.992 -11.041 -20.395  0.00  0.00    +0.045 C 
ATOM     31  C   UNL     1      31.116 -10.904 -18.992  0.00  0.00    +0.044 C 
ATOM     32  C   UNL     1      31.914  -9.802 -18.786  0.00  0.00    +0.180 C 
ENDBRANCH  26  29
ENDBRANCH  23  25
BRANCH  23  33
ATOM     33  C   UNL     1      34.724  -7.966 -24.069  0.00  0.00    +0.029 C 
BRANCH  33  34
ATOM     34  C   UNL     1      34.122  -6.588 -24.411  0.00  0.00    +0.002 C 
ATOM     35  C   UNL     1      34.571  -6.081 -25.783  0.00  0.00    +0.000 C 
ATOM     36  C   UNL     1      32.594  -6.665 -24.364  0.00  0.00    +0.000 C 
ENDBRANCH  33  34
ENDBRANCH  23  33
ENDBRANCH   3  23
TORSDOF 11
ENDMDL
MODEL 6
REMARK VINA RESULT:      -9.0      4.853      8.742
REMARK  Name = 449500
REMARK  11 active torsions:
REMARK  status: ('A' for Active; 'I' for Inactive)
REMARK    1  A    between atoms: N_2  and  C_5
REMARK    2  A    between atoms: C_3  and  C_23
REMARK    3  A    between atoms: C_5  and  P_6
REMARK    4  A    between atoms: C_5  and  C_12
REMARK    5  A    between atoms: P_6  and  O_8
REMARK    6  A    between atoms: P_6  and  O_10
REMARK    7  A    between atoms: C_12  and  C_14
REMARK    8  A    between atoms: C_23  and  N_25
REMARK    9  A    between atoms: C_23  and  C_33
REMARK   10  A    between atoms: C_26  and  C_29
REMARK   11  A    between atoms: C_33  and  C_34
REMARK                            x       y       z     vdW  Elec       q    Type
REMARK                         _______ _______ _______ _____ _____    ______ ____
ROOT
ATOM      1  O   UNL     1      33.822 -23.642 -19.404  0.00  0.00    -0.273 OA
ATOM      2  N   UNL     1      34.113 -21.417 -18.808  0.00  0.00    -0.294 N 
ATOM      3  C   UNL     1      33.786 -22.745 -18.566  0.00  0.00    +0.241 C 
ATOM      4  H   UNL     1      34.049 -20.777 -18.062  0.00  0.00    +0.150 HD
ENDROOT
BRANCH   2   5
ATOM      5  C   UNL     1      34.545 -20.923 -20.107  0.00  0.00    +0.181 C 
BRANCH   5   6
ATOM      6  P   UNL     1      36.290 -20.523 -19.928  0.00  0.00    +0.355 P 
ATOM      7  O   UNL     1      36.642 -19.115 -20.310  0.00  0.00    -0.256 OA
BRANCH   6   8
ATOM      8  O   UNL     1      37.051 -21.669 -20.778  0.00  0.00    -0.323 OA
ATOM      9  H   UNL     1      36.574 -21.827 -21.608  0.00  0.00    +0.220 HD
ENDBRANCH   6   8
BRANCH   6  10
ATOM     10  O   UNL     1      36.622 -20.911 -18.394  0.00  0.00    -0.323 OA
ATOM     11  H   UNL     1      35.919 -20.576 -17.815  0.00  0.00    +0.220 HD
ENDBRANCH   6  10
ENDBRANCH   5   6
BRANCH   5  12
ATOM     12  C   UNL     1      33.705 -19.720 -20.557  0.00  0.00    +0.060 C 
BRANCH  12  14
ATOM     13  N   UNL     1      35.034 -18.789 -23.854  0.00  0.00    -0.312 N 
ATOM     14  C   UNL     1      34.208 -19.071 -21.813  0.00  0.00    -0.004 C 
ATOM     15  C   UNL     1      34.297 -17.673 -22.068  0.00  0.00    +0.011 C 
ATOM     16  C   UNL     1      34.818 -17.525 -23.355  0.00  0.00    +0.048 C 
ATOM     17  C   UNL     1      34.668 -19.731 -22.929  0.00  0.00    +0.058 C 
ATOM     18  C   UNL     1      33.982 -16.518 -21.326  0.00  0.00    +0.001 C 
ATOM     19  C   UNL     1      35.042 -16.272 -23.939  0.00  0.00    +0.015 C 
ATOM     20  C   UNL     1      34.201 -15.259 -21.897  0.00  0.00    +0.000 C 
ATOM     21  C   UNL     1      34.722 -15.141 -23.184  0.00  0.00    +0.001 C 
ATOM     22  H   UNL     1      35.399 -18.988 -24.747  0.00  0.00    +0.152 HD
ENDBRANCH  12  14
ENDBRANCH   5  12
ENDBRANCH   2   5
BRANCH   3  23
ATOM     23  C   UNL     1      33.318 -22.961 -17.131  0.00  0.00    +0.149 C 
BRANCH  23  25
ATOM     24  O   UNL     1      31.650 -22.684 -14.875  0.00  0.00    -0.267 OA
ATOM     25  N   UNL     1      31.878 -22.941 -17.147  0.00  0.00    -0.292 N 
ATOM     26  C   UNL     1      31.121 -22.799 -15.982  0.00  0.00    +0.281 C 
ATOM     27  H   UNL     1      31.411 -23.029 -18.009  0.00  0.00    +0.150 HD
BRANCH  26  29
ATOM     28  O   UNL     1      29.164 -23.135 -17.373  0.00  0.00    -0.446 OA
ATOM     29  C   UNL     1      29.663 -22.762 -16.166  0.00  0.00    +0.198 C 
ATOM     30  C   UNL     1      28.645 -22.408 -15.311  0.00  0.00    +0.045 C 
ATOM     31  C   UNL     1      27.444 -22.572 -16.040  0.00  0.00    +0.044 C 
ATOM     32  C   UNL     1      27.813 -23.016 -17.288  0.00  0.00    +0.180 C 
ENDBRANCH  26  29
ENDBRANCH  23  25
BRANCH  23  33
ATOM     33  C   UNL     1      33.875 -24.283 -16.587  0.00  0.00    +0.029 C 
BRANCH  33  34
ATOM     34  C   UNL     1      34.795 -24.138 -15.357  0.00  0.00    +0.002 C 
ATOM     35  C   UNL     1      35.620 -25.399 -15.096  0.00  0.00    +0.000 C 
ATOM     36  C   UNL     1      35.728 -22.940 -15.548  0.00  0.00    +0.000 C 
ENDBRANCH  33  34
ENDBRANCH  23  33
ENDBRANCH   3  23
TORSDOF 11
ENDMDL
MODEL 7
REMARK VINA RESULT:      -9.0      3.513      8.259
REMARK  Name = 449500
REMARK  11 active torsions:
REMARK  status: ('A' for Active; 'I' for Inactive)
REMARK    1  A    between atoms: N_2  and  C_5
REMARK    2  A    between atoms: C_3  and  C_23
REMARK    3  A    between atoms: C_5  and  P_6
REMARK    4  A    between atoms: C_5  and  C_12
REMARK    5  A    between atoms: P_6  and  O_8
REMARK    6  A    between atoms: P_6  and  O_10
REMARK    7  A    between atoms: C_12  and  C_14
REMARK    8  A    between atoms: C_23  and  N_25
REMARK    9  A    between atoms: C_23  and  C_33
REMARK   10  A    between atoms: C_26  and  C_29
REMARK   11  A    between atoms: C_33  and  C_34
REMARK                            x       y       z     vdW  Elec       q    Type
REMARK                         _______ _______ _______ _____ _____    ______ ____
ROOT
ATOM      1  O   UNL     1      35.285 -10.745 -25.587  0.00  0.00    -0.273 OA
ATOM      2  N   UNL     1      33.417 -11.785 -24.679  0.00  0.00    -0.294 N 
ATOM      3  C   UNL     1      34.248 -10.701 -24.928  0.00  0.00    +0.241 C 
ATOM      4  H   UNL     1      32.609 -11.639 -24.137  0.00  0.00    +0.150 HD
ENDROOT
BRANCH   2   5
ATOM      5  C   UNL     1      33.680 -13.127 -25.179  0.00  0.00    +0.181 C 
BRANCH   5   6
ATOM      6  P   UNL     1      32.936 -13.198 -26.815  0.00  0.00    +0.355 P 
ATOM      7  O   UNL     1      32.292 -11.916 -27.256  0.00  0.00    -0.256 OA
BRANCH   6   8
ATOM      8  O   UNL     1      31.941 -14.471 -26.745  0.00  0.00    -0.323 OA
ATOM      9  H   UNL     1      32.290 -15.121 -26.115  0.00  0.00    +0.220 HD
ENDBRANCH   6   8
BRANCH   6  10
ATOM     10  O   UNL     1      34.138 -13.714 -27.767  0.00  0.00    -0.323 OA
ATOM     11  H   UNL     1      34.631 -12.951 -28.108  0.00  0.00    +0.220 HD
ENDBRANCH   6  10
ENDBRANCH   5   6
BRANCH   5  12
ATOM     12  C   UNL     1      33.127 -14.197 -24.229  0.00  0.00    +0.060 C 
BRANCH  12  14
ATOM     13  N   UNL     1      35.091 -17.239 -24.852  0.00  0.00    -0.312 N 
ATOM     14  C   UNL     1      33.945 -15.455 -24.198  0.00  0.00    -0.004 C 
ATOM     15  C   UNL     1      34.413 -16.134 -23.037  0.00  0.00    +0.011 C 
ATOM     16  C   UNL     1      35.129 -17.249 -23.477  0.00  0.00    +0.048 C 
ATOM     17  C   UNL     1      34.378 -16.158 -25.298  0.00  0.00    +0.058 C 
ATOM     18  C   UNL     1      34.297 -15.904 -21.652  0.00  0.00    +0.001 C 
ATOM     19  C   UNL     1      35.737 -18.151 -22.595  0.00  0.00    +0.015 C 
ATOM     20  C   UNL     1      34.899 -16.798 -20.759  0.00  0.00    +0.000 C 
ATOM     21  C   UNL     1      35.607 -17.903 -21.226  0.00  0.00    +0.001 C 
ATOM     22  H   UNL     1      35.515 -17.913 -25.433  0.00  0.00    +0.152 HD
ENDBRANCH  12  14
ENDBRANCH   5  12
ENDBRANCH   2   5
BRANCH   3  23
ATOM     23  C   UNL     1      33.753  -9.436 -24.237  0.00  0.00    +0.149 C 
BRANCH  23  25
ATOM     24  O   UNL     1      31.124  -9.317 -23.225  0.00  0.00    -0.267 OA
ATOM     25  N   UNL     1      33.345  -9.810 -22.907  0.00  0.00    -0.292 N 
ATOM     26  C   UNL     1      32.019  -9.722 -22.481  0.00  0.00    +0.281 C 
ATOM     27  H   UNL     1      34.026 -10.141 -22.277  0.00  0.00    +0.150 HD
BRANCH  26  29
ATOM     28  O   UNL     1      32.264  -9.436 -20.086  0.00  0.00    -0.446 OA
ATOM     29  C   UNL     1      31.756 -10.174 -21.107  0.00  0.00    +0.198 C 
ATOM     30  C   UNL     1      31.056 -11.254 -20.620  0.00  0.00    +0.045 C 
ATOM     31  C   UNL     1      31.141 -11.175 -19.210  0.00  0.00    +0.044 C 
ATOM     32  C   UNL     1      31.886 -10.052 -18.936  0.00  0.00    +0.180 C 
ENDBRANCH  26  29
ENDBRANCH  23  25
BRANCH  23  33
ATOM     33  C   UNL     1      34.857  -8.370 -24.228  0.00  0.00    +0.029 C 
BRANCH  33  34
ATOM     34  C   UNL     1      34.354  -6.918 -24.354  0.00  0.00    +0.002 C 
ATOM     35  C   UNL     1      34.773  -6.269 -25.674  0.00  0.00    +0.000 C 
ATOM     36  C   UNL     1      32.829  -6.886 -24.224  0.00  0.00    +0.000 C 
ENDBRANCH  33  34
ENDBRANCH  23  33
ENDBRANCH   3  23
TORSDOF 11
ENDMDL
MODEL 8
REMARK VINA RESULT:      -8.9      3.763      9.195
REMARK  Name = 449500
REMARK  11 active torsions:
REMARK  status: ('A' for Active; 'I' for Inactive)
REMARK    1  A    between atoms: N_2  and  C_5
REMARK    2  A    between atoms: C_3  and  C_23
REMARK    3  A    between atoms: C_5  and  P_6
REMARK    4  A    between atoms: C_5  and  C_12
REMARK    5  A    between atoms: P_6  and  O_8
REMARK    6  A    between atoms: P_6  and  O_10
REMARK    7  A    between atoms: C_12  and  C_14
REMARK    8  A    between atoms: C_23  and  N_25
REMARK    9  A    between atoms: C_23  and  C_33
REMARK   10  A    between atoms: C_26  and  C_29
REMARK   11  A    between atoms: C_33  and  C_34
REMARK                            x       y       z     vdW  Elec       q    Type
REMARK                         _______ _______ _______ _____ _____    ______ ____
ROOT
ATOM      1  O   UNL     1      34.684 -10.734 -24.121  0.00  0.00    -0.273 OA
ATOM      2  N   UNL     1      32.938 -12.257 -24.267  0.00  0.00    -0.294 N 
ATOM      3  C   UNL     1      33.541 -11.084 -23.835  0.00  0.00    +0.241 C 
ATOM      4  H   UNL     1      32.015 -12.442 -23.977  0.00  0.00    +0.150 HD
ENDROOT
BRANCH   2   5
ATOM      5  C   UNL     1      33.599 -13.229 -25.127  0.00  0.00    +0.181 C 
BRANCH   5   6
ATOM      6  P   UNL     1      33.546 -12.536 -26.786  0.00  0.00    +0.355 P 
ATOM      7  O   UNL     1      32.213 -11.966 -27.173  0.00  0.00    -0.256 OA
BRANCH   6   8
ATOM      8  O   UNL     1      34.075 -13.733 -27.735  0.00  0.00    -0.323 OA
ATOM      9  H   UNL     1      34.853 -13.433 -28.232  0.00  0.00    +0.220 HD
ENDBRANCH   6   8
BRANCH   6  10
ATOM     10  O   UNL     1      34.766 -11.476 -26.804  0.00  0.00    -0.323 OA
ATOM     11  H   UNL     1      35.599 -11.936 -26.616  0.00  0.00    +0.220 HD
ENDBRANCH   6  10
ENDBRANCH   5   6
BRANCH   5  12
ATOM     12  C   UNL     1      32.926 -14.605 -25.037  0.00  0.00    +0.060 C 
BRANCH  12  14
ATOM     13  N   UNL     1      35.253 -17.410 -24.561  0.00  0.00    -0.312 N 
ATOM     14  C   UNL     1      33.845 -15.694 -24.563  0.00  0.00    -0.004 C 
ATOM     15  C   UNL     1      34.172 -16.000 -23.212  0.00  0.00    +0.011 C 
ATOM     16  C   UNL     1      35.055 -17.080 -23.239  0.00  0.00    +0.048 C 
ATOM     17  C   UNL     1      34.525 -16.577 -25.369  0.00  0.00    +0.058 C 
ATOM     18  C   UNL     1      33.799 -15.458 -21.965  0.00  0.00    +0.001 C 
ATOM     19  C   UNL     1      35.588 -17.649 -22.076  0.00  0.00    +0.015 C 
ATOM     20  C   UNL     1      34.323 -16.018 -20.795  0.00  0.00    +0.000 C 
ATOM     21  C   UNL     1      35.204 -17.096 -20.852  0.00  0.00    +0.001 C 
ATOM     22  H   UNL     1      35.832 -18.139 -24.879  0.00  0.00    +0.152 HD
ENDBRANCH  12  14
ENDBRANCH   5  12
ENDBRANCH   2   5
BRANCH   3  23
ATOM     23  C   UNL     1      32.633 -10.288 -22.904  0.00  0.00    +0.149 C 
BRANCH  23  25
ATOM     24  O   UNL     1      33.554  -7.724 -22.176  0.00  0.00    -0.267 OA
ATOM     25  N   UNL     1      32.312  -9.056 -23.577  0.00  0.00    -0.292 N 
ATOM     26  C   UNL     1      32.810  -7.823 -23.154  0.00  0.00    +0.281 C 
ATOM     27  H   UNL     1      31.721  -9.085 -24.364  0.00  0.00    +0.150 HD
BRANCH  26  29
ATOM     28  O   UNL     1      31.174  -6.147 -23.782  0.00  0.00    -0.446 OA
ATOM     29  C   UNL     1      32.419  -6.661 -23.964  0.00  0.00    +0.198 C 
ATOM     30  C   UNL     1      33.099  -5.947 -24.924  0.00  0.00    +0.045 C 
ATOM     31  C   UNL     1      32.216  -4.931 -25.359  0.00  0.00    +0.044 C 
ATOM     32  C   UNL     1      31.058  -5.096 -24.634  0.00  0.00    +0.180 C 
ENDBRANCH  26  29
ENDBRANCH  23  25
BRANCH  23  33
ATOM     33  C   UNL     1      31.383 -11.106 -22.558  0.00  0.00    +0.029 C 
BRANCH  33  34
ATOM     34  C   UNL     1      31.195 -11.395 -21.055  0.00  0.00    +0.002 C 
ATOM     35  C   UNL     1      32.025 -12.591 -20.585  0.00  0.00    +0.000 C 
ATOM     36  C   UNL     1      31.569 -10.154 -20.240  0.00  0.00    +0.000 C 
ENDBRANCH  33  34
ENDBRANCH  23  33
ENDBRANCH   3  23
TORSDOF 11
ENDMDL
MODEL 9
REMARK VINA RESULT:      -8.9      3.628      9.504
REMARK  Name = 449500
REMARK  11 active torsions:
REMARK  status: ('A' for Active; 'I' for Inactive)
REMARK    1  A    between atoms: N_2  and  C_5
REMARK    2  A    between atoms: C_3  and  C_23
REMARK    3  A    between atoms: C_5  and  P_6
REMARK    4  A    between atoms: C_5  and  C_12
REMARK    5  A    between atoms: P_6  and  O_8
REMARK    6  A    between atoms: P_6  and  O_10
REMARK    7  A    between atoms: C_12  and  C_14
REMARK    8  A    between atoms: C_23  and  N_25
REMARK    9  A    between atoms: C_23  and  C_33
REMARK   10  A    between atoms: C_26  and  C_29
REMARK   11  A    between atoms: C_33  and  C_34
REMARK                            x       y       z     vdW  Elec       q    Type
REMARK                         _______ _______ _______ _____ _____    ______ ____
ROOT
ATOM      1  O   UNL     1      34.659 -10.403 -24.029  0.00  0.00    -0.273 OA
ATOM      2  N   UNL     1      33.022 -12.050 -24.034  0.00  0.00    -0.294 N 
ATOM      3  C   UNL     1      33.541 -10.804 -23.711  0.00  0.00    +0.241 C 
ATOM      4  H   UNL     1      32.112 -12.270 -23.727  0.00  0.00    +0.150 HD
ENDROOT
BRANCH   2   5
ATOM      5  C   UNL     1      33.752 -13.048 -24.802  0.00  0.00    +0.181 C 
BRANCH   5   6
ATOM      6  P   UNL     1      33.565 -12.576 -26.527  0.00  0.00    +0.355 P 
ATOM      7  O   UNL     1      32.207 -12.042 -26.877  0.00  0.00    -0.256 OA
BRANCH   6   8
ATOM      8  O   UNL     1      34.011 -13.894 -27.352  0.00  0.00    -0.323 OA
ATOM      9  H   UNL     1      34.874 -14.200 -27.031  0.00  0.00    +0.220 HD
ENDBRANCH   6   8
BRANCH   6  10
ATOM     10  O   UNL     1      34.784 -11.544 -26.782  0.00  0.00    -0.323 OA
ATOM     11  H   UNL     1      35.572 -11.849 -26.306  0.00  0.00    +0.220 HD
ENDBRANCH   6  10
ENDBRANCH   5   6
BRANCH   5  12
ATOM     12  C   UNL     1      33.235 -14.464 -24.516  0.00  0.00    +0.060 C 
BRANCH  12  14
ATOM     13  N   UNL     1      34.778 -15.480 -21.340  0.00  0.00    -0.312 N 
ATOM     14  C   UNL     1      33.912 -15.128 -23.353  0.00  0.00    -0.004 C 
ATOM     15  C   UNL     1      34.434 -16.452 -23.318  0.00  0.00    +0.011 C 
ATOM     16  C   UNL     1      34.971 -16.647 -22.044  0.00  0.00    +0.048 C 
ATOM     17  C   UNL     1      34.139 -14.556 -22.122  0.00  0.00    +0.058 C 
ATOM     18  C   UNL     1      34.499 -17.507 -24.251  0.00  0.00    +0.001 C 
ATOM     19  C   UNL     1      35.574 -17.849 -21.655  0.00  0.00    +0.015 C 
ATOM     20  C   UNL     1      35.099 -18.713 -23.875  0.00  0.00    +0.000 C 
ATOM     21  C   UNL     1      35.627 -18.880 -22.597  0.00  0.00    +0.001 C 
ATOM     22  H   UNL     1      35.060 -15.331 -20.408  0.00  0.00    +0.152 HD
ENDBRANCH  12  14
ENDBRANCH   5  12
ENDBRANCH   2   5
BRANCH   3  23
ATOM     23  C   UNL     1      32.576  -9.990 -22.856  0.00  0.00    +0.149 C 
BRANCH  23  25
ATOM     24  O   UNL     1      33.297  -7.368 -22.109  0.00  0.00    -0.267 OA
ATOM     25  N   UNL     1      32.266  -8.791 -23.590  0.00  0.00    -0.292 N 
ATOM     26  C   UNL     1      32.661  -7.525 -23.153  0.00  0.00    +0.281 C 
ATOM     27  H   UNL     1      31.760  -8.866 -24.431  0.00  0.00    +0.150 HD
BRANCH  26  29
ATOM     28  O   UNL     1      31.099  -5.797 -23.826  0.00  0.00    -0.446 OA
ATOM     29  C   UNL     1      32.299  -6.402 -24.029  0.00  0.00    +0.198 C 
ATOM     30  C   UNL     1      32.970  -5.806 -25.072  0.00  0.00    +0.045 C 
ATOM     31  C   UNL     1      32.128  -4.769 -25.540  0.00  0.00    +0.044 C 
ATOM     32  C   UNL     1      31.003  -4.805 -24.749  0.00  0.00    +0.180 C 
ENDBRANCH  26  29
ENDBRANCH  23  25
BRANCH  23  33
ATOM     33  C   UNL     1      31.325 -10.818 -22.538  0.00  0.00    +0.029 C 
BRANCH  33  34
ATOM     34  C   UNL     1      31.112 -11.119 -21.041  0.00  0.00    +0.002 C 
ATOM     35  C   UNL     1      31.812 -12.406 -20.601  0.00  0.00    +0.000 C 
ATOM     36  C   UNL     1      31.618  -9.943 -20.201  0.00  0.00    +0.000 C 
ENDBRANCH  33  34
ENDBRANCH  23  33
ENDBRANCH   3  23
TORSDOF 11
ENDMDL
