MODEL 1
REMARK VINA RESULT:      -7.5      0.000      0.000
REMARK  Name = 11318
REMARK  2 active torsions:
REMARK  status: ('A' for Active; 'I' for Inactive)
REMARK    1  A    between atoms: C_3  and  O_11
REMARK    2  A    between atoms: C_7  and  O_13
REMARK                            x       y       z     vdW  Elec       q    Type
REMARK                         _______ _______ _______ _____ _____    ______ ____
ROOT
ATOM      1  C   UNL     1      34.640 -20.339 -20.525  0.00  0.00    +0.037 C 
ATOM      2  C   UNL     1      36.015 -20.056 -20.349  0.00  0.00    +0.003 C 
ATOM      3  C   UNL     1      34.045 -21.359 -19.765  0.00  0.00    +0.167 C 
ATOM      4  C   UNL     1      36.756 -20.801 -19.417  0.00  0.00    +0.003 C 
ATOM      5  C   UNL     1      33.899 -19.593 -21.457  0.00  0.00    +0.003 C 
ATOM      6  C   UNL     1      36.609 -19.035 -21.110  0.00  0.00    +0.000 C 
ATOM      7  C   UNL     1      34.796 -22.088 -18.843  0.00  0.00    +0.167 C 
ATOM      8  C   UNL     1      36.149 -21.811 -18.671  0.00  0.00    +0.040 C 
ATOM      9  C   UNL     1      34.505 -18.583 -22.204  0.00  0.00    +0.000 C 
ATOM     10  C   UNL     1      35.858 -18.305 -22.031  0.00  0.00    +0.000 C 
ENDROOT
BRANCH   3  11
ATOM     11  O   UNL     1      32.720 -21.659 -19.910  0.00  0.00    -0.503 OA
ATOM     12  H   UNL     1      32.313 -22.277 -19.335  0.00  0.00    +0.292 HD
ENDBRANCH   3  11
BRANCH   7  13
ATOM     13  O   UNL     1      34.219 -23.080 -18.107  0.00  0.00    -0.503 OA
ATOM     14  H   UNL     1      33.309 -23.032 -17.889  0.00  0.00    +0.292 HD
ENDBRANCH   7  13
TORSDOF 2
ENDMDL
MODEL 2
REMARK VINA RESULT:      -7.5      1.163      2.382
REMARK  Name = 11318
REMARK  2 active torsions:
REMARK  status: ('A' for Active; 'I' for Inactive)
REMARK    1  A    between atoms: C_3  and  O_11
REMARK    2  A    between atoms: C_7  and  O_13
REMARK                            x       y       z     vdW  Elec       q    Type
REMARK                         _______ _______ _______ _____ _____    ______ ____
ROOT
ATOM      1  C   UNL     1      35.544 -20.398 -20.146  0.00  0.00    +0.037 C 
ATOM      2  C   UNL     1      34.263 -20.068 -20.650  0.00  0.00    +0.003 C 
ATOM      3  C   UNL     1      35.665 -21.422 -19.193  0.00  0.00    +0.167 C 
ATOM      4  C   UNL     1      33.140 -20.772 -20.184  0.00  0.00    +0.003 C 
ATOM      5  C   UNL     1      36.667 -19.694 -20.612  0.00  0.00    +0.003 C 
ATOM      6  C   UNL     1      34.143 -19.044 -21.603  0.00  0.00    +0.000 C 
ATOM      7  C   UNL     1      34.539 -22.111 -18.743  0.00  0.00    +0.167 C 
ATOM      8  C   UNL     1      33.279 -21.786 -19.237  0.00  0.00    +0.040 C 
ATOM      9  C   UNL     1      36.529 -18.680 -21.559  0.00  0.00    +0.000 C 
ATOM     10  C   UNL     1      35.270 -18.355 -22.054  0.00  0.00    +0.000 C 
ENDROOT
BRANCH   3  11
ATOM     11  O   UNL     1      36.887 -21.766 -18.686  0.00  0.00    -0.503 OA
ATOM     12  H   UNL     1      37.539 -22.139 -19.246  0.00  0.00    +0.292 HD
ENDBRANCH   3  11
BRANCH   7  13
ATOM     13  O   UNL     1      34.656 -23.103 -17.816  0.00  0.00    -0.503 OA
ATOM     14  H   UNL     1      35.014 -22.915 -16.970  0.00  0.00    +0.292 HD
ENDBRANCH   7  13
TORSDOF 2
ENDMDL
MODEL 3
REMARK VINA RESULT:      -7.2      4.443      6.686
REMARK  Name = 11318
REMARK  2 active torsions:
REMARK  status: ('A' for Active; 'I' for Inactive)
REMARK    1  A    between atoms: C_3  and  O_11
REMARK    2  A    between atoms: C_7  and  O_13
REMARK                            x       y       z     vdW  Elec       q    Type
REMARK                         _______ _______ _______ _____ _____    ______ ____
ROOT
ATOM      1  C   UNL     1      34.681 -17.037 -23.611  0.00  0.00    +0.037 C 
ATOM      2  C   UNL     1      34.384 -16.053 -22.637  0.00  0.00    +0.003 C 
ATOM      3  C   UNL     1      34.362 -16.791 -24.956  0.00  0.00    +0.167 C 
ATOM      4  C   UNL     1      33.777 -14.852 -23.038  0.00  0.00    +0.003 C 
ATOM      5  C   UNL     1      35.288 -18.239 -23.210  0.00  0.00    +0.003 C 
ATOM      6  C   UNL     1      34.703 -16.300 -21.293  0.00  0.00    +0.000 C 
ATOM      7  C   UNL     1      33.760 -15.591 -25.336  0.00  0.00    +0.167 C 
ATOM      8  C   UNL     1      33.467 -14.625 -24.379  0.00  0.00    +0.040 C 
ATOM      9  C   UNL     1      35.597 -18.467 -21.869  0.00  0.00    +0.000 C 
ATOM     10  C   UNL     1      35.306 -17.500 -20.912  0.00  0.00    +0.000 C 
ENDROOT
BRANCH   3  11
ATOM     11  O   UNL     1      34.634 -17.719 -25.922  0.00  0.00    -0.503 OA
ATOM     12  H   UNL     1      35.380 -18.281 -25.835  0.00  0.00    +0.292 HD
ENDBRANCH   3  11
BRANCH   7  13
ATOM     13  O   UNL     1      33.449 -15.354 -26.642  0.00  0.00    -0.503 OA
ATOM     14  H   UNL     1      32.692 -14.845 -26.858  0.00  0.00    +0.292 HD
ENDBRANCH   7  13
TORSDOF 2
ENDMDL
MODEL 4
REMARK VINA RESULT:      -7.2      4.920      7.254
REMARK  Name = 11318
REMARK  2 active torsions:
REMARK  status: ('A' for Active; 'I' for Inactive)
REMARK    1  A    between atoms: C_3  and  O_11
REMARK    2  A    between atoms: C_7  and  O_13
REMARK                            x       y       z     vdW  Elec       q    Type
REMARK                         _______ _______ _______ _____ _____    ______ ____
ROOT
ATOM      1  C   UNL     1      34.326 -16.120 -23.448  0.00  0.00    +0.037 C 
ATOM      2  C   UNL     1      33.854 -14.978 -22.757  0.00  0.00    +0.003 C 
ATOM      3  C   UNL     1      34.148 -16.205 -24.838  0.00  0.00    +0.167 C 
ATOM      4  C   UNL     1      33.218 -13.954 -23.478  0.00  0.00    +0.003 C 
ATOM      5  C   UNL     1      34.962 -17.144 -22.727  0.00  0.00    +0.003 C 
ATOM      6  C   UNL     1      34.033 -14.894 -21.367  0.00  0.00    +0.000 C 
ATOM      7  C   UNL     1      33.514 -15.178 -25.538  0.00  0.00    +0.167 C 
ATOM      8  C   UNL     1      33.050 -14.055 -24.859  0.00  0.00    +0.040 C 
ATOM      9  C   UNL     1      35.131 -17.044 -21.346  0.00  0.00    +0.000 C 
ATOM     10  C   UNL     1      34.667 -15.921 -20.667  0.00  0.00    +0.000 C 
ENDROOT
BRANCH   3  11
ATOM     11  O   UNL     1      34.590 -17.293 -25.536  0.00  0.00    -0.503 OA
ATOM     12  H   UNL     1      34.039 -17.693 -26.180  0.00  0.00    +0.292 HD
ENDBRANCH   3  11
BRANCH   7  13
ATOM     13  O   UNL     1      33.339 -15.261 -26.887  0.00  0.00    -0.503 OA
ATOM     14  H   UNL     1      33.053 -14.510 -27.369  0.00  0.00    +0.292 HD
ENDBRANCH   7  13
TORSDOF 2
ENDMDL
MODEL 5
REMARK VINA RESULT:      -7.2      5.626      6.977
REMARK  Name = 11318
REMARK  2 active torsions:
REMARK  status: ('A' for Active; 'I' for Inactive)
REMARK    1  A    between atoms: C_3  and  O_11
REMARK    2  A    between atoms: C_7  and  O_13
REMARK                            x       y       z     vdW  Elec       q    Type
REMARK                         _______ _______ _______ _____ _____    ______ ____
ROOT
ATOM      1  C   UNL     1      33.943 -15.308 -23.111  0.00  0.00    +0.037 C 
ATOM      2  C   UNL     1      34.607 -16.541 -22.903  0.00  0.00    +0.003 C 
ATOM      3  C   UNL     1      33.547 -14.951 -24.410  0.00  0.00    +0.167 C 
ATOM      4  C   UNL     1      34.855 -17.380 -24.002  0.00  0.00    +0.003 C 
ATOM      5  C   UNL     1      33.694 -14.469 -22.012  0.00  0.00    +0.003 C 
ATOM      6  C   UNL     1      35.002 -16.898 -21.604  0.00  0.00    +0.000 C 
ATOM      7  C   UNL     1      33.802 -15.798 -25.489  0.00  0.00    +0.167 C 
ATOM      8  C   UNL     1      34.455 -17.009 -25.285  0.00  0.00    +0.040 C 
ATOM      9  C   UNL     1      34.093 -14.840 -20.729  0.00  0.00    +0.000 C 
ATOM     10  C   UNL     1      34.746 -16.051 -20.525  0.00  0.00    +0.000 C 
ENDROOT
BRANCH   3  11
ATOM     11  O   UNL     1      32.904 -13.769 -24.646  0.00  0.00    -0.503 OA
ATOM     12  H   UNL     1      32.366 -13.386 -23.980  0.00  0.00    +0.292 HD
ENDBRANCH   3  11
BRANCH   7  13
ATOM     13  O   UNL     1      33.419 -15.450 -26.750  0.00  0.00    -0.503 OA
ATOM     14  H   UNL     1      33.816 -15.865 -27.491  0.00  0.00    +0.292 HD
ENDBRANCH   7  13
TORSDOF 2
ENDMDL
MODEL 6
REMARK VINA RESULT:      -7.2      3.818      5.158
REMARK  Name = 11318
REMARK  2 active torsions:
REMARK  status: ('A' for Active; 'I' for Inactive)
REMARK    1  A    between atoms: C_3  and  O_11
REMARK    2  A    between atoms: C_7  and  O_13
REMARK                            x       y       z     vdW  Elec       q    Type
REMARK                         _______ _______ _______ _____ _____    ______ ____
ROOT
ATOM      1  C   UNL     1      34.619 -16.657 -23.189  0.00  0.00    +0.037 C 
ATOM      2  C   UNL     1      34.651 -17.059 -21.832  0.00  0.00    +0.003 C 
ATOM      3  C   UNL     1      34.713 -17.630 -24.197  0.00  0.00    +0.167 C 
ATOM      4  C   UNL     1      34.776 -18.424 -21.524  0.00  0.00    +0.003 C 
ATOM      5  C   UNL     1      34.493 -15.292 -23.497  0.00  0.00    +0.003 C 
ATOM      6  C   UNL     1      34.557 -16.086 -20.825  0.00  0.00    +0.000 C 
ATOM      7  C   UNL     1      34.836 -18.981 -23.872  0.00  0.00    +0.167 C 
ATOM      8  C   UNL     1      34.869 -19.377 -22.538  0.00  0.00    +0.040 C 
ATOM      9  C   UNL     1      34.401 -14.339 -22.484  0.00  0.00    +0.000 C 
ATOM     10  C   UNL     1      34.433 -14.735 -21.150  0.00  0.00    +0.000 C 
ENDROOT
BRANCH   3  11
ATOM     11  O   UNL     1      34.685 -17.276 -25.517  0.00  0.00    -0.503 OA
ATOM     12  H   UNL     1      33.929 -17.467 -26.037  0.00  0.00    +0.292 HD
ENDBRANCH   3  11
BRANCH   7  13
ATOM     13  O   UNL     1      34.929 -19.925 -24.851  0.00  0.00    -0.503 OA
ATOM     14  H   UNL     1      34.173 -20.152 -25.356  0.00  0.00    +0.292 HD
ENDBRANCH   7  13
TORSDOF 2
ENDMDL
MODEL 7
REMARK VINA RESULT:      -7.2      3.662      5.341
REMARK  Name = 11318
REMARK  2 active torsions:
REMARK  status: ('A' for Active; 'I' for Inactive)
REMARK    1  A    between atoms: C_3  and  O_11
REMARK    2  A    between atoms: C_7  and  O_13
REMARK                            x       y       z     vdW  Elec       q    Type
REMARK                         _______ _______ _______ _____ _____    ______ ____
ROOT
ATOM      1  C   UNL     1      34.469 -16.046 -22.897  0.00  0.00    +0.037 C 
ATOM      2  C   UNL     1      34.495 -16.805 -24.091  0.00  0.00    +0.003 C 
ATOM      3  C   UNL     1      34.968 -16.612 -21.712  0.00  0.00    +0.167 C 
ATOM      4  C   UNL     1      35.019 -18.108 -24.066  0.00  0.00    +0.003 C 
ATOM      5  C   UNL     1      33.946 -14.743 -22.922  0.00  0.00    +0.003 C 
ATOM      6  C   UNL     1      33.997 -16.238 -25.275  0.00  0.00    +0.000 C 
ATOM      7  C   UNL     1      35.485 -17.908 -21.706  0.00  0.00    +0.167 C 
ATOM      8  C   UNL     1      35.510 -18.654 -22.880  0.00  0.00    +0.040 C 
ATOM      9  C   UNL     1      33.455 -14.196 -24.108  0.00  0.00    +0.000 C 
ATOM     10  C   UNL     1      33.480 -14.942 -25.282  0.00  0.00    +0.000 C 
ENDROOT
BRANCH   3  11
ATOM     11  O   UNL     1      34.958 -15.908 -20.541  0.00  0.00    -0.503 OA
ATOM     12  H   UNL     1      35.646 -16.028 -19.916  0.00  0.00    +0.292 HD
ENDBRANCH   3  11
BRANCH   7  13
ATOM     13  O   UNL     1      35.967 -18.458 -20.556  0.00  0.00    -0.503 OA
ATOM     14  H   UNL     1      36.819 -18.222 -20.245  0.00  0.00    +0.292 HD
ENDBRANCH   7  13
TORSDOF 2
ENDMDL
MODEL 8
REMARK VINA RESULT:      -7.1      5.163      6.975
REMARK  Name = 11318
REMARK  2 active torsions:
REMARK  status: ('A' for Active; 'I' for Inactive)
REMARK    1  A    between atoms: C_3  and  O_11
REMARK    2  A    between atoms: C_7  and  O_13
REMARK                            x       y       z     vdW  Elec       q    Type
REMARK                         _______ _______ _______ _____ _____    ______ ____
ROOT
ATOM      1  C   UNL     1      34.292 -16.758 -24.428  0.00  0.00    +0.037 C 
ATOM      2  C   UNL     1      34.667 -16.581 -23.075  0.00  0.00    +0.003 C 
ATOM      3  C   UNL     1      33.819 -15.656 -25.159  0.00  0.00    +0.167 C 
ATOM      4  C   UNL     1      34.558 -15.308 -22.492  0.00  0.00    +0.003 C 
ATOM      5  C   UNL     1      34.401 -18.031 -25.011  0.00  0.00    +0.003 C 
ATOM      6  C   UNL     1      35.140 -17.684 -22.345  0.00  0.00    +0.000 C 
ATOM      7  C   UNL     1      33.718 -14.398 -24.564  0.00  0.00    +0.167 C 
ATOM      8  C   UNL     1      34.086 -14.225 -23.233  0.00  0.00    +0.040 C 
ATOM      9  C   UNL     1      34.873 -19.114 -24.271  0.00  0.00    +0.000 C 
ATOM     10  C   UNL     1      35.242 -18.941 -22.940  0.00  0.00    +0.000 C 
ENDROOT
BRANCH   3  11
ATOM     11  O   UNL     1      33.448 -15.790 -26.468  0.00  0.00    -0.503 OA
ATOM     12  H   UNL     1      33.211 -15.034 -26.968  0.00  0.00    +0.292 HD
ENDBRANCH   3  11
BRANCH   7  13
ATOM     13  O   UNL     1      33.257 -13.329 -25.273  0.00  0.00    -0.503 OA
ATOM     14  H   UNL     1      33.795 -12.937 -25.933  0.00  0.00    +0.292 HD
ENDBRANCH   7  13
TORSDOF 2
ENDMDL
MODEL 9
REMARK VINA RESULT:      -7.0      4.612      6.218
REMARK  Name = 11318
REMARK  2 active torsions:
REMARK  status: ('A' for Active; 'I' for Inactive)
REMARK    1  A    between atoms: C_3  and  O_11
REMARK    2  A    between atoms: C_7  and  O_13
REMARK                            x       y       z     vdW  Elec       q    Type
REMARK                         _______ _______ _______ _____ _____    ______ ____
ROOT
ATOM      1  C   UNL     1      33.990 -15.555 -21.815  0.00  0.00    +0.037 C 
ATOM      2  C   UNL     1      33.556 -14.981 -23.034  0.00  0.00    +0.003 C 
ATOM      3  C   UNL     1      34.870 -16.649 -21.847  0.00  0.00    +0.167 C 
ATOM      4  C   UNL     1      34.015 -15.517 -24.248  0.00  0.00    +0.003 C 
ATOM      5  C   UNL     1      33.530 -15.020 -20.601  0.00  0.00    +0.003 C 
ATOM      6  C   UNL     1      32.675 -13.888 -23.002  0.00  0.00    +0.000 C 
ATOM      7  C   UNL     1      35.317 -17.168 -23.062  0.00  0.00    +0.167 C 
ATOM      8  C   UNL     1      34.890 -16.603 -24.260  0.00  0.00    +0.040 C 
ATOM      9  C   UNL     1      32.656 -13.933 -20.588  0.00  0.00    +0.000 C 
ATOM     10  C   UNL     1      32.229 -13.368 -21.786  0.00  0.00    +0.000 C 
ENDROOT
BRANCH   3  11
ATOM     11  O   UNL     1      35.309 -17.228 -20.689  0.00  0.00    -0.503 OA
ATOM     12  H   UNL     1      35.783 -18.036 -20.720  0.00  0.00    +0.292 HD
ENDBRANCH   3  11
BRANCH   7  13
ATOM     13  O   UNL     1      36.171 -18.230 -23.092  0.00  0.00    -0.503 OA
ATOM     14  H   UNL     1      36.669 -18.409 -23.866  0.00  0.00    +0.292 HD
ENDBRANCH   7  13
TORSDOF 2
ENDMDL
