MODEL 1
REMARK VINA RESULT:      -8.8      0.000      0.000
REMARK  Name = 449094
REMARK  2 active torsions:
REMARK  status: ('A' for Active; 'I' for Inactive)
REMARK    1  A    between atoms: CA_9  and  CB_13
REMARK    2  A    between atoms: CB_13  and  CG_16
REMARK                            x       y       z     vdW  Elec       q    Type
REMARK                         _______ _______ _______ _____ _____    ______ ____
ROOT
ATOM      1  O   HIS A   2      34.990 -16.094 -20.579  0.00  0.00    -0.273 OA
ATOM      2  O   PRO A   1      34.954 -16.822 -25.828  0.00  0.00    -0.273 OA
ATOM      3  N   PRO A   1      34.332 -15.403 -22.689  0.00  0.00    -0.272 N 
ATOM      4  N   HIS A   2      35.268 -17.654 -23.698  0.00  0.00    -0.297 N 
ATOM      5  CA  PRO A   1      33.790 -15.768 -23.990  0.00  0.00    +0.152 C 
ATOM      6  CB  PRO A   1      33.666 -14.438 -24.722  0.00  0.00    +0.031 C 
ATOM      7  CD  PRO A   1      34.251 -13.973 -22.448  0.00  0.00    +0.094 C 
ATOM      8  CG  PRO A   1      33.387 -13.452 -23.589  0.00  0.00    +0.024 C 
ATOM      9  CA  HIS A   2      34.752 -17.753 -22.336  0.00  0.00    +0.155 C 
ATOM     10  C   HIS A   2      34.748 -16.339 -21.758  0.00  0.00    +0.244 C 
ATOM     11  C   PRO A   1      34.752 -16.753 -24.619  0.00  0.00    +0.241 C 
ATOM     12  H   HIS A   2      36.006 -18.246 -23.972  0.00  0.00    +0.150 HD
ENDROOT
BRANCH   9  13
ATOM     13  CB  HIS A   2      35.588 -18.707 -21.498  0.00  0.00    +0.071 C 
BRANCH  13  16
ATOM     14  ND1 HIS A   2      35.219 -20.639 -19.972  0.00  0.00    -0.319 N 
ATOM     15  NE2 HIS A   2      33.020 -20.950 -20.028  0.00  0.00    -0.315 N 
ATOM     16  CG  HIS A   2      34.711 -19.706 -20.806  0.00  0.00    +0.040 C 
ATOM     17  CD2 HIS A   2      33.370 -19.899 -20.838  0.00  0.00    +0.069 C 
ATOM     18  CE1 HIS A   2      34.157 -21.374 -19.522  0.00  0.00    +0.182 C 
ATOM     19  HD1 HIS A   2      36.166 -20.766 -19.735  0.00  0.00    +0.148 HD
ATOM     20  HE2 HIS A   2      32.118 -21.308 -19.862  0.00  0.00    +0.148 HD
ENDBRANCH  13  16
ENDBRANCH   9  13
TORSDOF 2
ENDMDL
MODEL 2
REMARK VINA RESULT:      -8.1     10.228     12.113
REMARK  Name = 449094
REMARK  2 active torsions:
REMARK  status: ('A' for Active; 'I' for Inactive)
REMARK    1  A    between atoms: CA_9  and  CB_13
REMARK    2  A    between atoms: CB_13  and  CG_16
REMARK                            x       y       z     vdW  Elec       q    Type
REMARK                         _______ _______ _______ _____ _____    ______ ____
ROOT
ATOM      1  O   HIS A   2      35.646 -23.899 -16.068  0.00  0.00    -0.273 OA
ATOM      2  O   PRO A   1      35.885 -24.359 -10.794  0.00  0.00    -0.273 OA
ATOM      3  N   PRO A   1      36.715 -24.703 -14.178  0.00  0.00    -0.272 N 
ATOM      4  N   HIS A   2      34.676 -23.898 -12.707  0.00  0.00    -0.297 N 
ATOM      5  CA  PRO A   1      36.596 -25.352 -12.880  0.00  0.00    +0.152 C 
ATOM      6  CB  PRO A   1      38.038 -25.502 -12.413  0.00  0.00    +0.031 C 
ATOM      7  CD  PRO A   1      38.078 -24.733 -14.678  0.00  0.00    +0.094 C 
ATOM      8  CG  PRO A   1      38.804 -25.671 -13.723  0.00  0.00    +0.024 C 
ATOM      9  CA  HIS A   2      34.336 -24.310 -14.065  0.00  0.00    +0.155 C 
ATOM     10  C   HIS A   2      35.621 -24.237 -14.888  0.00  0.00    +0.244 C 
ATOM     11  C   PRO A   1      35.734 -24.464 -12.007  0.00  0.00    +0.241 C 
ATOM     12  H   HIS A   2      34.138 -23.197 -12.272  0.00  0.00    +0.150 HD
ENDROOT
BRANCH   9  13
ATOM     13  CB  HIS A   2      33.239 -23.433 -14.647  0.00  0.00    +0.071 C 
BRANCH  13  16
ATOM     14  ND1 HIS A   2      31.000 -23.978 -15.591  0.00  0.00    -0.319 N 
ATOM     15  NE2 HIS A   2      30.146 -25.421 -14.135  0.00  0.00    -0.315 N 
ATOM     16  CG  HIS A   2      31.923 -24.149 -14.619  0.00  0.00    +0.040 C 
ATOM     17  CD2 HIS A   2      31.397 -25.030 -13.733  0.00  0.00    +0.069 C 
ATOM     18  CE1 HIS A   2      29.936 -24.769 -15.257  0.00  0.00    +0.182 C 
ATOM     19  HD1 HIS A   2      31.078 -23.398 -16.383  0.00  0.00    +0.148 HD
ATOM     20  HE2 HIS A   2      29.538 -26.051 -13.684  0.00  0.00    +0.148 HD
ENDBRANCH  13  16
ENDBRANCH   9  13
TORSDOF 2
ENDMDL
MODEL 3
REMARK VINA RESULT:      -8.0      2.138      6.307
REMARK  Name = 449094
REMARK  2 active torsions:
REMARK  status: ('A' for Active; 'I' for Inactive)
REMARK    1  A    between atoms: CA_9  and  CB_13
REMARK    2  A    between atoms: CB_13  and  CG_16
REMARK                            x       y       z     vdW  Elec       q    Type
REMARK                         _______ _______ _______ _____ _____    ______ ____
ROOT
ATOM      1  O   HIS A   2      34.377 -16.118 -25.176  0.00  0.00    -0.273 OA
ATOM      2  O   PRO A   1      35.044 -15.809 -19.928  0.00  0.00    -0.273 OA
ATOM      3  N   PRO A   1      34.589 -17.167 -23.123  0.00  0.00    -0.272 N 
ATOM      4  N   HIS A   2      34.468 -14.815 -21.931  0.00  0.00    -0.297 N 
ATOM      5  CA  PRO A   1      34.213 -17.206 -21.716  0.00  0.00    +0.152 C 
ATOM      6  CB  PRO A   1      34.915 -18.449 -21.184  0.00  0.00    +0.031 C 
ATOM      7  CD  PRO A   1      35.181 -18.418 -23.562  0.00  0.00    +0.094 C 
ATOM      8  CG  PRO A   1      34.939 -19.372 -22.401  0.00  0.00    +0.024 C 
ATOM      9  CA  HIS A   2      33.708 -14.920 -23.173  0.00  0.00    +0.155 C 
ATOM     10  C   HIS A   2      34.289 -16.099 -23.951  0.00  0.00    +0.244 C 
ATOM     11  C   PRO A   1      34.664 -15.903 -21.091  0.00  0.00    +0.241 C 
ATOM     12  H   HIS A   2      34.853 -13.944 -21.680  0.00  0.00    +0.150 HD
ENDROOT
BRANCH   9  13
ATOM     13  CB  HIS A   2      33.773 -13.627 -23.969  0.00  0.00    +0.071 C 
BRANCH  13  16
ATOM     14  ND1 HIS A   2      31.919 -12.849 -22.500  0.00  0.00    -0.319 N 
ATOM     15  NE2 HIS A   2      32.109 -10.636 -22.530  0.00  0.00    -0.315 N 
ATOM     16  CG  HIS A   2      32.971 -12.555 -23.296  0.00  0.00    +0.040 C 
ATOM     17  CD2 HIS A   2      33.083 -11.204 -23.311  0.00  0.00    +0.069 C 
ATOM     18  CE1 HIS A   2      31.424 -11.654 -22.057  0.00  0.00    +0.182 C 
ATOM     19  HD1 HIS A   2      31.576 -13.746 -22.283  0.00  0.00    +0.148 HD
ATOM     20  HE2 HIS A   2      31.955  -9.678 -22.361  0.00  0.00    +0.148 HD
ENDBRANCH  13  16
ENDBRANCH   9  13
TORSDOF 2
ENDMDL
MODEL 4
REMARK VINA RESULT:      -8.0      8.930     11.051
REMARK  Name = 449094
REMARK  2 active torsions:
REMARK  status: ('A' for Active; 'I' for Inactive)
REMARK    1  A    between atoms: CA_9  and  CB_13
REMARK    2  A    between atoms: CB_13  and  CG_16
REMARK                            x       y       z     vdW  Elec       q    Type
REMARK                         _______ _______ _______ _____ _____    ______ ____
ROOT
ATOM      1  O   HIS A   2      34.728 -23.446 -16.732  0.00  0.00    -0.273 OA
ATOM      2  O   PRO A   1      31.344 -25.215 -13.057  0.00  0.00    -0.273 OA
ATOM      3  N   PRO A   1      32.611 -23.438 -15.795  0.00  0.00    -0.272 N 
ATOM      4  N   HIS A   2      33.510 -24.911 -13.798  0.00  0.00    -0.297 N 
ATOM      5  CA  PRO A   1      31.800 -23.399 -14.586  0.00  0.00    +0.152 C 
ATOM      6  CB  PRO A   1      30.369 -23.366 -15.106  0.00  0.00    +0.031 C 
ATOM      7  CD  PRO A   1      31.835 -23.115 -16.980  0.00  0.00    +0.094 C 
ATOM      8  CG  PRO A   1      30.505 -22.617 -16.430  0.00  0.00    +0.024 C 
ATOM      9  CA  HIS A   2      34.485 -23.992 -14.379  0.00  0.00    +0.155 C 
ATOM     10  C   HIS A   2      33.981 -23.633 -15.776  0.00  0.00    +0.244 C 
ATOM     11  C   PRO A   1      32.152 -24.622 -13.767  0.00  0.00    +0.241 C 
ATOM     12  H   HIS A   2      33.825 -25.762 -13.416  0.00  0.00    +0.150 HD
ENDROOT
BRANCH   9  13
ATOM     13  CB  HIS A   2      35.872 -24.614 -14.418  0.00  0.00    +0.071 C 
BRANCH  13  16
ATOM     14  ND1 HIS A   2      36.288 -23.114 -12.475  0.00  0.00    -0.319 N 
ATOM     15  NE2 HIS A   2      38.249 -23.797 -11.686  0.00  0.00    -0.315 N 
ATOM     16  CG  HIS A   2      36.695 -24.135 -13.261  0.00  0.00    +0.040 C 
ATOM     17  CD2 HIS A   2      37.891 -24.549 -12.776  0.00  0.00    +0.069 C 
ATOM     18  CE1 HIS A   2      37.262 -22.942 -11.531  0.00  0.00    +0.182 C 
ATOM     19  HD1 HIS A   2      35.456 -22.596 -12.565  0.00  0.00    +0.148 HD
ATOM     20  HE2 HIS A   2      39.063 -23.879 -11.139  0.00  0.00    +0.148 HD
ENDBRANCH  13  16
ENDBRANCH   9  13
TORSDOF 2
ENDMDL
MODEL 5
REMARK VINA RESULT:      -8.0      2.583      6.545
REMARK  Name = 449094
REMARK  2 active torsions:
REMARK  status: ('A' for Active; 'I' for Inactive)
REMARK    1  A    between atoms: CA_9  and  CB_13
REMARK    2  A    between atoms: CB_13  and  CG_16
REMARK                            x       y       z     vdW  Elec       q    Type
REMARK                         _______ _______ _______ _____ _____    ______ ____
ROOT
ATOM      1  O   HIS A   2      33.403 -14.466 -21.064  0.00  0.00    -0.273 OA
ATOM      2  O   PRO A   1      34.031 -16.549 -25.896  0.00  0.00    -0.273 OA
ATOM      3  N   PRO A   1      34.368 -16.052 -22.446  0.00  0.00    -0.272 N 
ATOM      4  N   HIS A   2      33.391 -14.788 -24.547  0.00  0.00    -0.297 N 
ATOM      5  CA  PRO A   1      35.036 -16.342 -23.707  0.00  0.00    +0.152 C 
ATOM      6  CB  PRO A   1      35.353 -17.830 -23.620  0.00  0.00    +0.031 C 
ATOM      7  CD  PRO A   1      34.530 -17.129 -21.485  0.00  0.00    +0.094 C 
ATOM      8  CG  PRO A   1      35.566 -18.044 -22.123  0.00  0.00    +0.024 C 
ATOM      9  CA  HIS A   2      33.726 -13.935 -23.410  0.00  0.00    +0.155 C 
ATOM     10  C   HIS A   2      33.769 -14.834 -22.176  0.00  0.00    +0.244 C 
ATOM     11  C   PRO A   1      34.086 -15.958 -24.821  0.00  0.00    +0.241 C 
ATOM     12  H   HIS A   2      32.649 -14.524 -25.138  0.00  0.00    +0.150 HD
ENDROOT
BRANCH   9  13
ATOM     13  CB  HIS A   2      32.721 -12.805 -23.255  0.00  0.00    +0.071 C 
BRANCH  13  16
ATOM     14  ND1 HIS A   2      34.471 -11.423 -24.363  0.00  0.00    -0.319 N 
ATOM     15  NE2 HIS A   2      33.883  -9.335 -23.883  0.00  0.00    -0.315 N 
ATOM     16  CG  HIS A   2      33.347 -11.492 -23.616  0.00  0.00    +0.040 C 
ATOM     17  CD2 HIS A   2      32.992 -10.216 -23.326  0.00  0.00    +0.069 C 
ATOM     18  CE1 HIS A   2      34.762 -10.094 -24.501  0.00  0.00    +0.182 C 
ATOM     19  HD1 HIS A   2      34.980 -12.179 -24.734  0.00  0.00    +0.148 HD
ATOM     20  HE2 HIS A   2      33.869  -8.352 -23.833  0.00  0.00    +0.148 HD
ENDBRANCH  13  16
ENDBRANCH   9  13
TORSDOF 2
ENDMDL
MODEL 6
REMARK VINA RESULT:      -7.9      1.388      2.867
REMARK  Name = 449094
REMARK  2 active torsions:
REMARK  status: ('A' for Active; 'I' for Inactive)
REMARK    1  A    between atoms: CA_9  and  CB_13
REMARK    2  A    between atoms: CB_13  and  CG_16
REMARK                            x       y       z     vdW  Elec       q    Type
REMARK                         _______ _______ _______ _____ _____    ______ ____
ROOT
ATOM      1  O   HIS A   2      34.063 -16.998 -25.688  0.00  0.00    -0.273 OA
ATOM      2  O   PRO A   1      33.670 -14.680 -20.938  0.00  0.00    -0.273 OA
ATOM      3  N   PRO A   1      33.877 -15.075 -24.411  0.00  0.00    -0.272 N 
ATOM      4  N   HIS A   2      34.217 -16.517 -22.226  0.00  0.00    -0.297 N 
ATOM      5  CA  PRO A   1      34.317 -14.329 -23.240  0.00  0.00    +0.152 C 
ATOM      6  CB  PRO A   1      33.557 -13.012 -23.340  0.00  0.00    +0.031 C 
ATOM      7  CD  PRO A   1      33.181 -14.231 -25.365  0.00  0.00    +0.094 C 
ATOM      8  CG  PRO A   1      33.412 -12.817 -24.848  0.00  0.00    +0.024 C 
ATOM      9  CA  HIS A   2      34.907 -17.017 -23.411  0.00  0.00    +0.155 C 
ATOM     10  C   HIS A   2      34.211 -16.402 -24.624  0.00  0.00    +0.244 C 
ATOM     11  C   PRO A   1      33.986 -15.163 -22.021  0.00  0.00    +0.241 C 
ATOM     12  H   HIS A   2      33.904 -17.161 -21.550  0.00  0.00    +0.150 HD
ENDROOT
BRANCH   9  13
ATOM     13  CB  HIS A   2      34.893 -18.536 -23.457  0.00  0.00    +0.071 C 
BRANCH  13  16
ATOM     14  ND1 HIS A   2      34.498 -20.001 -21.483  0.00  0.00    -0.319 N 
ATOM     15  NE2 HIS A   2      36.276 -19.653 -20.198  0.00  0.00    -0.315 N 
ATOM     16  CG  HIS A   2      35.280 -19.105 -22.126  0.00  0.00    +0.040 C 
ATOM     17  CD2 HIS A   2      36.363 -18.896 -21.338  0.00  0.00    +0.069 C 
ATOM     18  CE1 HIS A   2      35.141 -20.306 -20.316  0.00  0.00    +0.182 C 
ATOM     19  HD1 HIS A   2      33.637 -20.362 -21.794  0.00  0.00    +0.148 HD
ATOM     20  HE2 HIS A   2      36.920 -19.697 -19.454  0.00  0.00    +0.148 HD
ENDBRANCH  13  16
ENDBRANCH   9  13
TORSDOF 2
ENDMDL
MODEL 7
REMARK VINA RESULT:      -7.9      8.158     10.177
REMARK  Name = 449094
REMARK  2 active torsions:
REMARK  status: ('A' for Active; 'I' for Inactive)
REMARK    1  A    between atoms: CA_9  and  CB_13
REMARK    2  A    between atoms: CB_13  and  CG_16
REMARK                            x       y       z     vdW  Elec       q    Type
REMARK                         _______ _______ _______ _____ _____    ______ ____
ROOT
ATOM      1  O   HIS A   2      34.070 -23.646 -13.399  0.00  0.00    -0.273 OA
ATOM      2  O   PRO A   1      32.640 -22.455 -18.361  0.00  0.00    -0.273 OA
ATOM      3  N   PRO A   1      32.408 -23.346 -14.983  0.00  0.00    -0.272 N 
ATOM      4  N   HIS A   2      34.258 -23.116 -16.852  0.00  0.00    -0.297 N 
ATOM      5  CA  PRO A   1      31.946 -23.590 -16.343  0.00  0.00    +0.152 C 
ATOM      6  CB  PRO A   1      30.555 -22.969 -16.373  0.00  0.00    +0.031 C 
ATOM      7  CD  PRO A   1      31.327 -22.928 -14.108  0.00  0.00    +0.094 C 
ATOM      8  CG  PRO A   1      30.069 -23.154 -14.937  0.00  0.00    +0.024 C 
ATOM      9  CA  HIS A   2      34.606 -23.997 -15.741  0.00  0.00    +0.155 C 
ATOM     10  C   HIS A   2      33.702 -23.615 -14.570  0.00  0.00    +0.244 C 
ATOM     11  C   PRO A   1      32.948 -22.952 -17.282  0.00  0.00    +0.241 C 
ATOM     12  H   HIS A   2      34.976 -22.623 -17.311  0.00  0.00    +0.150 HD
ENDROOT
BRANCH   9  13
ATOM     13  CB  HIS A   2      36.078 -23.878 -15.384  0.00  0.00    +0.071 C 
BRANCH  13  16
ATOM     14  ND1 HIS A   2      36.855 -25.025 -13.315  0.00  0.00    -0.319 N 
ATOM     15  NE2 HIS A   2      37.149 -27.132 -13.952  0.00  0.00    -0.315 N 
ATOM     16  CG  HIS A   2      36.535 -25.088 -14.626  0.00  0.00    +0.040 C 
ATOM     17  CD2 HIS A   2      36.716 -26.375 -15.010  0.00  0.00    +0.069 C 
ATOM     18  CE1 HIS A   2      37.223 -26.289 -12.946  0.00  0.00    +0.182 C 
ATOM     19  HD1 HIS A   2      36.829 -24.226 -12.739  0.00  0.00    +0.148 HD
ATOM     20  HE2 HIS A   2      37.359 -28.094 -13.946  0.00  0.00    +0.148 HD
ENDBRANCH  13  16
ENDBRANCH   9  13
TORSDOF 2
ENDMDL
MODEL 8
REMARK VINA RESULT:      -7.8      8.824     11.572
REMARK  Name = 449094
REMARK  2 active torsions:
REMARK  status: ('A' for Active; 'I' for Inactive)
REMARK    1  A    between atoms: CA_9  and  CB_13
REMARK    2  A    between atoms: CB_13  and  CG_16
REMARK                            x       y       z     vdW  Elec       q    Type
REMARK                         _______ _______ _______ _____ _____    ______ ____
ROOT
ATOM      1  O   HIS A   2      35.423 -23.731 -12.353  0.00  0.00    -0.273 OA
ATOM      2  O   PRO A   1      36.718 -27.293 -16.058  0.00  0.00    -0.273 OA
ATOM      3  N   PRO A   1      37.045 -24.895 -13.527  0.00  0.00    -0.272 N 
ATOM      4  N   HIS A   2      35.173 -25.854 -15.122  0.00  0.00    -0.297 N 
ATOM      5  CA  PRO A   1      37.520 -25.381 -14.815  0.00  0.00    +0.152 C 
ATOM      6  CB  PRO A   1      38.850 -26.049 -14.485  0.00  0.00    +0.031 C 
ATOM      7  CD  PRO A   1      38.087 -24.922 -12.517  0.00  0.00    +0.094 C 
ATOM      8  CG  PRO A   1      39.356 -25.229 -13.300  0.00  0.00    +0.024 C 
ATOM      9  CA  HIS A   2      34.911 -24.520 -14.591  0.00  0.00    +0.155 C 
ATOM     10  C   HIS A   2      35.782 -24.357 -13.347  0.00  0.00    +0.244 C 
ATOM     11  C   PRO A   1      36.461 -26.312 -15.366  0.00  0.00    +0.241 C 
ATOM     12  H   HIS A   2      34.412 -26.449 -15.313  0.00  0.00    +0.150 HD
ENDROOT
BRANCH   9  13
ATOM     13  CB  HIS A   2      33.435 -24.331 -14.280  0.00  0.00    +0.071 C 
BRANCH  13  16
ATOM     14  ND1 HIS A   2      33.392 -23.337 -16.562  0.00  0.00    -0.319 N 
ATOM     15  NE2 HIS A   2      31.264 -22.774 -16.858  0.00  0.00    -0.315 N 
ATOM     16  CG  HIS A   2      32.732 -23.687 -15.437  0.00  0.00    +0.040 C 
ATOM     17  CD2 HIS A   2      31.434 -23.342 -15.621  0.00  0.00    +0.069 C 
ATOM     18  CE1 HIS A   2      32.462 -22.785 -17.399  0.00  0.00    +0.182 C 
ATOM     19  HD1 HIS A   2      34.353 -23.455 -16.744  0.00  0.00    +0.148 HD
ATOM     20  HE2 HIS A   2      30.429 -22.433 -17.254  0.00  0.00    +0.148 HD
ENDBRANCH  13  16
ENDBRANCH   9  13
TORSDOF 2
ENDMDL
MODEL 9
REMARK VINA RESULT:      -7.8      2.708      6.266
REMARK  Name = 449094
REMARK  2 active torsions:
REMARK  status: ('A' for Active; 'I' for Inactive)
REMARK    1  A    between atoms: CA_9  and  CB_13
REMARK    2  A    between atoms: CB_13  and  CG_16
REMARK                            x       y       z     vdW  Elec       q    Type
REMARK                         _______ _______ _______ _____ _____    ______ ____
ROOT
ATOM      1  O   HIS A   2      37.270 -20.047 -20.313  0.00  0.00    -0.273 OA
ATOM      2  O   PRO A   1      31.977 -19.893 -20.093  0.00  0.00    -0.273 OA
ATOM      3  N   PRO A   1      35.267 -21.008 -19.657  0.00  0.00    -0.272 N 
ATOM      4  N   HIS A   2      33.960 -19.172 -21.032  0.00  0.00    -0.297 N 
ATOM      5  CA  PRO A   1      33.898 -21.358 -20.007  0.00  0.00    +0.152 C 
ATOM      6  CB  PRO A   1      33.384 -22.097 -18.779  0.00  0.00    +0.031 C 
ATOM      7  CD  PRO A   1      35.729 -21.727 -18.484  0.00  0.00    +0.094 C 
ATOM      8  CG  PRO A   1      34.644 -22.765 -18.233  0.00  0.00    +0.024 C 
ATOM      9  CA  HIS A   2      35.260 -19.548 -21.580  0.00  0.00    +0.155 C 
ATOM     10  C   HIS A   2      36.056 -20.183 -20.442  0.00  0.00    +0.244 C 
ATOM     11  C   PRO A   1      33.169 -20.069 -20.326  0.00  0.00    +0.241 C 
ATOM     12  H   HIS A   2      33.633 -18.253 -21.167  0.00  0.00    +0.150 HD
ENDROOT
BRANCH   9  13
ATOM     13  CB  HIS A   2      35.976 -18.345 -22.172  0.00  0.00    +0.071 C 
BRANCH  13  16
ATOM     14  ND1 HIS A   2      35.390 -16.657 -23.906  0.00  0.00    -0.319 N 
ATOM     15  NE2 HIS A   2      34.230 -17.814 -25.406  0.00  0.00    -0.315 N 
ATOM     16  CG  HIS A   2      35.331 -17.931 -23.460  0.00  0.00    +0.040 C 
ATOM     17  CD2 HIS A   2      34.622 -18.633 -24.377  0.00  0.00    +0.069 C 
ATOM     18  CE1 HIS A   2      34.708 -16.630 -25.090  0.00  0.00    +0.182 C 
ATOM     19  HD1 HIS A   2      35.835 -15.897 -23.464  0.00  0.00    +0.148 HD
ATOM     20  HE2 HIS A   2      33.707 -18.058 -26.203  0.00  0.00    +0.148 HD
ENDBRANCH  13  16
ENDBRANCH   9  13
TORSDOF 2
ENDMDL
