MODEL 1
REMARK VINA RESULT:     -11.0      0.000      0.000
REMARK  Name = 95054
REMARK  5 active torsions:
REMARK  status: ('A' for Active; 'I' for Inactive)
REMARK    1  A    between atoms: C_7  and  C_16
REMARK    2  A    between atoms: C_16  and  N_17
REMARK    3  A    between atoms: N_17  and  C_19
REMARK    4  A    between atoms: C_22  and  C_26
REMARK    5  A    between atoms: C_26  and  O_27
REMARK                            x       y       z     vdW  Elec       q    Type
REMARK                         _______ _______ _______ _____ _____    ______ ____
ROOT
ATOM      1  O   UNL     1      34.006 -17.349 -25.827  0.00  0.00    -0.206 OA
ATOM      2  N   UNL     1      34.406 -16.486 -23.331  0.00  0.00    -0.391 NA
ATOM      3  N   UNL     1      33.341 -13.474 -25.099  0.00  0.00    -0.259 N 
ATOM      4  N   UNL     1      33.945 -13.770 -22.794  0.00  0.00    -0.246 NA
ATOM      5  N   UNL     1      33.372 -15.292 -26.638  0.00  0.00    -0.300 NA
ATOM      6  N   UNL     1      32.753 -13.127 -27.290  0.00  0.00    -0.320 N 
ATOM      7  C   UNL     1      34.582 -15.965 -22.104  0.00  0.00    +0.132 C 
ATOM      8  C   UNL     1      33.996 -15.617 -24.276  0.00  0.00    +0.255 C 
ATOM      9  C   UNL     1      33.763 -14.274 -24.033  0.00  0.00    +0.173 C 
ATOM     10  C   UNL     1      34.356 -14.632 -21.839  0.00  0.00    +0.183 C 
ATOM     11  C   UNL     1      33.793 -16.154 -25.641  0.00  0.00    +0.240 C 
ATOM     12  C   UNL     1      33.169 -14.033 -26.347  0.00  0.00    +0.249 C 
ATOM     13  H   UNL     1      33.166 -12.515 -24.960  0.00  0.00    +0.157 HD
ATOM     14  H   UNL     1      32.608 -12.187 -27.039  0.00  0.00    +0.146 HD
ATOM     15  H   UNL     1      32.597 -13.418 -28.217  0.00  0.00    +0.146 HD
ENDROOT
BRANCH   7  16
ATOM     16  C   UNL     1      35.034 -16.883 -21.023  0.00  0.00    +0.145 C 
BRANCH  16  17
ATOM     17  N   UNL     1      35.271 -18.217 -21.538  0.00  0.00    -0.327 N 
ATOM     18  H   UNL     1      35.699 -18.305 -22.420  0.00  0.00    +0.147 HD
BRANCH  17  19
ATOM     19  C   UNL     1      34.928 -19.371 -20.858  0.00  0.00    +0.045 C 
ATOM     20  C   UNL     1      35.918 -20.210 -20.309  0.00  0.00    +0.015 C 
ATOM     21  C   UNL     1      33.580 -19.744 -20.698  0.00  0.00    +0.015 C 
ATOM     22  C   UNL     1      34.229 -21.726 -19.479  0.00  0.00    +0.076 C 
ATOM     23  C   UNL     1      35.571 -21.376 -19.625  0.00  0.00    +0.008 C 
ATOM     24  C   UNL     1      33.233 -20.910 -20.016  0.00  0.00    +0.008 C 
BRANCH  22  26
ATOM     25  O   UNL     1      33.540 -23.006 -17.579  0.00  0.00    -0.245 OA
ATOM     26  C   UNL     1      33.869 -22.942 -18.768  0.00  0.00    +0.338 C 
BRANCH  26  27
ATOM     27  O   UNL     1      33.927 -24.046 -19.563  0.00  0.00    -0.477 OA
ATOM     28  H   UNL     1      33.995 -23.951 -20.492  0.00  0.00    +0.295 HD
ENDBRANCH  26  27
ENDBRANCH  22  26
ENDBRANCH  17  19
ENDBRANCH  16  17
ENDBRANCH   7  16
TORSDOF 5
ENDMDL
MODEL 2
REMARK VINA RESULT:     -10.9      6.521     11.128
REMARK  Name = 95054
REMARK  5 active torsions:
REMARK  status: ('A' for Active; 'I' for Inactive)
REMARK    1  A    between atoms: C_7  and  C_16
REMARK    2  A    between atoms: C_16  and  N_17
REMARK    3  A    between atoms: N_17  and  C_19
REMARK    4  A    between atoms: C_22  and  C_26
REMARK    5  A    between atoms: C_26  and  O_27
REMARK                            x       y       z     vdW  Elec       q    Type
REMARK                         _______ _______ _______ _____ _____    ______ ____
ROOT
ATOM      1  O   UNL     1      36.243 -27.373 -15.387  0.00  0.00    -0.206 OA
ATOM      2  N   UNL     1      35.536 -24.815 -15.691  0.00  0.00    -0.391 NA
ATOM      3  N   UNL     1      38.974 -24.598 -14.477  0.00  0.00    -0.259 N 
ATOM      4  N   UNL     1      37.436 -22.847 -15.060  0.00  0.00    -0.246 NA
ATOM      5  N   UNL     1      38.366 -26.895 -14.643  0.00  0.00    -0.300 NA
ATOM      6  N   UNL     1      40.488 -26.225 -13.905  0.00  0.00    -0.320 N 
ATOM      7  C   UNL     1      35.268 -23.503 -15.814  0.00  0.00    +0.132 C 
ATOM      8  C   UNL     1      36.774 -25.114 -15.247  0.00  0.00    +0.255 C 
ATOM      9  C   UNL     1      37.726 -24.159 -14.930  0.00  0.00    +0.173 C 
ATOM     10  C   UNL     1      36.199 -22.537 -15.505  0.00  0.00    +0.183 C 
ATOM     11  C   UNL     1      37.106 -26.549 -15.097  0.00  0.00    +0.240 C 
ATOM     12  C   UNL     1      39.223 -25.947 -14.360  0.00  0.00    +0.249 C 
ATOM     13  H   UNL     1      39.673 -23.944 -14.244  0.00  0.00    +0.157 HD
ATOM     14  H   UNL     1      41.109 -25.489 -13.701  0.00  0.00    +0.146 HD
ATOM     15  H   UNL     1      40.774 -27.158 -13.784  0.00  0.00    +0.146 HD
ENDROOT
BRANCH   7  16
ATOM     16  C   UNL     1      33.914 -23.119 -16.301  0.00  0.00    +0.145 C 
BRANCH  16  17
ATOM     17  N   UNL     1      33.812 -23.283 -17.737  0.00  0.00    -0.327 N 
ATOM     18  H   UNL     1      33.549 -24.165 -18.086  0.00  0.00    +0.147 HD
BRANCH  17  19
ATOM     19  C   UNL     1      34.065 -22.269 -18.643  0.00  0.00    +0.045 C 
ATOM     20  C   UNL     1      35.383 -21.944 -19.018  0.00  0.00    +0.015 C 
ATOM     21  C   UNL     1      33.011 -21.529 -19.214  0.00  0.00    +0.015 C 
ATOM     22  C   UNL     1      34.578 -20.199 -20.484  0.00  0.00    +0.076 C 
ATOM     23  C   UNL     1      35.637 -20.919 -19.931  0.00  0.00    +0.008 C 
ATOM     24  C   UNL     1      33.265 -20.504 -20.125  0.00  0.00    +0.008 C 
BRANCH  22  26
ATOM     25  O   UNL     1      34.484 -19.116 -22.615  0.00  0.00    -0.245 OA
ATOM     26  C   UNL     1      34.844 -19.131 -21.433  0.00  0.00    +0.338 C 
BRANCH  26  27
ATOM     27  O   UNL     1      35.553 -18.107 -20.880  0.00  0.00    -0.477 OA
ATOM     28  H   UNL     1      35.436 -17.233 -21.194  0.00  0.00    +0.295 HD
ENDBRANCH  26  27
ENDBRANCH  22  26
ENDBRANCH  17  19
ENDBRANCH  16  17
ENDBRANCH   7  16
TORSDOF 5
ENDMDL
MODEL 3
REMARK VINA RESULT:     -10.8     10.032     12.318
REMARK  Name = 95054
REMARK  5 active torsions:
REMARK  status: ('A' for Active; 'I' for Inactive)
REMARK    1  A    between atoms: C_7  and  C_16
REMARK    2  A    between atoms: C_16  and  N_17
REMARK    3  A    between atoms: N_17  and  C_19
REMARK    4  A    between atoms: C_22  and  C_26
REMARK    5  A    between atoms: C_26  and  O_27
REMARK                            x       y       z     vdW  Elec       q    Type
REMARK                         _______ _______ _______ _____ _____    ______ ____
ROOT
ATOM      1  O   UNL     1      37.254 -26.365 -11.844  0.00  0.00    -0.206 OA
ATOM      2  N   UNL     1      35.481 -24.889 -13.191  0.00  0.00    -0.391 NA
ATOM      3  N   UNL     1      38.443 -24.797 -15.325  0.00  0.00    -0.259 N 
ATOM      4  N   UNL     1      36.291 -23.778 -15.638  0.00  0.00    -0.246 NA
ATOM      5  N   UNL     1      38.930 -26.110 -13.397  0.00  0.00    -0.300 NA
ATOM      6  N   UNL     1      40.519 -25.744 -15.083  0.00  0.00    -0.320 N 
ATOM      7  C   UNL     1      34.655 -24.133 -13.936  0.00  0.00    +0.132 C 
ATOM      8  C   UNL     1      36.716 -25.072 -13.700  0.00  0.00    +0.255 C 
ATOM      9  C   UNL     1      37.136 -24.534 -14.905  0.00  0.00    +0.173 C 
ATOM     10  C   UNL     1      35.052 -23.588 -15.137  0.00  0.00    +0.183 C 
ATOM     11  C   UNL     1      37.654 -25.899 -12.907  0.00  0.00    +0.240 C 
ATOM     12  C   UNL     1      39.269 -25.574 -14.542  0.00  0.00    +0.249 C 
ATOM     13  H   UNL     1      38.773 -24.429 -16.176  0.00  0.00    +0.157 HD
ATOM     14  H   UNL     1      40.743 -25.328 -15.946  0.00  0.00    +0.146 HD
ATOM     15  H   UNL     1      41.192 -26.284 -14.607  0.00  0.00    +0.146 HD
ENDROOT
BRANCH   7  16
ATOM     16  C   UNL     1      33.279 -23.899 -13.418  0.00  0.00    +0.145 C 
BRANCH  16  17
ATOM     17  N   UNL     1      32.318 -24.750 -14.090  0.00  0.00    -0.327 N 
ATOM     18  H   UNL     1      32.438 -25.725 -14.028  0.00  0.00    +0.147 HD
BRANCH  17  19
ATOM     19  C   UNL     1      31.243 -24.267 -14.813  0.00  0.00    +0.045 C 
ATOM     20  C   UNL     1      29.951 -24.802 -14.635  0.00  0.00    +0.015 C 
ATOM     21  C   UNL     1      31.408 -23.229 -15.751  0.00  0.00    +0.015 C 
ATOM     22  C   UNL     1      29.054 -23.287 -16.290  0.00  0.00    +0.076 C 
ATOM     23  C   UNL     1      28.867 -24.315 -15.367  0.00  0.00    +0.008 C 
ATOM     24  C   UNL     1      30.324 -22.744 -16.482  0.00  0.00    +0.008 C 
BRANCH  22  26
ATOM     25  O   UNL     1      27.473 -21.634 -16.991  0.00  0.00    -0.245 OA
ATOM     26  C   UNL     1      27.924 -22.782 -17.053  0.00  0.00    +0.338 C 
BRANCH  26  27
ATOM     27  O   UNL     1      27.388 -23.727 -17.876  0.00  0.00    -0.477 OA
ATOM     28  H   UNL     1      27.949 -24.304 -18.354  0.00  0.00    +0.295 HD
ENDBRANCH  26  27
ENDBRANCH  22  26
ENDBRANCH  17  19
ENDBRANCH  16  17
ENDBRANCH   7  16
TORSDOF 5
ENDMDL
MODEL 4
REMARK VINA RESULT:     -10.7     10.670     12.522
REMARK  Name = 95054
REMARK  5 active torsions:
REMARK  status: ('A' for Active; 'I' for Inactive)
REMARK    1  A    between atoms: C_7  and  C_16
REMARK    2  A    between atoms: C_16  and  N_17
REMARK    3  A    between atoms: N_17  and  C_19
REMARK    4  A    between atoms: C_22  and  C_26
REMARK    5  A    between atoms: C_26  and  O_27
REMARK                            x       y       z     vdW  Elec       q    Type
REMARK                         _______ _______ _______ _____ _____    ______ ____
ROOT
ATOM      1  O   UNL     1      36.389 -26.846 -15.756  0.00  0.00    -0.206 OA
ATOM      2  N   UNL     1      35.411 -25.089 -13.998  0.00  0.00    -0.391 NA
ATOM      3  N   UNL     1      38.976 -25.174 -13.207  0.00  0.00    -0.259 N 
ATOM      4  N   UNL     1      37.207 -23.900 -12.197  0.00  0.00    -0.246 NA
ATOM      5  N   UNL     1      38.558 -26.670 -15.013  0.00  0.00    -0.300 NA
ATOM      6  N   UNL     1      40.708 -26.364 -14.129  0.00  0.00    -0.320 N 
ATOM      7  C   UNL     1      35.008 -24.194 -13.078  0.00  0.00    +0.132 C 
ATOM      8  C   UNL     1      36.729 -25.371 -13.991  0.00  0.00    +0.255 C 
ATOM      9  C   UNL     1      37.632 -24.797 -13.113  0.00  0.00    +0.173 C 
ATOM     10  C   UNL     1      35.888 -23.610 -12.195  0.00  0.00    +0.183 C 
ATOM     11  C   UNL     1      37.211 -26.354 -14.989  0.00  0.00    +0.240 C 
ATOM     12  C   UNL     1      39.362 -26.094 -14.156  0.00  0.00    +0.249 C 
ATOM     13  H   UNL     1      39.643 -24.784 -12.597  0.00  0.00    +0.157 HD
ATOM     14  H   UNL     1      41.286 -25.914 -13.472  0.00  0.00    +0.146 HD
ATOM     15  H   UNL     1      41.094 -27.007 -14.766  0.00  0.00    +0.146 HD
ENDROOT
BRANCH   7  16
ATOM     16  C   UNL     1      33.560 -23.847 -13.043  0.00  0.00    +0.145 C 
BRANCH  16  17
ATOM     17  N   UNL     1      32.782 -24.776 -13.836  0.00  0.00    -0.327 N 
ATOM     18  H   UNL     1      33.046 -25.725 -13.832  0.00  0.00    +0.147 HD
BRANCH  17  19
ATOM     19  C   UNL     1      31.691 -24.404 -14.600  0.00  0.00    +0.045 C 
ATOM     20  C   UNL     1      31.780 -23.341 -15.520  0.00  0.00    +0.015 C 
ATOM     21  C   UNL     1      30.459 -25.074 -14.477  0.00  0.00    +0.015 C 
ATOM     22  C   UNL     1      29.467 -23.642 -16.151  0.00  0.00    +0.076 C 
ATOM     23  C   UNL     1      30.678 -22.964 -16.289  0.00  0.00    +0.008 C 
ATOM     24  C   UNL     1      29.357 -24.697 -15.245  0.00  0.00    +0.008 C 
BRANCH  22  26
ATOM     25  O   UNL     1      27.621 -24.010 -17.628  0.00  0.00    -0.245 OA
ATOM     26  C   UNL     1      28.319 -23.247 -16.951  0.00  0.00    +0.338 C 
BRANCH  26  27
ATOM     27  O   UNL     1      28.072 -21.909 -16.883  0.00  0.00    -0.477 OA
ATOM     28  H   UNL     1      27.224 -21.578 -17.101  0.00  0.00    +0.295 HD
ENDBRANCH  26  27
ENDBRANCH  22  26
ENDBRANCH  17  19
ENDBRANCH  16  17
ENDBRANCH   7  16
TORSDOF 5
ENDMDL
MODEL 5
REMARK VINA RESULT:     -10.5      1.447      2.310
REMARK  Name = 95054
REMARK  5 active torsions:
REMARK  status: ('A' for Active; 'I' for Inactive)
REMARK    1  A    between atoms: C_7  and  C_16
REMARK    2  A    between atoms: C_16  and  N_17
REMARK    3  A    between atoms: N_17  and  C_19
REMARK    4  A    between atoms: C_22  and  C_26
REMARK    5  A    between atoms: C_26  and  O_27
REMARK                            x       y       z     vdW  Elec       q    Type
REMARK                         _______ _______ _______ _____ _____    ______ ____
ROOT
ATOM      1  O   UNL     1      33.848 -13.183 -22.894  0.00  0.00    -0.206 OA
ATOM      2  N   UNL     1      34.617 -15.740 -22.828  0.00  0.00    -0.391 NA
ATOM      3  N   UNL     1      33.472 -15.296 -26.267  0.00  0.00    -0.259 N 
ATOM      4  N   UNL     1      34.364 -17.245 -25.184  0.00  0.00    -0.246 NA
ATOM      5  N   UNL     1      33.210 -13.234 -25.102  0.00  0.00    -0.300 NA
ATOM      6  N   UNL     1      32.613 -13.469 -27.358  0.00  0.00    -0.320 N 
ATOM      7  C   UNL     1      34.979 -17.034 -22.887  0.00  0.00    +0.132 C 
ATOM      8  C   UNL     1      34.128 -15.223 -23.973  0.00  0.00    +0.255 C 
ATOM      9  C   UNL     1      33.995 -15.947 -25.145  0.00  0.00    +0.173 C 
ATOM     10  C   UNL     1      34.855 -17.773 -24.042  0.00  0.00    +0.183 C 
ATOM     11  C   UNL     1      33.717 -13.801 -23.947  0.00  0.00    +0.240 C 
ATOM     12  C   UNL     1      33.108 -13.970 -26.180  0.00  0.00    +0.249 C 
ATOM     13  H   UNL     1      33.365 -15.783 -27.116  0.00  0.00    +0.157 HD
ATOM     14  H   UNL     1      32.549 -14.048 -28.151  0.00  0.00    +0.146 HD
ATOM     15  H   UNL     1      32.323 -12.530 -27.410  0.00  0.00    +0.146 HD
ENDROOT
BRANCH   7  16
ATOM     16  C   UNL     1      35.526 -17.654 -21.648  0.00  0.00    +0.145 C 
BRANCH  16  17
ATOM     17  N   UNL     1      35.645 -19.090 -21.793  0.00  0.00    -0.327 N 
ATOM     18  H   UNL     1      36.148 -19.439 -22.564  0.00  0.00    +0.147 HD
BRANCH  17  19
ATOM     19  C   UNL     1      35.091 -19.997 -20.908  0.00  0.00    +0.045 C 
ATOM     20  C   UNL     1      33.696 -20.069 -20.724  0.00  0.00    +0.015 C 
ATOM     21  C   UNL     1      35.904 -20.873 -20.164  0.00  0.00    +0.015 C 
ATOM     22  C   UNL     1      33.962 -21.841 -19.103  0.00  0.00    +0.076 C 
ATOM     23  C   UNL     1      33.137 -20.984 -19.830  0.00  0.00    +0.008 C 
ATOM     24  C   UNL     1      35.346 -21.786 -19.270  0.00  0.00    +0.008 C 
BRANCH  22  26
ATOM     25  O   UNL     1      33.970 -23.749 -17.659  0.00  0.00    -0.245 OA
ATOM     26  C   UNL     1      33.379 -22.792 -18.170  0.00  0.00    +0.338 C 
BRANCH  26  27
ATOM     27  O   UNL     1      32.072 -22.521 -17.900  0.00  0.00    -0.477 OA
ATOM     28  H   UNL     1      31.844 -21.758 -17.408  0.00  0.00    +0.295 HD
ENDBRANCH  26  27
ENDBRANCH  22  26
ENDBRANCH  17  19
ENDBRANCH  16  17
ENDBRANCH   7  16
TORSDOF 5
ENDMDL
MODEL 6
REMARK VINA RESULT:     -10.3      6.167     10.740
REMARK  Name = 95054
REMARK  5 active torsions:
REMARK  status: ('A' for Active; 'I' for Inactive)
REMARK    1  A    between atoms: C_7  and  C_16
REMARK    2  A    between atoms: C_16  and  N_17
REMARK    3  A    between atoms: N_17  and  C_19
REMARK    4  A    between atoms: C_22  and  C_26
REMARK    5  A    between atoms: C_26  and  O_27
REMARK                            x       y       z     vdW  Elec       q    Type
REMARK                         _______ _______ _______ _____ _____    ______ ____
ROOT
ATOM      1  O   UNL     1      37.697 -22.853 -16.095  0.00  0.00    -0.206 OA
ATOM      2  N   UNL     1      35.051 -23.213 -16.115  0.00  0.00    -0.391 NA
ATOM      3  N   UNL     1      35.987 -24.056 -12.687  0.00  0.00    -0.259 N 
ATOM      4  N   UNL     1      33.825 -24.056 -13.734  0.00  0.00    -0.246 NA
ATOM      5  N   UNL     1      37.952 -23.445 -13.888  0.00  0.00    -0.300 NA
ATOM      6  N   UNL     1      38.024 -24.076 -11.631  0.00  0.00    -0.320 N 
ATOM      7  C   UNL     1      33.724 -23.419 -16.033  0.00  0.00    +0.132 C 
ATOM      8  C   UNL     1      35.743 -23.439 -14.980  0.00  0.00    +0.255 C 
ATOM      9  C   UNL     1      35.159 -23.855 -13.796  0.00  0.00    +0.173 C 
ATOM     10  C   UNL     1      33.122 -23.832 -14.865  0.00  0.00    +0.183 C 
ATOM     11  C   UNL     1      37.207 -23.223 -15.032  0.00  0.00    +0.240 C 
ATOM     12  C   UNL     1      37.343 -23.838 -12.798  0.00  0.00    +0.249 C 
ATOM     13  H   UNL     1      35.603 -24.351 -11.830  0.00  0.00    +0.157 HD
ATOM     14  H   UNL     1      37.537 -24.370 -10.828  0.00  0.00    +0.146 HD
ATOM     15  H   UNL     1      39.000 -23.951 -11.596  0.00  0.00    +0.146 HD
ENDROOT
BRANCH   7  16
ATOM     16  C   UNL     1      32.913 -23.183 -17.259  0.00  0.00    +0.145 C 
BRANCH  16  17
ATOM     17  N   UNL     1      33.740 -23.229 -18.447  0.00  0.00    -0.327 N 
ATOM     18  H   UNL     1      34.091 -24.103 -18.735  0.00  0.00    +0.147 HD
BRANCH  17  19
ATOM     19  C   UNL     1      34.063 -22.114 -19.198  0.00  0.00    +0.045 C 
ATOM     20  C   UNL     1      33.058 -21.269 -19.710  0.00  0.00    +0.015 C 
ATOM     21  C   UNL     1      35.406 -21.792 -19.476  0.00  0.00    +0.015 C 
ATOM     22  C   UNL     1      34.722 -19.845 -20.732  0.00  0.00    +0.076 C 
ATOM     23  C   UNL     1      33.385 -20.145 -20.469  0.00  0.00    +0.008 C 
ATOM     24  C   UNL     1      35.732 -20.669 -20.235  0.00  0.00    +0.008 C 
BRANCH  22  26
ATOM     25  O   UNL     1      34.985 -18.595 -22.755  0.00  0.00    -0.245 OA
ATOM     26  C   UNL     1      35.061 -18.674 -21.525  0.00  0.00    +0.338 C 
BRANCH  26  27
ATOM     27  O   UNL     1      35.486 -17.632 -20.758  0.00  0.00    -0.477 OA
ATOM     28  H   UNL     1      35.667 -16.803 -21.154  0.00  0.00    +0.295 HD
ENDBRANCH  26  27
ENDBRANCH  22  26
ENDBRANCH  17  19
ENDBRANCH  16  17
ENDBRANCH   7  16
TORSDOF 5
ENDMDL
MODEL 7
REMARK VINA RESULT:     -10.3      1.954      2.805
REMARK  Name = 95054
REMARK  5 active torsions:
REMARK  status: ('A' for Active; 'I' for Inactive)
REMARK    1  A    between atoms: C_7  and  C_16
REMARK    2  A    between atoms: C_16  and  N_17
REMARK    3  A    between atoms: N_17  and  C_19
REMARK    4  A    between atoms: C_22  and  C_26
REMARK    5  A    between atoms: C_26  and  O_27
REMARK                            x       y       z     vdW  Elec       q    Type
REMARK                         _______ _______ _______ _____ _____    ______ ____
ROOT
ATOM      1  O   UNL     1      33.178 -15.256 -19.972  0.00  0.00    -0.206 OA
ATOM      2  N   UNL     1      34.210 -16.435 -22.135  0.00  0.00    -0.391 NA
ATOM      3  N   UNL     1      32.607 -13.447 -23.492  0.00  0.00    -0.259 N 
ATOM      4  N   UNL     1      33.824 -15.184 -24.619  0.00  0.00    -0.246 NA
ATOM      5  N   UNL     1      32.280 -13.485 -21.132  0.00  0.00    -0.300 NA
ATOM      6  N   UNL     1      31.435 -11.757 -22.474  0.00  0.00    -0.320 N 
ATOM      7  C   UNL     1      34.694 -16.957 -23.277  0.00  0.00    +0.132 C 
ATOM      8  C   UNL     1      33.532 -15.278 -22.270  0.00  0.00    +0.255 C 
ATOM      9  C   UNL     1      33.330 -14.644 -23.485  0.00  0.00    +0.173 C 
ATOM     10  C   UNL     1      34.506 -16.344 -24.495  0.00  0.00    +0.183 C 
ATOM     11  C   UNL     1      32.982 -14.673 -21.035  0.00  0.00    +0.240 C 
ATOM     12  C   UNL     1      32.122 -12.934 -22.309  0.00  0.00    +0.249 C 
ATOM     13  H   UNL     1      32.447 -12.972 -24.339  0.00  0.00    +0.157 HD
ATOM     14  H   UNL     1      31.334 -11.368 -23.372  0.00  0.00    +0.146 HD
ATOM     15  H   UNL     1      31.045 -11.302 -21.693  0.00  0.00    +0.146 HD
ENDROOT
BRANCH   7  16
ATOM     16  C   UNL     1      35.451 -18.235 -23.183  0.00  0.00    +0.145 C 
BRANCH  16  17
ATOM     17  N   UNL     1      35.812 -18.528 -21.811  0.00  0.00    -0.327 N 
ATOM     18  H   UNL     1      36.524 -17.991 -21.394  0.00  0.00    +0.147 HD
BRANCH  17  19
ATOM     19  C   UNL     1      35.213 -19.520 -21.057  0.00  0.00    +0.045 C 
ATOM     20  C   UNL     1      35.987 -20.442 -20.326  0.00  0.00    +0.015 C 
ATOM     21  C   UNL     1      33.810 -19.638 -21.000  0.00  0.00    +0.015 C 
ATOM     22  C   UNL     1      33.990 -21.543 -19.525  0.00  0.00    +0.076 C 
ATOM     23  C   UNL     1      35.381 -21.444 -19.567  0.00  0.00    +0.008 C 
ATOM     24  C   UNL     1      33.205 -20.640 -20.241  0.00  0.00    +0.008 C 
BRANCH  22  26
ATOM     25  O   UNL     1      32.470 -22.414 -17.895  0.00  0.00    -0.245 OA
ATOM     26  C   UNL     1      33.360 -22.588 -18.735  0.00  0.00    +0.338 C 
BRANCH  26  27
ATOM     27  O   UNL     1      33.858 -23.825 -19.016  0.00  0.00    -0.477 OA
ATOM     28  H   UNL     1      33.972 -24.450 -18.329  0.00  0.00    +0.295 HD
ENDBRANCH  26  27
ENDBRANCH  22  26
ENDBRANCH  17  19
ENDBRANCH  16  17
ENDBRANCH   7  16
TORSDOF 5
ENDMDL
MODEL 8
REMARK VINA RESULT:     -10.3      2.921      8.698
REMARK  Name = 95054
REMARK  5 active torsions:
REMARK  status: ('A' for Active; 'I' for Inactive)
REMARK    1  A    between atoms: C_7  and  C_16
REMARK    2  A    between atoms: C_16  and  N_17
REMARK    3  A    between atoms: N_17  and  C_19
REMARK    4  A    between atoms: C_22  and  C_26
REMARK    5  A    between atoms: C_26  and  O_27
REMARK                            x       y       z     vdW  Elec       q    Type
REMARK                         _______ _______ _______ _____ _____    ______ ____
ROOT
ATOM      1  O   UNL     1      36.687 -22.015 -18.314  0.00  0.00    -0.206 OA
ATOM      2  N   UNL     1      35.601 -20.420 -20.161  0.00  0.00    -0.391 NA
ATOM      3  N   UNL     1      32.708 -22.103 -18.699  0.00  0.00    -0.259 N 
ATOM      4  N   UNL     1      32.809 -20.462 -20.450  0.00  0.00    -0.246 NA
ATOM      5  N   UNL     1      34.679 -22.891 -17.616  0.00  0.00    -0.300 NA
ATOM      6  N   UNL     1      32.546 -23.673 -17.033  0.00  0.00    -0.320 N 
ATOM      7  C   UNL     1      34.969 -19.650 -21.065  0.00  0.00    +0.132 C 
ATOM      8  C   UNL     1      34.803 -21.206 -19.411  0.00  0.00    +0.255 C 
ATOM      9  C   UNL     1      33.425 -21.243 -19.537  0.00  0.00    +0.173 C 
ATOM     10  C   UNL     1      33.599 -19.670 -21.207  0.00  0.00    +0.183 C 
ATOM     11  C   UNL     1      35.464 -22.069 -18.405  0.00  0.00    +0.240 C 
ATOM     12  C   UNL     1      33.380 -22.881 -17.783  0.00  0.00    +0.249 C 
ATOM     13  H   UNL     1      31.727 -22.153 -18.764  0.00  0.00    +0.157 HD
ATOM     14  H   UNL     1      31.574 -23.643 -17.182  0.00  0.00    +0.146 HD
ATOM     15  H   UNL     1      32.920 -24.270 -16.345  0.00  0.00    +0.146 HD
ENDROOT
BRANCH   7  16
ATOM     16  C   UNL     1      35.804 -18.762 -21.919  0.00  0.00    +0.145 C 
BRANCH  16  17
ATOM     17  N   UNL     1      35.333 -17.394 -21.866  0.00  0.00    -0.327 N 
ATOM     18  H   UNL     1      35.389 -16.916 -21.007  0.00  0.00    +0.147 HD
BRANCH  17  19
ATOM     19  C   UNL     1      34.807 -16.723 -22.955  0.00  0.00    +0.045 C 
ATOM     20  C   UNL     1      34.152 -15.486 -22.796  0.00  0.00    +0.015 C 
ATOM     21  C   UNL     1      34.908 -17.258 -24.253  0.00  0.00    +0.015 C 
ATOM     22  C   UNL     1      33.731 -15.359 -25.173  0.00  0.00    +0.076 C 
ATOM     23  C   UNL     1      33.620 -14.810 -23.895  0.00  0.00    +0.008 C 
ATOM     24  C   UNL     1      34.375 -16.584 -25.351  0.00  0.00    +0.008 C 
BRANCH  22  26
ATOM     25  O   UNL     1      33.711 -14.551 -27.424  0.00  0.00    -0.245 OA
ATOM     26  C   UNL     1      33.174 -14.656 -26.317  0.00  0.00    +0.338 C 
BRANCH  26  27
ATOM     27  O   UNL     1      31.959 -14.102 -26.046  0.00  0.00    -0.477 OA
ATOM     28  H   UNL     1      31.175 -14.553 -26.289  0.00  0.00    +0.295 HD
ENDBRANCH  26  27
ENDBRANCH  22  26
ENDBRANCH  17  19
ENDBRANCH  16  17
ENDBRANCH   7  16
TORSDOF 5
ENDMDL
MODEL 9
REMARK VINA RESULT:     -10.2      3.338      8.607
REMARK  Name = 95054
REMARK  5 active torsions:
REMARK  status: ('A' for Active; 'I' for Inactive)
REMARK    1  A    between atoms: C_7  and  C_16
REMARK    2  A    between atoms: C_16  and  N_17
REMARK    3  A    between atoms: N_17  and  C_19
REMARK    4  A    between atoms: C_22  and  C_26
REMARK    5  A    between atoms: C_26  and  O_27
REMARK                            x       y       z     vdW  Elec       q    Type
REMARK                         _______ _______ _______ _____ _____    ______ ____
ROOT
ATOM      1  O   UNL     1      36.756 -21.794 -18.609  0.00  0.00    -0.206 OA
ATOM      2  N   UNL     1      35.380 -20.333 -20.371  0.00  0.00    -0.391 NA
ATOM      3  N   UNL     1      32.778 -22.197 -18.613  0.00  0.00    -0.259 N 
ATOM      4  N   UNL     1      32.585 -20.596 -20.393  0.00  0.00    -0.246 NA
ATOM      5  N   UNL     1      34.896 -22.804 -17.708  0.00  0.00    -0.300 NA
ATOM      6  N   UNL     1      32.896 -23.733 -16.912  0.00  0.00    -0.320 N 
ATOM      7  C   UNL     1      34.607 -19.637 -21.224  0.00  0.00    +0.132 C 
ATOM      8  C   UNL     1      34.720 -21.160 -19.535  0.00  0.00    +0.255 C 
ATOM      9  C   UNL     1      33.343 -21.305 -19.529  0.00  0.00    +0.173 C 
ATOM     10  C   UNL     1      33.236 -19.765 -21.235  0.00  0.00    +0.183 C 
ATOM     11  C   UNL     1      35.537 -21.944 -18.582  0.00  0.00    +0.240 C 
ATOM     12  C   UNL     1      33.592 -22.899 -17.751  0.00  0.00    +0.249 C 
ATOM     13  H   UNL     1      31.801 -22.323 -18.583  0.00  0.00    +0.157 HD
ATOM     14  H   UNL     1      31.915 -23.781 -16.969  0.00  0.00    +0.146 HD
ATOM     15  H   UNL     1      33.378 -24.282 -16.253  0.00  0.00    +0.146 HD
ENDROOT
BRANCH   7  16
ATOM     16  C   UNL     1      35.287 -18.708 -22.169  0.00  0.00    +0.145 C 
BRANCH  16  17
ATOM     17  N   UNL     1      35.553 -17.430 -21.542  0.00  0.00    -0.327 N 
ATOM     18  H   UNL     1      36.275 -17.381 -20.874  0.00  0.00    +0.147 HD
BRANCH  17  19
ATOM     19  C   UNL     1      34.848 -16.275 -21.830  0.00  0.00    +0.045 C 
ATOM     20  C   UNL     1      34.791 -15.769 -23.144  0.00  0.00    +0.015 C 
ATOM     21  C   UNL     1      34.168 -15.570 -20.818  0.00  0.00    +0.015 C 
ATOM     22  C   UNL     1      33.416 -13.921 -22.415  0.00  0.00    +0.076 C 
ATOM     23  C   UNL     1      34.081 -14.604 -23.433  0.00  0.00    +0.008 C 
ATOM     24  C   UNL     1      33.459 -14.404 -21.107  0.00  0.00    +0.008 C 
BRANCH  22  26
ATOM     25  O   UNL     1      33.064 -11.799 -23.463  0.00  0.00    -0.245 OA
ATOM     26  C   UNL     1      32.678 -12.705 -22.717  0.00  0.00    +0.338 C 
BRANCH  26  27
ATOM     27  O   UNL     1      31.475 -12.655 -22.080  0.00  0.00    -0.477 OA
ATOM     28  H   UNL     1      31.125 -13.425 -21.679  0.00  0.00    +0.295 HD
ENDBRANCH  26  27
ENDBRANCH  22  26
ENDBRANCH  17  19
ENDBRANCH  16  17
ENDBRANCH   7  16
TORSDOF 5
ENDMDL
