MODEL 1
REMARK VINA RESULT:      -6.1      0.000      0.000
REMARK  Name = 15606
REMARK  8 active torsions:
REMARK  status: ('A' for Active; 'I' for Inactive)
REMARK    1  A    between atoms: C_1  and  C_2
REMARK    2  A    between atoms: C_1  and  C_7
REMARK    3  A    between atoms: C_2  and  C_3
REMARK    4  A    between atoms: C_3  and  C_4
REMARK    5  A    between atoms: C_4  and  C_5
REMARK    6  A    between atoms: C_7  and  C_8
REMARK    7  A    between atoms: C_8  and  C_10
REMARK    8  A    between atoms: C_10  and  O_11
REMARK                            x       y       z     vdW  Elec       q    Type
REMARK                         _______ _______ _______ _____ _____    ______ ____
ROOT
ATOM      1  C   UNL     1      34.917 -19.254 -23.798  0.00  0.00    +0.001 C 
ENDROOT
BRANCH   1   2
ATOM      2  C   UNL     1      34.597 -18.597 -22.454  0.00  0.00    +0.000 C 
BRANCH   2   3
ATOM      3  C   UNL     1      34.587 -19.583 -21.282  0.00  0.00    +0.000 C 
BRANCH   3   4
ATOM      4  C   UNL     1      33.185 -19.868 -20.737  0.00  0.00    +0.000 C 
BRANCH   4   5
ATOM      5  C   UNL     1      33.210 -21.000 -19.709  0.00  0.00    +0.000 C 
ATOM      6  C   UNL     1      34.609 -21.571 -19.544  0.00  0.00    +0.000 C 
ENDBRANCH   4   5
ENDBRANCH   3   4
ENDBRANCH   2   3
ENDBRANCH   1   2
BRANCH   1   7
ATOM      7  C   UNL     1      34.305 -18.462 -24.959  0.00  0.00    +0.012 C 
BRANCH   7   8
ATOM      8  C   UNL     1      34.937 -17.081 -25.120  0.00  0.00    +0.110 C 
BRANCH   8  10
ATOM      9  O   UNL     1      33.504 -15.428 -24.101  0.00  0.00    -0.250 OA
ATOM     10  C   UNL     1      33.913 -15.973 -25.118  0.00  0.00    +0.317 C 
BRANCH  10  11
ATOM     11  O   UNL     1      33.529 -15.689 -26.396  0.00  0.00    -0.444 OA
ATOM     12  C   UNL     1      32.955 -14.393 -26.592  0.00  0.00    +0.256 C 
ENDBRANCH  10  11
ENDBRANCH   8  10
ENDBRANCH   7   8
ENDBRANCH   1   7
TORSDOF 8
ENDMDL
MODEL 2
REMARK VINA RESULT:      -6.0      0.866      1.517
REMARK  Name = 15606
REMARK  8 active torsions:
REMARK  status: ('A' for Active; 'I' for Inactive)
REMARK    1  A    between atoms: C_1  and  C_2
REMARK    2  A    between atoms: C_1  and  C_7
REMARK    3  A    between atoms: C_2  and  C_3
REMARK    4  A    between atoms: C_3  and  C_4
REMARK    5  A    between atoms: C_4  and  C_5
REMARK    6  A    between atoms: C_7  and  C_8
REMARK    7  A    between atoms: C_8  and  C_10
REMARK    8  A    between atoms: C_10  and  O_11
REMARK                            x       y       z     vdW  Elec       q    Type
REMARK                         _______ _______ _______ _____ _____    ______ ____
ROOT
ATOM      1  C   UNL     1      34.936 -19.240 -23.934  0.00  0.00    +0.001 C 
ENDROOT
BRANCH   1   2
ATOM      2  C   UNL     1      35.523 -18.483 -22.741  0.00  0.00    +0.000 C 
BRANCH   2   3
ATOM      3  C   UNL     1      35.150 -19.097 -21.388  0.00  0.00    +0.000 C 
BRANCH   3   4
ATOM      4  C   UNL     1      33.652 -19.367 -21.233  0.00  0.00    +0.000 C 
BRANCH   4   5
ATOM      5  C   UNL     1      33.393 -20.495 -20.234  0.00  0.00    +0.000 C 
ATOM      6  C   UNL     1      34.690 -21.152 -19.788  0.00  0.00    +0.000 C 
ENDBRANCH   4   5
ENDBRANCH   3   4
ENDBRANCH   2   3
ENDBRANCH   1   2
BRANCH   1   7
ATOM      7  C   UNL     1      34.386 -18.272 -24.986  0.00  0.00    +0.012 C 
BRANCH   7   8
ATOM      8  C   UNL     1      34.818 -16.829 -24.734  0.00  0.00    +0.110 C 
BRANCH   8  10
ATOM      9  O   UNL     1      33.343 -15.918 -26.413  0.00  0.00    -0.250 OA
ATOM     10  C   UNL     1      33.842 -15.826 -25.299  0.00  0.00    +0.317 C 
BRANCH  10  11
ATOM     11  O   UNL     1      33.616 -14.832 -24.393  0.00  0.00    -0.444 OA
ATOM     12  C   UNL     1      34.406 -14.895 -23.201  0.00  0.00    +0.256 C 
ENDBRANCH  10  11
ENDBRANCH   8  10
ENDBRANCH   7   8
ENDBRANCH   1   7
TORSDOF 8
ENDMDL
MODEL 3
REMARK VINA RESULT:      -6.0      4.234      7.465
REMARK  Name = 15606
REMARK  8 active torsions:
REMARK  status: ('A' for Active; 'I' for Inactive)
REMARK    1  A    between atoms: C_1  and  C_2
REMARK    2  A    between atoms: C_1  and  C_7
REMARK    3  A    between atoms: C_2  and  C_3
REMARK    4  A    between atoms: C_3  and  C_4
REMARK    5  A    between atoms: C_4  and  C_5
REMARK    6  A    between atoms: C_7  and  C_8
REMARK    7  A    between atoms: C_8  and  C_10
REMARK    8  A    between atoms: C_10  and  O_11
REMARK                            x       y       z     vdW  Elec       q    Type
REMARK                         _______ _______ _______ _____ _____    ______ ____
ROOT
ATOM      1  C   UNL     1      33.280 -19.656 -21.034  0.00  0.00    +0.001 C 
ENDROOT
BRANCH   1   2
ATOM      2  C   UNL     1      34.718 -19.162 -21.202  0.00  0.00    +0.000 C 
BRANCH   2   3
ATOM      3  C   UNL     1      34.946 -18.380 -22.499  0.00  0.00    +0.000 C 
BRANCH   3   4
ATOM      4  C   UNL     1      34.790 -19.233 -23.760  0.00  0.00    +0.000 C 
BRANCH   4   5
ATOM      5  C   UNL     1      34.477 -18.366 -24.980  0.00  0.00    +0.000 C 
ATOM      6  C   UNL     1      34.645 -16.887 -24.669  0.00  0.00    +0.000 C 
ENDBRANCH   4   5
ENDBRANCH   3   4
ENDBRANCH   2   3
ENDBRANCH   1   2
BRANCH   1   7
ATOM      7  C   UNL     1      33.181 -20.699 -19.916  0.00  0.00    +0.012 C 
BRANCH   7   8
ATOM      8  C   UNL     1      34.526 -21.352 -19.607  0.00  0.00    +0.110 C 
BRANCH   8  10
ATOM      9  O   UNL     1      33.918 -23.688 -19.566  0.00  0.00    -0.250 OA
ATOM     10  C   UNL     1      34.375 -22.716 -18.978  0.00  0.00    +0.317 C 
BRANCH  10  11
ATOM     11  O   UNL     1      34.815 -22.687 -17.688  0.00  0.00    -0.444 OA
ATOM     12  C   UNL     1      33.938 -23.283 -16.726  0.00  0.00    +0.256 C 
ENDBRANCH  10  11
ENDBRANCH   8  10
ENDBRANCH   7   8
ENDBRANCH   1   7
TORSDOF 8
ENDMDL
MODEL 4
REMARK VINA RESULT:      -5.9      1.473      2.147
REMARK  Name = 15606
REMARK  8 active torsions:
REMARK  status: ('A' for Active; 'I' for Inactive)
REMARK    1  A    between atoms: C_1  and  C_2
REMARK    2  A    between atoms: C_1  and  C_7
REMARK    3  A    between atoms: C_2  and  C_3
REMARK    4  A    between atoms: C_3  and  C_4
REMARK    5  A    between atoms: C_4  and  C_5
REMARK    6  A    between atoms: C_7  and  C_8
REMARK    7  A    between atoms: C_8  and  C_10
REMARK    8  A    between atoms: C_10  and  O_11
REMARK                            x       y       z     vdW  Elec       q    Type
REMARK                         _______ _______ _______ _____ _____    ______ ____
ROOT
ATOM      1  C   UNL     1      34.178 -15.984 -21.786  0.00  0.00    +0.001 C 
ENDROOT
BRANCH   1   2
ATOM      2  C   UNL     1      34.984 -17.060 -21.055  0.00  0.00    +0.000 C 
BRANCH   2   3
ATOM      3  C   UNL     1      35.487 -18.175 -21.977  0.00  0.00    +0.000 C 
BRANCH   3   4
ATOM      4  C   UNL     1      34.452 -19.275 -22.223  0.00  0.00    +0.000 C 
BRANCH   4   5
ATOM      5  C   UNL     1      33.715 -19.641 -20.933  0.00  0.00    +0.000 C 
ATOM      6  C   UNL     1      34.462 -20.709 -20.150  0.00  0.00    +0.000 C 
ENDBRANCH   4   5
ENDBRANCH   3   4
ENDBRANCH   2   3
ENDBRANCH   1   2
BRANCH   1   7
ATOM      7  C   UNL     1      34.802 -15.655 -23.147  0.00  0.00    +0.012 C 
BRANCH   7   8
ATOM      8  C   UNL     1      33.752 -15.430 -24.231  0.00  0.00    +0.110 C 
BRANCH   8  10
ATOM      9  O   UNL     1      34.734 -17.232 -25.501  0.00  0.00    -0.250 OA
ATOM     10  C   UNL     1      34.028 -16.232 -25.479  0.00  0.00    +0.317 C 
BRANCH  10  11
ATOM     11  O   UNL     1      33.385 -15.675 -26.545  0.00  0.00    -0.444 OA
ATOM     12  C   UNL     1      32.824 -14.379 -26.315  0.00  0.00    +0.256 C 
ENDBRANCH  10  11
ENDBRANCH   8  10
ENDBRANCH   7   8
ENDBRANCH   1   7
TORSDOF 8
ENDMDL
MODEL 5
REMARK VINA RESULT:      -5.9      2.013      3.103
REMARK  Name = 15606
REMARK  8 active torsions:
REMARK  status: ('A' for Active; 'I' for Inactive)
REMARK    1  A    between atoms: C_1  and  C_2
REMARK    2  A    between atoms: C_1  and  C_7
REMARK    3  A    between atoms: C_2  and  C_3
REMARK    4  A    between atoms: C_3  and  C_4
REMARK    5  A    between atoms: C_4  and  C_5
REMARK    6  A    between atoms: C_7  and  C_8
REMARK    7  A    between atoms: C_8  and  C_10
REMARK    8  A    between atoms: C_10  and  O_11
REMARK                            x       y       z     vdW  Elec       q    Type
REMARK                         _______ _______ _______ _____ _____    ______ ____
ROOT
ATOM      1  C   UNL     1      34.620 -19.223 -22.614  0.00  0.00    +0.001 C 
ENDROOT
BRANCH   1   2
ATOM      2  C   UNL     1      34.238 -18.389 -21.389  0.00  0.00    +0.000 C 
BRANCH   2   3
ATOM      3  C   UNL     1      35.242 -17.275 -21.075  0.00  0.00    +0.000 C 
BRANCH   3   4
ATOM      4  C   UNL     1      34.581 -15.956 -20.669  0.00  0.00    +0.000 C 
BRANCH   4   5
ATOM      5  C   UNL     1      33.081 -15.974 -20.963  0.00  0.00    +0.000 C 
ATOM      6  C   UNL     1      32.588 -14.613 -21.426  0.00  0.00    +0.000 C 
ENDBRANCH   4   5
ENDBRANCH   3   4
ENDBRANCH   2   3
ENDBRANCH   1   2
BRANCH   1   7
ATOM      7  C   UNL     1      35.386 -18.380 -23.639  0.00  0.00    +0.012 C 
BRANCH   7   8
ATOM      8  C   UNL     1      34.529 -18.007 -24.847  0.00  0.00    +0.110 C 
BRANCH   8  10
ATOM      9  O   UNL     1      34.636 -15.711 -24.109  0.00  0.00    -0.250 OA
ATOM     10  C   UNL     1      34.339 -16.516 -24.983  0.00  0.00    +0.317 C 
BRANCH  10  11
ATOM     11  O   UNL     1      33.797 -16.223 -26.199  0.00  0.00    -0.444 OA
ATOM     12  C   UNL     1      33.016 -15.025 -26.252  0.00  0.00    +0.256 C 
ENDBRANCH  10  11
ENDBRANCH   8  10
ENDBRANCH   7   8
ENDBRANCH   1   7
TORSDOF 8
ENDMDL
MODEL 6
REMARK VINA RESULT:      -5.8      1.611      2.745
REMARK  Name = 15606
REMARK  8 active torsions:
REMARK  status: ('A' for Active; 'I' for Inactive)
REMARK    1  A    between atoms: C_1  and  C_2
REMARK    2  A    between atoms: C_1  and  C_7
REMARK    3  A    between atoms: C_2  and  C_3
REMARK    4  A    between atoms: C_3  and  C_4
REMARK    5  A    between atoms: C_4  and  C_5
REMARK    6  A    between atoms: C_7  and  C_8
REMARK    7  A    between atoms: C_8  and  C_10
REMARK    8  A    between atoms: C_10  and  O_11
REMARK                            x       y       z     vdW  Elec       q    Type
REMARK                         _______ _______ _______ _____ _____    ______ ____
ROOT
ATOM      1  C   UNL     1      33.974 -18.761 -21.113  0.00  0.00    +0.001 C 
ENDROOT
BRANCH   1   2
ATOM      2  C   UNL     1      33.173 -20.062 -21.036  0.00  0.00    +0.000 C 
BRANCH   2   3
ATOM      3  C   UNL     1      33.254 -20.747 -19.669  0.00  0.00    +0.000 C 
BRANCH   3   4
ATOM      4  C   UNL     1      34.125 -22.006 -19.668  0.00  0.00    +0.000 C 
BRANCH   4   5
ATOM      5  C   UNL     1      35.400 -21.797 -18.851  0.00  0.00    +0.000 C 
ATOM      6  C   UNL     1      36.518 -21.218 -19.704  0.00  0.00    +0.000 C 
ENDBRANCH   4   5
ENDBRANCH   3   4
ENDBRANCH   2   3
ENDBRANCH   1   2
BRANCH   1   7
ATOM      7  C   UNL     1      35.144 -18.890 -22.095  0.00  0.00    +0.012 C 
BRANCH   7   8
ATOM      8  C   UNL     1      34.678 -19.050 -23.540  0.00  0.00    +0.110 C 
BRANCH   8  10
ATOM      9  O   UNL     1      34.592 -17.699 -25.539  0.00  0.00    -0.250 OA
ATOM     10  C   UNL     1      34.829 -17.779 -24.340  0.00  0.00    +0.317 C 
BRANCH  10  11
ATOM     11  O   UNL     1      35.262 -16.768 -23.534  0.00  0.00    -0.444 OA
ATOM     12  C   UNL     1      34.513 -15.552 -23.617  0.00  0.00    +0.256 C 
ENDBRANCH  10  11
ENDBRANCH   8  10
ENDBRANCH   7   8
ENDBRANCH   1   7
TORSDOF 8
ENDMDL
MODEL 7
REMARK VINA RESULT:      -5.7      4.322      6.935
REMARK  Name = 15606
REMARK  8 active torsions:
REMARK  status: ('A' for Active; 'I' for Inactive)
REMARK    1  A    between atoms: C_1  and  C_2
REMARK    2  A    between atoms: C_1  and  C_7
REMARK    3  A    between atoms: C_2  and  C_3
REMARK    4  A    between atoms: C_3  and  C_4
REMARK    5  A    between atoms: C_4  and  C_5
REMARK    6  A    between atoms: C_7  and  C_8
REMARK    7  A    between atoms: C_8  and  C_10
REMARK    8  A    between atoms: C_10  and  O_11
REMARK                            x       y       z     vdW  Elec       q    Type
REMARK                         _______ _______ _______ _____ _____    ______ ____
ROOT
ATOM      1  C   UNL     1      34.415 -19.372 -22.046  0.00  0.00    +0.001 C 
ENDROOT
BRANCH   1   2
ATOM      2  C   UNL     1      35.455 -18.297 -22.369  0.00  0.00    +0.000 C 
BRANCH   2   3
ATOM      3  C   UNL     1      34.870 -16.883 -22.428  0.00  0.00    +0.000 C 
BRANCH   3   4
ATOM      4  C   UNL     1      34.633 -16.263 -21.049  0.00  0.00    +0.000 C 
BRANCH   4   5
ATOM      5  C   UNL     1      33.153 -15.950 -20.830  0.00  0.00    +0.000 C 
ATOM      6  C   UNL     1      32.664 -14.875 -21.788  0.00  0.00    +0.000 C 
ENDBRANCH   4   5
ENDBRANCH   3   4
ENDBRANCH   2   3
ENDBRANCH   1   2
BRANCH   1   7
ATOM      7  C   UNL     1      34.641 -19.959 -20.649  0.00  0.00    +0.012 C 
BRANCH   7   8
ATOM      8  C   UNL     1      33.409 -20.685 -20.114  0.00  0.00    +0.110 C 
BRANCH   8  10
ATOM      9  O   UNL     1      34.842 -22.525 -19.491  0.00  0.00    -0.250 OA
ATOM     10  C   UNL     1      33.761 -21.961 -19.388  0.00  0.00    +0.317 C 
BRANCH  10  11
ATOM     11  O   UNL     1      32.707 -22.369 -18.625  0.00  0.00    -0.444 OA
ATOM     12  C   UNL     1      33.051 -23.095 -17.440  0.00  0.00    +0.256 C 
ENDBRANCH  10  11
ENDBRANCH   8  10
ENDBRANCH   7   8
ENDBRANCH   1   7
TORSDOF 8
ENDMDL
MODEL 8
REMARK VINA RESULT:      -5.7      4.132      7.131
REMARK  Name = 15606
REMARK  8 active torsions:
REMARK  status: ('A' for Active; 'I' for Inactive)
REMARK    1  A    between atoms: C_1  and  C_2
REMARK    2  A    between atoms: C_1  and  C_7
REMARK    3  A    between atoms: C_2  and  C_3
REMARK    4  A    between atoms: C_3  and  C_4
REMARK    5  A    between atoms: C_4  and  C_5
REMARK    6  A    between atoms: C_7  and  C_8
REMARK    7  A    between atoms: C_8  and  C_10
REMARK    8  A    between atoms: C_10  and  O_11
REMARK                            x       y       z     vdW  Elec       q    Type
REMARK                         _______ _______ _______ _____ _____    ______ ____
ROOT
ATOM      1  C   UNL     1      34.083 -18.890 -21.223  0.00  0.00    +0.001 C 
ENDROOT
BRANCH   1   2
ATOM      2  C   UNL     1      34.846 -19.278 -22.492  0.00  0.00    +0.000 C 
BRANCH   2   3
ATOM      3  C   UNL     1      35.281 -18.074 -23.332  0.00  0.00    +0.000 C 
BRANCH   3   4
ATOM      4  C   UNL     1      35.045 -16.729 -22.639  0.00  0.00    +0.000 C 
BRANCH   4   5
ATOM      5  C   UNL     1      34.538 -15.679 -23.628  0.00  0.00    +0.000 C 
ATOM      6  C   UNL     1      34.325 -14.334 -22.951  0.00  0.00    +0.000 C 
ENDBRANCH   4   5
ENDBRANCH   3   4
ENDBRANCH   2   3
ENDBRANCH   1   2
BRANCH   1   7
ATOM      7  C   UNL     1      33.528 -20.129 -20.512  0.00  0.00    +0.012 C 
BRANCH   7   8
ATOM      8  C   UNL     1      34.629 -20.997 -19.908  0.00  0.00    +0.110 C 
BRANCH   8  10
ATOM      9  O   UNL     1      32.915 -22.432 -18.998  0.00  0.00    -0.250 OA
ATOM     10  C   UNL     1      34.085 -22.072 -19.000  0.00  0.00    +0.317 C 
BRANCH  10  11
ATOM     11  O   UNL     1      35.080 -22.560 -18.204  0.00  0.00    -0.444 OA
ATOM     12  C   UNL     1      36.305 -21.821 -18.230  0.00  0.00    +0.256 C 
ENDBRANCH  10  11
ENDBRANCH   8  10
ENDBRANCH   7   8
ENDBRANCH   1   7
TORSDOF 8
ENDMDL
MODEL 9
REMARK VINA RESULT:      -5.7      2.957      5.224
REMARK  Name = 15606
REMARK  8 active torsions:
REMARK  status: ('A' for Active; 'I' for Inactive)
REMARK    1  A    between atoms: C_1  and  C_2
REMARK    2  A    between atoms: C_1  and  C_7
REMARK    3  A    between atoms: C_2  and  C_3
REMARK    4  A    between atoms: C_3  and  C_4
REMARK    5  A    between atoms: C_4  and  C_5
REMARK    6  A    between atoms: C_7  and  C_8
REMARK    7  A    between atoms: C_8  and  C_10
REMARK    8  A    between atoms: C_10  and  O_11
REMARK                            x       y       z     vdW  Elec       q    Type
REMARK                         _______ _______ _______ _____ _____    ______ ____
ROOT
ATOM      1  C   UNL     1      34.580 -17.716 -24.548  0.00  0.00    +0.001 C 
ENDROOT
BRANCH   1   2
ATOM      2  C   UNL     1      35.099 -16.417 -23.928  0.00  0.00    +0.000 C 
BRANCH   2   3
ATOM      3  C   UNL     1      33.990 -15.410 -23.609  0.00  0.00    +0.000 C 
BRANCH   3   4
ATOM      4  C   UNL     1      34.317 -14.499 -22.423  0.00  0.00    +0.000 C 
BRANCH   4   5
ATOM      5  C   UNL     1      34.149 -15.238 -21.095  0.00  0.00    +0.000 C 
ATOM      6  C   UNL     1      32.688 -15.550 -20.812  0.00  0.00    +0.000 C 
ENDBRANCH   4   5
ENDBRANCH   3   4
ENDBRANCH   2   3
ENDBRANCH   1   2
BRANCH   1   7
ATOM      7  C   UNL     1      34.881 -18.918 -23.646  0.00  0.00    +0.012 C 
BRANCH   7   8
ATOM      8  C   UNL     1      35.637 -18.522 -22.380  0.00  0.00    +0.110 C 
BRANCH   8  10
ATOM      9  O   UNL     1      35.711 -19.744 -20.300  0.00  0.00    -0.250 OA
ATOM     10  C   UNL     1      35.049 -19.145 -21.137  0.00  0.00    +0.317 C 
BRANCH  10  11
ATOM     11  O   UNL     1      33.702 -18.939 -21.104  0.00  0.00    -0.444 OA
ATOM     12  C   UNL     1      32.923 -20.038 -20.622  0.00  0.00    +0.256 C 
ENDBRANCH  10  11
ENDBRANCH   8  10
ENDBRANCH   7   8
ENDBRANCH   1   7
TORSDOF 8
ENDMDL
