MODEL 1
REMARK VINA RESULT:     -10.0      0.000      0.000
REMARK  Name = 2165
REMARK  7 active torsions:
REMARK  status: ('A' for Active; 'I' for Inactive)
REMARK    1  A    between atoms: C_1  and  C_22
REMARK    2  A    between atoms: C_3  and  N_9
REMARK    3  A    between atoms: C_4  and  O_7
REMARK    4  A    between atoms: N_9  and  C_13
REMARK    5  A    between atoms: C_22  and  N_23
REMARK    6  A    between atoms: N_23  and  C_25
REMARK    7  A    between atoms: N_23  and  C_27
REMARK                            x       y       z     vdW  Elec       q    Type
REMARK                         _______ _______ _______ _____ _____    ______ ____
ROOT
ATOM      1  C   UNL     1      34.773 -21.405 -19.440  0.00  0.00    -0.008 C 
ATOM      2  C   UNL     1      35.406 -20.476 -20.266  0.00  0.00    +0.011 C 
ATOM      3  C   UNL     1      34.651 -19.548 -20.988  0.00  0.00    +0.048 C 
ATOM      4  C   UNL     1      33.382 -21.409 -19.333  0.00  0.00    +0.128 C 
ATOM      5  C   UNL     1      33.258 -19.555 -20.877  0.00  0.00    +0.018 C 
ATOM      6  C   UNL     1      32.624 -20.483 -20.051  0.00  0.00    +0.037 C 
ENDROOT
BRANCH   4   7
ATOM      7  O   UNL     1      32.747 -22.312 -18.533  0.00  0.00    -0.506 OA
ATOM      8  H   UNL     1      32.237 -22.016 -17.806  0.00  0.00    +0.292 HD
ENDBRANCH   4   7
BRANCH   3   9
ATOM      9  N   UNL     1      35.289 -18.609 -21.816  0.00  0.00    -0.313 N 
ATOM     10  H   UNL     1      36.167 -18.317 -21.480  0.00  0.00    +0.152 HD
BRANCH   9  13
ATOM     11 CL   UNL     1      33.488 -12.281 -23.457  0.00  0.00    -0.087 Cl
ATOM     12  N   UNL     1      34.188 -16.881 -25.480  0.00  0.00    -0.248 NA
ATOM     13  C   UNL     1      34.915 -18.001 -23.038  0.00  0.00    +0.047 C 
ATOM     14  C   UNL     1      34.581 -16.642 -23.114  0.00  0.00    +0.010 C 
ATOM     15  C   UNL     1      34.218 -16.117 -24.371  0.00  0.00    +0.062 C 
ATOM     16  C   UNL     1      34.886 -18.792 -24.178  0.00  0.00    +0.035 C 
ATOM     17  C   UNL     1      34.602 -15.815 -21.978  0.00  0.00    +0.055 C 
ATOM     18  C   UNL     1      33.886 -14.767 -24.446  0.00  0.00    +0.083 C 
ATOM     19  C   UNL     1      34.517 -18.188 -25.364  0.00  0.00    +0.100 C 
ATOM     20  C   UNL     1      34.265 -14.469 -22.081  0.00  0.00    -0.014 C 
ATOM     21  C   UNL     1      33.906 -13.944 -23.316  0.00  0.00    +0.037 C 
ENDBRANCH   9  13
ENDBRANCH   3   9
BRANCH   1  22
ATOM     22  C   UNL     1      35.599 -22.389 -18.679  0.00  0.00    -0.047 C 
BRANCH  22  23
ATOM     23  N   UNL     1      35.643 -22.088 -17.248  0.00  0.00    +0.390 N 
ATOM     24  H   UNL     1      34.944 -21.374 -17.046  0.00  0.00    -0.079 HD
BRANCH  23  25
ATOM     25  C   UNL     1      36.957 -21.570 -16.875  0.00  0.00    -0.077 C 
ATOM     26  C   UNL     1      37.770 -22.617 -16.131  0.00  0.00    -0.025 C 
ENDBRANCH  23  25
BRANCH  23  27
ATOM     27  C   UNL     1      35.323 -23.281 -16.466  0.00  0.00    -0.077 C 
ATOM     28  C   UNL     1      34.158 -23.026 -15.525  0.00  0.00    -0.025 C 
ENDBRANCH  23  27
ENDBRANCH  22  23
ENDBRANCH   1  22
TORSDOF 7
ENDMDL
MODEL 2
REMARK VINA RESULT:      -9.8      4.647      7.469
REMARK  Name = 2165
REMARK  7 active torsions:
REMARK  status: ('A' for Active; 'I' for Inactive)
REMARK    1  A    between atoms: C_1  and  C_22
REMARK    2  A    between atoms: C_3  and  N_9
REMARK    3  A    between atoms: C_4  and  O_7
REMARK    4  A    between atoms: N_9  and  C_13
REMARK    5  A    between atoms: C_22  and  N_23
REMARK    6  A    between atoms: N_23  and  C_25
REMARK    7  A    between atoms: N_23  and  C_27
REMARK                            x       y       z     vdW  Elec       q    Type
REMARK                         _______ _______ _______ _____ _____    ______ ____
ROOT
ATOM      1  C   UNL     1      34.179 -15.282 -21.897  0.00  0.00    -0.008 C 
ATOM      2  C   UNL     1      33.209 -14.404 -21.415  0.00  0.00    +0.011 C 
ATOM      3  C   UNL     1      32.611 -13.476 -22.274  0.00  0.00    +0.048 C 
ATOM      4  C   UNL     1      34.556 -15.237 -23.239  0.00  0.00    +0.128 C 
ATOM      5  C   UNL     1      32.992 -13.435 -23.617  0.00  0.00    +0.018 C 
ATOM      6  C   UNL     1      33.962 -14.313 -24.100  0.00  0.00    +0.037 C 
ENDROOT
BRANCH   4   7
ATOM      7  O   UNL     1      35.505 -16.085 -23.725  0.00  0.00    -0.506 OA
ATOM      8  H   UNL     1      35.676 -16.897 -23.290  0.00  0.00    +0.292 HD
ENDBRANCH   4   7
BRANCH   3   9
ATOM      9  N   UNL     1      31.630 -12.595 -21.790  0.00  0.00    -0.313 N 
ATOM     10  H   UNL     1      30.712 -12.851 -22.035  0.00  0.00    +0.152 HD
BRANCH   9  13
ATOM     11 CL   UNL     1      32.443  -6.068 -23.441  0.00  0.00    -0.087 Cl
ATOM     12  N   UNL     1      31.845  -9.126 -19.436  0.00  0.00    -0.248 NA
ATOM     13  C   UNL     1      31.706 -11.410 -21.020  0.00  0.00    +0.047 C 
ATOM     14  C   UNL     1      31.880 -10.153 -21.616  0.00  0.00    +0.010 C 
ATOM     15  C   UNL     1      31.946  -9.023 -20.775  0.00  0.00    +0.062 C 
ATOM     16  C   UNL     1      31.601 -11.519 -19.641  0.00  0.00    +0.035 C 
ATOM     17  C   UNL     1      31.988 -10.009 -23.009  0.00  0.00    +0.055 C 
ATOM     18  C   UNL     1      32.120  -7.776 -21.368  0.00  0.00    +0.083 C 
ATOM     19  C   UNL     1      31.678 -10.356 -18.901  0.00  0.00    +0.100 C 
ATOM     20  C   UNL     1      32.162  -8.749 -23.575  0.00  0.00    -0.014 C 
ATOM     21  C   UNL     1      32.229  -7.631 -22.754  0.00  0.00    +0.037 C 
ENDBRANCH   9  13
ENDBRANCH   3   9
BRANCH   1  22
ATOM     22  C   UNL     1      34.805 -16.263 -20.961  0.00  0.00    -0.047 C 
BRANCH  22  23
ATOM     23  N   UNL     1      34.691 -17.640 -21.443  0.00  0.00    +0.390 N 
ATOM     24  H   UNL     1      34.722 -17.630 -22.462  0.00  0.00    -0.079 HD
BRANCH  23  25
ATOM     25  C   UNL     1      33.418 -18.224 -21.024  0.00  0.00    -0.077 C 
ATOM     26  C   UNL     1      33.499 -19.741 -20.976  0.00  0.00    -0.025 C 
ENDBRANCH  23  25
BRANCH  23  27
ATOM     27  C   UNL     1      35.809 -18.445 -20.954  0.00  0.00    -0.077 C 
ATOM     28  C   UNL     1      36.886 -18.593 -22.015  0.00  0.00    -0.025 C 
ENDBRANCH  23  27
ENDBRANCH  22  23
ENDBRANCH   1  22
TORSDOF 7
ENDMDL
MODEL 3
REMARK VINA RESULT:      -9.7      4.269      7.333
REMARK  Name = 2165
REMARK  7 active torsions:
REMARK  status: ('A' for Active; 'I' for Inactive)
REMARK    1  A    between atoms: C_1  and  C_22
REMARK    2  A    between atoms: C_3  and  N_9
REMARK    3  A    between atoms: C_4  and  O_7
REMARK    4  A    between atoms: N_9  and  C_13
REMARK    5  A    between atoms: C_22  and  N_23
REMARK    6  A    between atoms: N_23  and  C_25
REMARK    7  A    between atoms: N_23  and  C_27
REMARK                            x       y       z     vdW  Elec       q    Type
REMARK                         _______ _______ _______ _____ _____    ______ ____
ROOT
ATOM      1  C   UNL     1      34.447 -15.767 -24.066  0.00  0.00    -0.008 C 
ATOM      2  C   UNL     1      34.120 -14.497 -23.592  0.00  0.00    +0.011 C 
ATOM      3  C   UNL     1      33.325 -13.642 -24.360  0.00  0.00    +0.048 C 
ATOM      4  C   UNL     1      33.979 -16.188 -25.311  0.00  0.00    +0.128 C 
ATOM      5  C   UNL     1      32.859 -14.067 -25.606  0.00  0.00    +0.018 C 
ATOM      6  C   UNL     1      33.184 -15.338 -26.082  0.00  0.00    +0.037 C 
ENDROOT
BRANCH   4   7
ATOM      7  O   UNL     1      34.290 -17.425 -25.791  0.00  0.00    -0.506 OA
ATOM      8  H   UNL     1      33.609 -18.006 -26.066  0.00  0.00    +0.292 HD
ENDBRANCH   4   7
BRANCH   3   9
ATOM      9  N   UNL     1      32.993 -12.363 -23.880  0.00  0.00    -0.313 N 
ATOM     10  H   UNL     1      32.171 -12.345 -23.339  0.00  0.00    +0.152 HD
BRANCH   9  13
ATOM     11 CL   UNL     1      32.006  -6.379 -20.848  0.00  0.00    -0.087 Cl
ATOM     12  N   UNL     1      34.873  -8.642 -24.369  0.00  0.00    -0.248 NA
ATOM     13  C   UNL     1      33.610 -11.098 -24.025  0.00  0.00    +0.047 C 
ATOM     14  C   UNL     1      33.214  -9.993 -23.260  0.00  0.00    +0.010 C 
ATOM     15  C   UNL     1      33.881  -8.768 -23.468  0.00  0.00    +0.062 C 
ATOM     16  C   UNL     1      34.633 -10.973 -24.954  0.00  0.00    +0.035 C 
ATOM     17  C   UNL     1      32.182 -10.087 -22.310  0.00  0.00    +0.055 C 
ATOM     18  C   UNL     1      33.486  -7.670 -22.709  0.00  0.00    +0.083 C 
ATOM     19  C   UNL     1      35.226  -9.733 -25.087  0.00  0.00    +0.100 C 
ATOM     20  C   UNL     1      31.808  -8.973 -21.565  0.00  0.00    -0.014 C 
ATOM     21  C   UNL     1      32.460  -7.763 -21.764  0.00  0.00    +0.037 C 
ENDBRANCH   9  13
ENDBRANCH   3   9
BRANCH   1  22
ATOM     22  C   UNL     1      35.298 -16.663 -23.229  0.00  0.00    -0.047 C 
BRANCH  22  23
ATOM     23  N   UNL     1      34.529 -17.349 -22.190  0.00  0.00    +0.390 N 
ATOM     24  H   UNL     1      33.561 -17.035 -22.244  0.00  0.00    -0.079 HD
BRANCH  23  25
ATOM     25  C   UNL     1      35.051 -17.017 -20.866  0.00  0.00    -0.077 C 
ATOM     26  C   UNL     1      34.494 -15.691 -20.372  0.00  0.00    -0.025 C 
ENDBRANCH  23  25
BRANCH  23  27
ATOM     27  C   UNL     1      34.559 -18.795 -22.404  0.00  0.00    -0.077 C 
ATOM     28  C   UNL     1      34.492 -19.548 -21.087  0.00  0.00    -0.025 C 
ENDBRANCH  23  27
ENDBRANCH  22  23
ENDBRANCH   1  22
TORSDOF 7
ENDMDL
MODEL 4
REMARK VINA RESULT:      -9.7      1.396      2.236
REMARK  Name = 2165
REMARK  7 active torsions:
REMARK  status: ('A' for Active; 'I' for Inactive)
REMARK    1  A    between atoms: C_1  and  C_22
REMARK    2  A    between atoms: C_3  and  N_9
REMARK    3  A    between atoms: C_4  and  O_7
REMARK    4  A    between atoms: N_9  and  C_13
REMARK    5  A    between atoms: C_22  and  N_23
REMARK    6  A    between atoms: N_23  and  C_25
REMARK    7  A    between atoms: N_23  and  C_27
REMARK                            x       y       z     vdW  Elec       q    Type
REMARK                         _______ _______ _______ _____ _____    ______ ____
ROOT
ATOM      1  C   UNL     1      34.938 -21.272 -19.558  0.00  0.00    -0.008 C 
ATOM      2  C   UNL     1      35.491 -20.188 -20.241  0.00  0.00    +0.011 C 
ATOM      3  C   UNL     1      34.668 -19.314 -20.956  0.00  0.00    +0.048 C 
ATOM      4  C   UNL     1      33.560 -21.486 -19.588  0.00  0.00    +0.128 C 
ATOM      5  C   UNL     1      33.288 -19.532 -20.984  0.00  0.00    +0.018 C 
ATOM      6  C   UNL     1      32.735 -20.615 -20.301  0.00  0.00    +0.037 C 
ENDROOT
BRANCH   4   7
ATOM      7  O   UNL     1      33.004 -22.541 -18.930  0.00  0.00    -0.506 OA
ATOM      8  H   UNL     1      33.202 -23.416 -19.196  0.00  0.00    +0.292 HD
ENDBRANCH   4   7
BRANCH   3   9
ATOM      9  N   UNL     1      35.225 -18.220 -21.640  0.00  0.00    -0.313 N 
ATOM     10  H   UNL     1      36.056 -18.435 -22.121  0.00  0.00    +0.152 HD
BRANCH   9  13
ATOM     11 CL   UNL     1      33.215 -14.495 -26.938  0.00  0.00    -0.087 Cl
ATOM     12  N   UNL     1      34.046 -14.202 -21.942  0.00  0.00    -0.248 NA
ATOM     13  C   UNL     1      34.823 -16.869 -21.770  0.00  0.00    +0.047 C 
ATOM     14  C   UNL     1      34.445 -16.328 -23.006  0.00  0.00    +0.010 C 
ATOM     15  C   UNL     1      34.060 -14.972 -23.047  0.00  0.00    +0.062 C 
ATOM     16  C   UNL     1      34.810 -16.080 -20.629  0.00  0.00    +0.035 C 
ATOM     17  C   UNL     1      34.447 -17.101 -24.179  0.00  0.00    +0.055 C 
ATOM     18  C   UNL     1      33.685 -14.434 -24.275  0.00  0.00    +0.083 C 
ATOM     19  C   UNL     1      34.418 -14.763 -20.769  0.00  0.00    +0.100 C 
ATOM     20  C   UNL     1      34.068 -16.538 -25.394  0.00  0.00    -0.014 C 
ATOM     21  C   UNL     1      33.687 -15.203 -25.443  0.00  0.00    +0.037 C 
ENDBRANCH   9  13
ENDBRANCH   3   9
BRANCH   1  22
ATOM     22  C   UNL     1      35.837 -22.193 -18.802  0.00  0.00    -0.047 C 
BRANCH  22  23
ATOM     23  N   UNL     1      35.746 -21.993 -17.355  0.00  0.00    +0.390 N 
ATOM     24  H   UNL     1      35.039 -21.283 -17.170  0.00  0.00    -0.079 HD
BRANCH  23  25
ATOM     25  C   UNL     1      37.024 -21.525 -16.823  0.00  0.00    -0.077 C 
ATOM     26  C   UNL     1      37.776 -22.649 -16.129  0.00  0.00    -0.025 C 
ENDBRANCH  23  25
BRANCH  23  27
ATOM     27  C   UNL     1      35.341 -23.233 -16.693  0.00  0.00    -0.077 C 
ATOM     28  C   UNL     1      34.258 -22.976 -15.659  0.00  0.00    -0.025 C 
ENDBRANCH  23  27
ENDBRANCH  22  23
ENDBRANCH   1  22
TORSDOF 7
ENDMDL
MODEL 5
REMARK VINA RESULT:      -9.5      6.194     10.785
REMARK  Name = 2165
REMARK  7 active torsions:
REMARK  status: ('A' for Active; 'I' for Inactive)
REMARK    1  A    between atoms: C_1  and  C_22
REMARK    2  A    between atoms: C_3  and  N_9
REMARK    3  A    between atoms: C_4  and  O_7
REMARK    4  A    between atoms: N_9  and  C_13
REMARK    5  A    between atoms: C_22  and  N_23
REMARK    6  A    between atoms: N_23  and  C_25
REMARK    7  A    between atoms: N_23  and  C_27
REMARK                            x       y       z     vdW  Elec       q    Type
REMARK                         _______ _______ _______ _____ _____    ______ ____
ROOT
ATOM      1  C   UNL     1      32.897  -8.973 -23.305  0.00  0.00    -0.008 C 
ATOM      2  C   UNL     1      32.579 -10.326 -23.185  0.00  0.00    +0.011 C 
ATOM      3  C   UNL     1      33.436 -11.299 -23.707  0.00  0.00    +0.048 C 
ATOM      4  C   UNL     1      34.073  -8.588 -23.948  0.00  0.00    +0.128 C 
ATOM      5  C   UNL     1      34.613 -10.908 -24.350  0.00  0.00    +0.018 C 
ATOM      6  C   UNL     1      34.932  -9.555 -24.470  0.00  0.00    +0.037 C 
ENDROOT
BRANCH   4   7
ATOM      7  O   UNL     1      34.397  -7.271 -24.076  0.00  0.00    -0.506 OA
ATOM      8  H   UNL     1      34.429  -6.876 -24.925  0.00  0.00    +0.292 HD
ENDBRANCH   4   7
BRANCH   3   9
ATOM      9  N   UNL     1      33.118 -12.662 -23.582  0.00  0.00    -0.313 N 
ATOM     10  H   UNL     1      32.665 -12.887 -22.738  0.00  0.00    +0.152 HD
BRANCH   9  13
ATOM     11 CL   UNL     1      35.825 -18.798 -22.579  0.00  0.00    -0.087 Cl
ATOM     12  N   UNL     1      33.695 -15.916 -26.170  0.00  0.00    -0.248 NA
ATOM     13  C   UNL     1      33.324 -13.774 -24.433  0.00  0.00    +0.047 C 
ATOM     14  C   UNL     1      33.919 -14.956 -23.971  0.00  0.00    +0.010 C 
ATOM     15  C   UNL     1      34.088 -16.016 -24.886  0.00  0.00    +0.062 C 
ATOM     16  C   UNL     1      32.917 -13.668 -25.755  0.00  0.00    +0.035 C 
ATOM     17  C   UNL     1      34.340 -15.095 -22.638  0.00  0.00    +0.055 C 
ATOM     18  C   UNL     1      34.679 -17.189 -24.427  0.00  0.00    +0.083 C 
ATOM     19  C   UNL     1      33.125 -14.758 -26.576  0.00  0.00    +0.100 C 
ATOM     20  C   UNL     1      34.929 -16.279 -22.206  0.00  0.00    -0.014 C 
ATOM     21  C   UNL     1      35.099 -17.328 -23.101  0.00  0.00    +0.037 C 
ENDBRANCH   9  13
ENDBRANCH   3   9
BRANCH   1  22
ATOM     22  C   UNL     1      31.966  -7.952 -22.741  0.00  0.00    -0.047 C 
BRANCH  22  23
ATOM     23  N   UNL     1      32.635  -7.045 -21.807  0.00  0.00    +0.390 N 
ATOM     24  H   UNL     1      33.465  -6.667 -22.262  0.00  0.00    -0.079 HD
BRANCH  23  25
ATOM     25  C   UNL     1      33.053  -7.767 -20.607  0.00  0.00    -0.077 C 
ATOM     26  C   UNL     1      31.872  -8.454 -19.940  0.00  0.00    -0.025 C 
ENDBRANCH  23  25
BRANCH  23  27
ATOM     27  C   UNL     1      31.753  -5.934 -21.455  0.00  0.00    -0.077 C 
ATOM     28  C   UNL     1      30.808  -5.599 -22.597  0.00  0.00    -0.025 C 
ENDBRANCH  23  27
ENDBRANCH  22  23
ENDBRANCH   1  22
TORSDOF 7
ENDMDL
MODEL 6
REMARK VINA RESULT:      -9.4      5.511      8.557
REMARK  Name = 2165
REMARK  7 active torsions:
REMARK  status: ('A' for Active; 'I' for Inactive)
REMARK    1  A    between atoms: C_1  and  C_22
REMARK    2  A    between atoms: C_3  and  N_9
REMARK    3  A    between atoms: C_4  and  O_7
REMARK    4  A    between atoms: N_9  and  C_13
REMARK    5  A    between atoms: C_22  and  N_23
REMARK    6  A    between atoms: N_23  and  C_25
REMARK    7  A    between atoms: N_23  and  C_27
REMARK                            x       y       z     vdW  Elec       q    Type
REMARK                         _______ _______ _______ _____ _____    ______ ____
ROOT
ATOM      1  C   UNL     1      33.808 -14.801 -23.001  0.00  0.00    -0.008 C 
ATOM      2  C   UNL     1      32.926 -13.734 -22.834  0.00  0.00    +0.011 C 
ATOM      3  C   UNL     1      32.362 -13.478 -21.580  0.00  0.00    +0.048 C 
ATOM      4  C   UNL     1      34.131 -15.616 -21.916  0.00  0.00    +0.128 C 
ATOM      5  C   UNL     1      32.689 -14.296 -20.496  0.00  0.00    +0.018 C 
ATOM      6  C   UNL     1      33.572 -15.363 -20.663  0.00  0.00    +0.037 C 
ENDROOT
BRANCH   4   7
ATOM      7  O   UNL     1      34.989 -16.664 -22.063  0.00  0.00    -0.506 OA
ATOM      8  H   UNL     1      35.880 -16.510 -22.308  0.00  0.00    +0.292 HD
ENDBRANCH   4   7
BRANCH   3   9
ATOM      9  N   UNL     1      31.477 -12.400 -21.411  0.00  0.00    -0.313 N 
ATOM     10  H   UNL     1      30.581 -12.561 -21.785  0.00  0.00    +0.152 HD
BRANCH   9  13
ATOM     11 CL   UNL     1      32.763  -6.231 -23.914  0.00  0.00    -0.087 Cl
ATOM     12  N   UNL     1      31.897  -8.663 -19.547  0.00  0.00    -0.248 NA
ATOM     13  C   UNL     1      31.623 -11.128 -20.808  0.00  0.00    +0.047 C 
ATOM     14  C   UNL     1      31.892  -9.980 -21.565  0.00  0.00    +0.010 C 
ATOM     15  C   UNL     1      32.024  -8.752 -20.884  0.00  0.00    +0.062 C 
ATOM     16  C   UNL     1      31.490 -11.040 -19.430  0.00  0.00    +0.035 C 
ATOM     17  C   UNL     1      32.031 -10.036 -22.962  0.00  0.00    +0.055 C 
ATOM     18  C   UNL     1      32.293  -7.612 -21.637  0.00  0.00    +0.083 C 
ATOM     19  C   UNL     1      31.637  -9.794 -18.853  0.00  0.00    +0.100 C 
ATOM     20  C   UNL     1      32.300  -8.880 -23.689  0.00  0.00    -0.014 C 
ATOM     21  C   UNL     1      32.432  -7.667 -23.026  0.00  0.00    +0.037 C 
ENDBRANCH   9  13
ENDBRANCH   3   9
BRANCH   1  22
ATOM     22  C   UNL     1      34.397 -15.057 -24.349  0.00  0.00    -0.047 C 
BRANCH  22  23
ATOM     23  N   UNL     1      33.759 -16.186 -25.029  0.00  0.00    +0.390 N 
ATOM     24  H   UNL     1      33.094 -16.616 -24.387  0.00  0.00    -0.079 HD
BRANCH  23  25
ATOM     25  C   UNL     1      34.757 -17.187 -25.400  0.00  0.00    -0.077 C 
ATOM     26  C   UNL     1      34.366 -18.566 -24.895  0.00  0.00    -0.025 C 
ENDBRANCH  23  25
BRANCH  23  27
ATOM     27  C   UNL     1      33.032 -15.725 -26.210  0.00  0.00    -0.077 C 
ATOM     28  C   UNL     1      33.280 -14.249 -26.468  0.00  0.00    -0.025 C 
ENDBRANCH  23  27
ENDBRANCH  22  23
ENDBRANCH   1  22
TORSDOF 7
ENDMDL
MODEL 7
REMARK VINA RESULT:      -9.4      5.809     10.660
REMARK  Name = 2165
REMARK  7 active torsions:
REMARK  status: ('A' for Active; 'I' for Inactive)
REMARK    1  A    between atoms: C_1  and  C_22
REMARK    2  A    between atoms: C_3  and  N_9
REMARK    3  A    between atoms: C_4  and  O_7
REMARK    4  A    between atoms: N_9  and  C_13
REMARK    5  A    between atoms: C_22  and  N_23
REMARK    6  A    between atoms: N_23  and  C_25
REMARK    7  A    between atoms: N_23  and  C_27
REMARK                            x       y       z     vdW  Elec       q    Type
REMARK                         _______ _______ _______ _____ _____    ______ ____
ROOT
ATOM      1  C   UNL     1      31.995  -9.117 -21.286  0.00  0.00    -0.008 C 
ATOM      2  C   UNL     1      31.862 -10.308 -21.999  0.00  0.00    +0.011 C 
ATOM      3  C   UNL     1      31.642 -11.512 -21.323  0.00  0.00    +0.048 C 
ATOM      4  C   UNL     1      31.909  -9.124 -19.894  0.00  0.00    +0.128 C 
ATOM      5  C   UNL     1      31.556 -11.514 -19.929  0.00  0.00    +0.018 C 
ATOM      6  C   UNL     1      31.689 -10.323 -19.215  0.00  0.00    +0.037 C 
ENDROOT
BRANCH   4   7
ATOM      7  O   UNL     1      32.040  -7.970 -19.182  0.00  0.00    -0.506 OA
ATOM      8  H   UNL     1      31.721  -7.163 -19.534  0.00  0.00    +0.292 HD
ENDBRANCH   4   7
BRANCH   3   9
ATOM      9  N   UNL     1      31.503 -12.711 -22.042  0.00  0.00    -0.313 N 
ATOM     10  H   UNL     1      30.622 -13.136 -21.937  0.00  0.00    +0.152 HD
BRANCH   9  13
ATOM     11 CL   UNL     1      35.634 -17.984 -20.986  0.00  0.00    -0.087 Cl
ATOM     12  N   UNL     1      34.096 -14.784 -24.610  0.00  0.00    -0.248 NA
ATOM     13  C   UNL     1      32.385 -13.427 -22.886  0.00  0.00    +0.047 C 
ATOM     14  C   UNL     1      33.145 -14.506 -22.414  0.00  0.00    +0.010 C 
ATOM     15  C   UNL     1      34.000 -15.164 -23.322  0.00  0.00    +0.062 C 
ATOM     16  C   UNL     1      32.481 -13.034 -24.213  0.00  0.00    +0.035 C 
ATOM     17  C   UNL     1      33.069 -14.929 -21.076  0.00  0.00    +0.055 C 
ATOM     18  C   UNL     1      34.755 -16.234 -22.852  0.00  0.00    +0.083 C 
ATOM     19  C   UNL     1      33.345 -13.739 -25.026  0.00  0.00    +0.100 C 
ATOM     20  C   UNL     1      33.836 -16.002 -20.633  0.00  0.00    -0.014 C 
ATOM     21  C   UNL     1      34.681 -16.655 -21.521  0.00  0.00    +0.037 C 
ENDBRANCH   9  13
ENDBRANCH   3   9
BRANCH   1  22
ATOM     22  C   UNL     1      32.231  -7.844 -22.029  0.00  0.00    -0.047 C 
BRANCH  22  23
ATOM     23  N   UNL     1      32.234  -8.039 -23.480  0.00  0.00    +0.390 N 
ATOM     24  H   UNL     1      32.275  -9.039 -23.671  0.00  0.00    -0.079 HD
BRANCH  23  25
ATOM     25  C   UNL     1      33.406  -7.404 -24.078  0.00  0.00    -0.077 C 
ATOM     26  C   UNL     1      34.652  -7.654 -23.243  0.00  0.00    -0.025 C 
ENDBRANCH  23  25
BRANCH  23  27
ATOM     27  C   UNL     1      31.006  -7.506 -24.068  0.00  0.00    -0.077 C 
ATOM     28  C   UNL     1      31.155  -6.033 -24.412  0.00  0.00    -0.025 C 
ENDBRANCH  23  27
ENDBRANCH  22  23
ENDBRANCH   1  22
TORSDOF 7
ENDMDL
MODEL 8
REMARK VINA RESULT:      -9.4      4.219      7.345
REMARK  Name = 2165
REMARK  7 active torsions:
REMARK  status: ('A' for Active; 'I' for Inactive)
REMARK    1  A    between atoms: C_1  and  C_22
REMARK    2  A    between atoms: C_3  and  N_9
REMARK    3  A    between atoms: C_4  and  O_7
REMARK    4  A    between atoms: N_9  and  C_13
REMARK    5  A    between atoms: C_22  and  N_23
REMARK    6  A    between atoms: N_23  and  C_25
REMARK    7  A    between atoms: N_23  and  C_27
REMARK                            x       y       z     vdW  Elec       q    Type
REMARK                         _______ _______ _______ _____ _____    ______ ____
ROOT
ATOM      1  C   UNL     1      34.456 -15.745 -24.088  0.00  0.00    -0.008 C 
ATOM      2  C   UNL     1      34.246 -14.427 -23.684  0.00  0.00    +0.011 C 
ATOM      3  C   UNL     1      33.490 -13.560 -24.480  0.00  0.00    +0.048 C 
ATOM      4  C   UNL     1      33.912 -16.203 -25.288  0.00  0.00    +0.128 C 
ATOM      5  C   UNL     1      32.946 -14.023 -25.680  0.00  0.00    +0.018 C 
ATOM      6  C   UNL     1      33.156 -15.342 -26.084  0.00  0.00    +0.037 C 
ENDROOT
BRANCH   4   7
ATOM      7  O   UNL     1      34.111 -17.487 -25.698  0.00  0.00    -0.506 OA
ATOM      8  H   UNL     1      33.935 -18.198 -25.115  0.00  0.00    +0.292 HD
ENDBRANCH   4   7
BRANCH   3   9
ATOM      9  N   UNL     1      33.274 -12.233 -24.071  0.00  0.00    -0.313 N 
ATOM     10  H   UNL     1      33.651 -11.564 -24.685  0.00  0.00    +0.152 HD
BRANCH   9  13
ATOM     11 CL   UNL     1      32.268  -5.845 -22.031  0.00  0.00    -0.087 Cl
ATOM     12  N   UNL     1      31.320 -10.651 -20.710  0.00  0.00    -0.248 NA
ATOM     13  C   UNL     1      32.621 -11.674 -22.947  0.00  0.00    +0.047 C 
ATOM     14  C   UNL     1      32.549 -10.288 -22.751  0.00  0.00    +0.010 C 
ATOM     15  C   UNL     1      31.881  -9.814 -21.603  0.00  0.00    +0.062 C 
ATOM     16  C   UNL     1      32.044 -12.539 -22.029  0.00  0.00    +0.035 C 
ATOM     17  C   UNL     1      33.123  -9.385 -23.662  0.00  0.00    +0.055 C 
ATOM     18  C   UNL     1      31.811  -8.437 -21.408  0.00  0.00    +0.083 C 
ATOM     19  C   UNL     1      31.411 -11.981 -20.936  0.00  0.00    +0.100 C 
ATOM     20  C   UNL     1      33.038  -8.013 -23.442  0.00  0.00    -0.014 C 
ATOM     21  C   UNL     1      32.381  -7.539 -22.314  0.00  0.00    +0.037 C 
ENDBRANCH   9  13
ENDBRANCH   3   9
BRANCH   1  22
ATOM     22  C   UNL     1      35.268 -16.652 -23.223  0.00  0.00    -0.047 C 
BRANCH  22  23
ATOM     23  N   UNL     1      34.475 -17.253 -22.150  0.00  0.00    +0.390 N 
ATOM     24  H   UNL     1      33.515 -16.919 -22.231  0.00  0.00    -0.079 HD
BRANCH  23  25
ATOM     25  C   UNL     1      34.997 -16.853 -20.845  0.00  0.00    -0.077 C 
ATOM     26  C   UNL     1      34.377 -15.544 -20.383  0.00  0.00    -0.025 C 
ENDBRANCH  23  25
BRANCH  23  27
ATOM     27  C   UNL     1      34.470 -18.710 -22.275  0.00  0.00    -0.077 C 
ATOM     28  C   UNL     1      33.826 -19.363 -21.064  0.00  0.00    -0.025 C 
ENDBRANCH  23  27
ENDBRANCH  22  23
ENDBRANCH   1  22
TORSDOF 7
ENDMDL
MODEL 9
REMARK VINA RESULT:      -9.4      4.030      9.178
REMARK  Name = 2165
REMARK  7 active torsions:
REMARK  status: ('A' for Active; 'I' for Inactive)
REMARK    1  A    between atoms: C_1  and  C_22
REMARK    2  A    between atoms: C_3  and  N_9
REMARK    3  A    between atoms: C_4  and  O_7
REMARK    4  A    between atoms: N_9  and  C_13
REMARK    5  A    between atoms: C_22  and  N_23
REMARK    6  A    between atoms: N_23  and  C_25
REMARK    7  A    between atoms: N_23  and  C_27
REMARK                            x       y       z     vdW  Elec       q    Type
REMARK                         _______ _______ _______ _____ _____    ______ ____
ROOT
ATOM      1  C   UNL     1      34.493 -20.159 -20.381  0.00  0.00    -0.008 C 
ATOM      2  C   UNL     1      33.670 -21.118 -19.792  0.00  0.00    +0.011 C 
ATOM      3  C   UNL     1      34.216 -22.095 -18.954  0.00  0.00    +0.048 C 
ATOM      4  C   UNL     1      35.866 -20.171 -20.133  0.00  0.00    +0.128 C 
ATOM      5  C   UNL     1      35.591 -22.103 -18.708  0.00  0.00    +0.018 C 
ATOM      6  C   UNL     1      36.415 -21.143 -19.296  0.00  0.00    +0.037 C 
ENDROOT
BRANCH   4   7
ATOM      7  O   UNL     1      36.685 -19.243 -20.702  0.00  0.00    -0.506 OA
ATOM      8  H   UNL     1      36.595 -19.032 -21.610  0.00  0.00    +0.292 HD
ENDBRANCH   4   7
BRANCH   3   9
ATOM      9  N   UNL     1      33.385 -23.059 -18.357  0.00  0.00    -0.313 N 
ATOM     10  H   UNL     1      33.245 -23.859 -18.913  0.00  0.00    +0.152 HD
BRANCH   9  13
ATOM     11 CL   UNL     1      35.371 -24.699 -12.085  0.00  0.00    -0.087 Cl
ATOM     12  N   UNL     1      31.311 -23.161 -14.709  0.00  0.00    -0.248 NA
ATOM     13  C   UNL     1      32.710 -23.102 -17.115  0.00  0.00    +0.047 C 
ATOM     14  C   UNL     1      33.362 -23.483 -15.934  0.00  0.00    +0.010 C 
ATOM     15  C   UNL     1      32.614 -23.499 -14.738  0.00  0.00    +0.062 C 
ATOM     16  C   UNL     1      31.368 -22.751 -17.089  0.00  0.00    +0.035 C 
ATOM     17  C   UNL     1      34.720 -23.842 -15.927  0.00  0.00    +0.055 C 
ATOM     18  C   UNL     1      33.262 -23.879 -13.566  0.00  0.00    +0.083 C 
ATOM     19  C   UNL     1      30.720 -22.798 -15.871  0.00  0.00    +0.100 C 
ATOM     20  C   UNL     1      35.343 -24.218 -14.740  0.00  0.00    -0.014 C 
ATOM     21  C   UNL     1      34.613 -24.237 -13.558  0.00  0.00    +0.037 C 
ENDBRANCH   9  13
ENDBRANCH   3   9
BRANCH   1  22
ATOM     22  C   UNL     1      33.889 -19.127 -21.274  0.00  0.00    -0.047 C 
BRANCH  22  23
ATOM     23  N   UNL     1      34.831 -18.646 -22.286  0.00  0.00    +0.390 N 
ATOM     24  H   UNL     1      35.779 -18.833 -21.960  0.00  0.00    -0.079 HD
BRANCH  23  25
ATOM     25  C   UNL     1      34.682 -17.206 -22.478  0.00  0.00    -0.077 C 
ATOM     26  C   UNL     1      34.673 -16.472 -21.147  0.00  0.00    -0.025 C 
ENDBRANCH  23  25
BRANCH  23  27
ATOM     27  C   UNL     1      34.628 -19.355 -23.548  0.00  0.00    -0.077 C 
ATOM     28  C   UNL     1      34.550 -18.387 -24.716  0.00  0.00    -0.025 C 
ENDBRANCH  23  27
ENDBRANCH  22  23
ENDBRANCH   1  22
TORSDOF 7
ENDMDL
