MODEL 1
REMARK VINA RESULT:      -7.8      0.000      0.000
REMARK  Name = 3086674
REMARK  6 active torsions:
REMARK  status: ('A' for Active; 'I' for Inactive)
REMARK    1  A    between atoms: N_1  and  C_21
REMARK    2  A    between atoms: C_4  and  C_18
REMARK    3  A    between atoms: C_5  and  C_11
REMARK    4  A    between atoms: C_18  and  O_19
REMARK    5  A    between atoms: C_21  and  C_22
REMARK    6  A    between atoms: C_22  and  C_24
REMARK                            x       y       z     vdW  Elec       q    Type
REMARK                         _______ _______ _______ _____ _____    ______ ____
ROOT
ATOM      1  N   UNL     1      37.208 -24.942 -13.164  0.00  0.00    +0.390 N 
ATOM      2  C   UNL     1      37.063 -23.570 -13.691  0.00  0.00    -0.047 C 
ATOM      3  C   UNL     1      36.405 -24.902 -11.931  0.00  0.00    -0.058 C 
ATOM      4  C   UNL     1      35.646 -23.448 -14.311  0.00  0.00    +0.084 C 
ATOM      5  C   UNL     1      34.525 -23.781 -13.289  0.00  0.00    +0.029 C 
ATOM      6  C   UNL     1      37.213 -22.677 -12.452  0.00  0.00    -0.022 C 
ATOM      7  C   UNL     1      34.926 -24.969 -12.377  0.00  0.00    -0.016 C 
ATOM      8  C   UNL     1      36.762 -23.560 -11.284  0.00  0.00    -0.023 C 
ATOM      9  H   UNL     1      36.891 -25.655 -13.822  0.00  0.00    -0.080 HD
ENDROOT
BRANCH   5  11
ATOM     10  I   UNL     1      28.713 -24.065 -15.920  0.00  0.00    -0.043 I 
ATOM     11  C   UNL     1      33.140 -23.848 -13.917  0.00  0.00    -0.022 C 
ATOM     12  C   UNL     1      32.660 -22.770 -14.656  0.00  0.00    -0.004 C 
ATOM     13  C   UNL     1      32.357 -24.989 -13.748  0.00  0.00    -0.004 C 
ATOM     14  C   UNL     1      31.390 -22.833 -15.231  0.00  0.00    +0.005 C 
ATOM     15  C   UNL     1      31.088 -25.051 -14.323  0.00  0.00    +0.005 C 
ATOM     16  C   UNL     1      30.605 -23.974 -15.066  0.00  0.00    +0.030 C 
ENDBRANCH   5  11
BRANCH   4  18
ATOM     17  O   UNL     1      35.794 -25.522 -15.538  0.00  0.00    -0.250 OA
ATOM     18  C   UNL     1      35.577 -24.318 -15.539  0.00  0.00    +0.315 C 
BRANCH  18  19
ATOM     19  O   UNL     1      35.241 -23.556 -16.620  0.00  0.00    -0.444 OA
ATOM     20  C   UNL     1      36.052 -22.398 -16.832  0.00  0.00    +0.256 C 
ENDBRANCH  18  19
ENDBRANCH   4  18
BRANCH   1  21
ATOM     21  C   UNL     1      38.599 -25.318 -12.926  0.00  0.00    -0.074 C 
BRANCH  21  22
ATOM     22  C   UNL     1      39.153 -26.083 -14.127  0.00  0.00    +0.015 C 
BRANCH  22  24
ATOM     23  F   UNL     1      39.661 -24.313 -15.584  0.00  0.00    -0.234 F 
ATOM     24  C   UNL     1      40.238 -25.290 -14.837  0.00  0.00    +0.191 C 
ENDBRANCH  22  24
ENDBRANCH  21  22
ENDBRANCH   1  21
TORSDOF 6
ENDMDL
MODEL 2
REMARK VINA RESULT:      -6.5      4.017      6.724
REMARK  Name = 3086674
REMARK  6 active torsions:
REMARK  status: ('A' for Active; 'I' for Inactive)
REMARK    1  A    between atoms: N_1  and  C_21
REMARK    2  A    between atoms: C_4  and  C_18
REMARK    3  A    between atoms: C_5  and  C_11
REMARK    4  A    between atoms: C_18  and  O_19
REMARK    5  A    between atoms: C_21  and  C_22
REMARK    6  A    between atoms: C_22  and  C_24
REMARK                            x       y       z     vdW  Elec       q    Type
REMARK                         _______ _______ _______ _____ _____    ______ ____
ROOT
ATOM      1  N   UNL     1      31.503 -22.926 -14.862  0.00  0.00    +0.390 N 
ATOM      2  C   UNL     1      31.635 -24.159 -15.665  0.00  0.00    -0.047 C 
ATOM      3  C   UNL     1      31.693 -23.413 -13.486  0.00  0.00    -0.058 C 
ATOM      4  C   UNL     1      33.142 -24.524 -15.727  0.00  0.00    +0.084 C 
ATOM      5  C   UNL     1      33.764 -24.701 -14.315  0.00  0.00    +0.029 C 
ATOM      6  C   UNL     1      30.836 -25.205 -14.875  0.00  0.00    -0.022 C 
ATOM      7  C   UNL     1      33.211 -23.650 -13.318  0.00  0.00    -0.016 C 
ATOM      8  C   UNL     1      30.887 -24.715 -13.425  0.00  0.00    -0.023 C 
ATOM      9  H   UNL     1      32.177 -22.207 -15.126  0.00  0.00    -0.080 HD
ENDROOT
BRANCH   5  11
ATOM     10  I   UNL     1      40.107 -25.440 -14.428  0.00  0.00    -0.043 I 
ATOM     11  C   UNL     1      35.276 -24.877 -14.343  0.00  0.00    -0.022 C 
ATOM     12  C   UNL     1      35.842 -25.897 -15.103  0.00  0.00    -0.004 C 
ATOM     13  C   UNL     1      36.088 -24.017 -13.606  0.00  0.00    -0.004 C 
ATOM     14  C   UNL     1      37.227 -26.058 -15.128  0.00  0.00    +0.005 C 
ATOM     15  C   UNL     1      37.473 -24.178 -13.631  0.00  0.00    +0.005 C 
ATOM     16  C   UNL     1      38.043 -25.198 -14.392  0.00  0.00    +0.030 C 
ENDBRANCH   5  11
BRANCH   4  18
ATOM     17  O   UNL     1      34.465 -22.533 -16.062  0.00  0.00    -0.250 OA
ATOM     18  C   UNL     1      33.860 -23.481 -16.542  0.00  0.00    +0.315 C 
BRANCH  18  19
ATOM     19  O   UNL     1      33.725 -23.766 -17.870  0.00  0.00    -0.444 OA
ATOM     20  C   UNL     1      33.742 -22.637 -18.747  0.00  0.00    +0.256 C 
ENDBRANCH  18  19
ENDBRANCH   4  18
BRANCH   1  21
ATOM     21  C   UNL     1      30.222 -22.254 -15.057  0.00  0.00    -0.074 C 
BRANCH  21  22
ATOM     22  C   UNL     1      29.732 -22.450 -16.490  0.00  0.00    +0.015 C 
BRANCH  22  24
ATOM     23  F   UNL     1      27.953 -23.560 -15.432  0.00  0.00    -0.234 F 
ATOM     24  C   UNL     1      28.257 -22.816 -16.527  0.00  0.00    +0.191 C 
ENDBRANCH  22  24
ENDBRANCH  21  22
ENDBRANCH   1  21
TORSDOF 6
ENDMDL
MODEL 3
REMARK VINA RESULT:      -6.4     10.414     13.104
REMARK  Name = 3086674
REMARK  6 active torsions:
REMARK  status: ('A' for Active; 'I' for Inactive)
REMARK    1  A    between atoms: N_1  and  C_21
REMARK    2  A    between atoms: C_4  and  C_18
REMARK    3  A    between atoms: C_5  and  C_11
REMARK    4  A    between atoms: C_18  and  O_19
REMARK    5  A    between atoms: C_21  and  C_22
REMARK    6  A    between atoms: C_22  and  C_24
REMARK                            x       y       z     vdW  Elec       q    Type
REMARK                         _______ _______ _______ _____ _____    ______ ____
ROOT
ATOM      1  N   UNL     1      34.196 -13.459 -23.178  0.00  0.00    +0.390 N 
ATOM      2  C   UNL     1      33.055 -14.301 -23.588  0.00  0.00    -0.047 C 
ATOM      3  C   UNL     1      34.023 -13.366 -21.718  0.00  0.00    -0.058 C 
ATOM      4  C   UNL     1      33.383 -15.767 -23.196  0.00  0.00    +0.084 C 
ATOM      5  C   UNL     1      33.680 -15.919 -21.679  0.00  0.00    +0.029 C 
ATOM      6  C   UNL     1      31.876 -13.753 -22.773  0.00  0.00    -0.022 C 
ATOM      7  C   UNL     1      34.501 -14.718 -21.141  0.00  0.00    -0.016 C 
ATOM      8  C   UNL     1      32.520 -13.143 -21.524  0.00  0.00    -0.023 C 
ATOM      9  H   UNL     1      35.098 -13.854 -23.446  0.00  0.00    -0.080 HD
ENDROOT
BRANCH   5  11
ATOM     10  I   UNL     1      35.786 -21.736 -20.097  0.00  0.00    -0.043 I 
ATOM     11  C   UNL     1      34.183 -17.305 -21.302  0.00  0.00    -0.022 C 
ATOM     12  C   UNL     1      35.546 -17.524 -21.122  0.00  0.00    -0.004 C 
ATOM     13  C   UNL     1      33.276 -18.350 -21.138  0.00  0.00    -0.004 C 
ATOM     14  C   UNL     1      36.006 -18.795 -20.776  0.00  0.00    +0.005 C 
ATOM     15  C   UNL     1      33.735 -19.621 -20.792  0.00  0.00    +0.005 C 
ATOM     16  C   UNL     1      35.100 -19.843 -20.610  0.00  0.00    +0.030 C 
ENDBRANCH   5  11
BRANCH   4  18
ATOM     17  O   UNL     1      35.671 -15.848 -23.961  0.00  0.00    -0.250 OA
ATOM     18  C   UNL     1      34.521 -16.254 -24.053  0.00  0.00    +0.315 C 
BRANCH  18  19
ATOM     19  O   UNL     1      34.064 -17.199 -24.925  0.00  0.00    -0.444 OA
ATOM     20  C   UNL     1      34.530 -18.531 -24.689  0.00  0.00    +0.256 C 
ENDBRANCH  18  19
ENDBRANCH   4  18
BRANCH   1  21
ATOM     21  C   UNL     1      34.207 -12.155 -23.834  0.00  0.00    -0.074 C 
BRANCH  21  22
ATOM     22  C   UNL     1      33.856 -12.303 -25.314  0.00  0.00    +0.015 C 
BRANCH  22  24
ATOM     23  F   UNL     1      35.413 -10.546 -25.368  0.00  0.00    -0.234 F 
ATOM     24  C   UNL     1      34.625 -11.309 -26.169  0.00  0.00    +0.191 C 
ENDBRANCH  22  24
ENDBRANCH  21  22
ENDBRANCH   1  21
TORSDOF 6
ENDMDL
MODEL 4
REMARK VINA RESULT:      -6.1     17.221     19.531
REMARK  Name = 3086674
REMARK  6 active torsions:
REMARK  status: ('A' for Active; 'I' for Inactive)
REMARK    1  A    between atoms: N_1  and  C_21
REMARK    2  A    between atoms: C_4  and  C_18
REMARK    3  A    between atoms: C_5  and  C_11
REMARK    4  A    between atoms: C_18  and  O_19
REMARK    5  A    between atoms: C_21  and  C_22
REMARK    6  A    between atoms: C_22  and  C_24
REMARK                            x       y       z     vdW  Elec       q    Type
REMARK                         _______ _______ _______ _____ _____    ______ ____
ROOT
ATOM      1  N   UNL     1      31.943  -8.814 -21.673  0.00  0.00    +0.390 N 
ATOM      2  C   UNL     1      33.349  -8.396 -21.504  0.00  0.00    -0.047 C 
ATOM      3  C   UNL     1      31.210  -7.542 -21.564  0.00  0.00    -0.058 C 
ATOM      4  C   UNL     1      33.805  -7.723 -22.826  0.00  0.00    +0.084 C 
ATOM      5  C   UNL     1      32.902  -6.521 -23.217  0.00  0.00    +0.029 C 
ATOM      6  C   UNL     1      33.301  -7.388 -20.348  0.00  0.00    -0.022 C 
ATOM      7  C   UNL     1      31.410  -6.813 -22.912  0.00  0.00    -0.016 C 
ATOM      8  C   UNL     1      31.882  -6.811 -20.397  0.00  0.00    -0.023 C 
ATOM      9  H   UNL     1      31.776  -9.294 -22.558  0.00  0.00    -0.080 HD
ENDROOT
BRANCH   5  11
ATOM     10  I   UNL     1      34.206  -4.164 -29.007  0.00  0.00    -0.043 I 
ATOM     11  C   UNL     1      33.213  -5.960 -24.597  0.00  0.00    -0.022 C 
ATOM     12  C   UNL     1      34.466  -6.172 -25.166  0.00  0.00    -0.004 C 
ATOM     13  C   UNL     1      32.243  -5.235 -25.286  0.00  0.00    -0.004 C 
ATOM     14  C   UNL     1      34.751  -5.657 -26.431  0.00  0.00    +0.005 C 
ATOM     15  C   UNL     1      32.527  -4.720 -26.551  0.00  0.00    +0.005 C 
ATOM     16  C   UNL     1      33.781  -4.932 -27.124  0.00  0.00    +0.030 C 
ENDBRANCH   5  11
BRANCH   4  18
ATOM     17  O   UNL     1      32.879  -9.259 -24.441  0.00  0.00    -0.250 OA
ATOM     18  C   UNL     1      33.864  -8.769 -23.907  0.00  0.00    +0.315 C 
BRANCH  18  19
ATOM     19  O   UNL     1      35.167  -9.068 -24.182  0.00  0.00    -0.444 OA
ATOM     20  C   UNL     1      35.371 -10.105 -25.145  0.00  0.00    +0.256 C 
ENDBRANCH  18  19
ENDBRANCH   4  18
BRANCH   1  21
ATOM     21  C   UNL     1      31.519  -9.802 -20.685  0.00  0.00    -0.074 C 
BRANCH  21  22
ATOM     22  C   UNL     1      30.884 -11.007 -21.378  0.00  0.00    +0.015 C 
BRANCH  22  24
ATOM     23  F   UNL     1      31.974 -12.560 -19.995  0.00  0.00    -0.234 F 
ATOM     24  C   UNL     1      31.783 -12.230 -21.299  0.00  0.00    +0.191 C 
ENDBRANCH  22  24
ENDBRANCH  21  22
ENDBRANCH   1  21
TORSDOF 6
ENDMDL
MODEL 5
REMARK VINA RESULT:      -6.1     12.387     14.798
REMARK  Name = 3086674
REMARK  6 active torsions:
REMARK  status: ('A' for Active; 'I' for Inactive)
REMARK    1  A    between atoms: N_1  and  C_21
REMARK    2  A    between atoms: C_4  and  C_18
REMARK    3  A    between atoms: C_5  and  C_11
REMARK    4  A    between atoms: C_18  and  O_19
REMARK    5  A    between atoms: C_21  and  C_22
REMARK    6  A    between atoms: C_22  and  C_24
REMARK                            x       y       z     vdW  Elec       q    Type
REMARK                         _______ _______ _______ _____ _____    ______ ____
ROOT
ATOM      1  N   UNL     1      32.327 -10.469 -21.558  0.00  0.00    +0.390 N 
ATOM      2  C   UNL     1      31.222 -11.296 -22.084  0.00  0.00    -0.047 C 
ATOM      3  C   UNL     1      32.342 -10.817 -20.128  0.00  0.00    -0.058 C 
ATOM      4  C   UNL     1      31.731 -12.759 -22.180  0.00  0.00    +0.084 C 
ATOM      5  C   UNL     1      32.240 -13.297 -20.815  0.00  0.00    +0.029 C 
ATOM      6  C   UNL     1      30.117 -11.154 -21.028  0.00  0.00    -0.022 C 
ATOM      7  C   UNL     1      33.012 -12.206 -20.029  0.00  0.00    -0.016 C 
ATOM      8  C   UNL     1      30.864 -10.849 -19.726  0.00  0.00    -0.023 C 
ATOM      9  H   UNL     1      33.217 -10.655 -22.022  0.00  0.00    -0.080 HD
ENDROOT
BRANCH   5  11
ATOM     10  I   UNL     1      35.055 -19.013 -21.253  0.00  0.00    -0.043 I 
ATOM     11  C   UNL     1      32.912 -14.660 -20.919  0.00  0.00    -0.022 C 
ATOM     12  C   UNL     1      34.300 -14.746 -20.982  0.00  0.00    -0.004 C 
ATOM     13  C   UNL     1      32.133 -15.815 -20.951  0.00  0.00    -0.004 C 
ATOM     14  C   UNL     1      34.914 -15.994 -21.077  0.00  0.00    +0.005 C 
ATOM     15  C   UNL     1      32.748 -17.064 -21.047  0.00  0.00    +0.005 C 
ATOM     16  C   UNL     1      34.139 -17.154 -21.109  0.00  0.00    +0.030 C 
ENDBRANCH   5  11
BRANCH   4  18
ATOM     17  O   UNL     1      33.774 -12.117 -23.296  0.00  0.00    -0.250 OA
ATOM     18  C   UNL     1      32.785 -12.836 -23.253  0.00  0.00    +0.315 C 
BRANCH  18  19
ATOM     19  O   UNL     1      32.458 -13.816 -24.144  0.00  0.00    -0.444 OA
ATOM     20  C   UNL     1      33.533 -14.673 -24.539  0.00  0.00    +0.256 C 
ENDBRANCH  18  19
ENDBRANCH   4  18
BRANCH   1  21
ATOM     21  C   UNL     1      32.133  -9.041 -21.795  0.00  0.00    -0.074 C 
BRANCH  21  22
ATOM     22  C   UNL     1      32.899  -8.602 -23.042  0.00  0.00    +0.015 C 
BRANCH  22  24
ATOM     23  F   UNL     1      35.090  -7.765 -23.155  0.00  0.00    -0.234 F 
ATOM     24  C   UNL     1      33.838  -7.446 -22.737  0.00  0.00    +0.191 C 
ENDBRANCH  22  24
ENDBRANCH  21  22
ENDBRANCH   1  21
TORSDOF 6
ENDMDL
MODEL 6
REMARK VINA RESULT:      -6.0     16.023     18.128
REMARK  Name = 3086674
REMARK  6 active torsions:
REMARK  status: ('A' for Active; 'I' for Inactive)
REMARK    1  A    between atoms: N_1  and  C_21
REMARK    2  A    between atoms: C_4  and  C_18
REMARK    3  A    between atoms: C_5  and  C_11
REMARK    4  A    between atoms: C_18  and  O_19
REMARK    5  A    between atoms: C_21  and  C_22
REMARK    6  A    between atoms: C_22  and  C_24
REMARK                            x       y       z     vdW  Elec       q    Type
REMARK                         _______ _______ _______ _____ _____    ______ ____
ROOT
ATOM      1  N   UNL     1      32.082 -11.310 -22.488  0.00  0.00    +0.390 N 
ATOM      2  C   UNL     1      32.785 -10.504 -21.470  0.00  0.00    -0.047 C 
ATOM      3  C   UNL     1      30.669 -10.975 -22.249  0.00  0.00    -0.058 C 
ATOM      4  C   UNL     1      32.786  -9.029 -21.952  0.00  0.00    +0.084 C 
ATOM      5  C   UNL     1      31.351  -8.491 -22.206  0.00  0.00    +0.029 C 
ATOM      6  C   UNL     1      31.935 -10.680 -20.204  0.00  0.00    -0.022 C 
ATOM      7  C   UNL     1      30.450  -9.571 -22.859  0.00  0.00    -0.016 C 
ATOM      8  C   UNL     1      30.526 -10.980 -20.724  0.00  0.00    -0.023 C 
ATOM      9  H   UNL     1      32.385 -11.099 -23.439  0.00  0.00    -0.080 HD
ENDROOT
BRANCH   5  11
ATOM     10  I   UNL     1      31.265  -2.711 -24.920  0.00  0.00    -0.043 I 
ATOM     11  C   UNL     1      31.331  -7.113 -22.852  0.00  0.00    -0.022 C 
ATOM     12  C   UNL     1      31.613  -5.984 -22.088  0.00  0.00    -0.004 C 
ATOM     13  C   UNL     1      31.029  -6.987 -24.207  0.00  0.00    -0.004 C 
ATOM     14  C   UNL     1      31.595  -4.721 -22.681  0.00  0.00    +0.005 C 
ATOM     15  C   UNL     1      31.011  -5.725 -24.800  0.00  0.00    +0.005 C 
ATOM     16  C   UNL     1      31.295  -4.592 -24.038  0.00  0.00    +0.030 C 
ENDBRANCH   5  11
BRANCH   4  18
ATOM     17  O   UNL     1      33.589  -9.664 -24.138  0.00  0.00    -0.250 OA
ATOM     18  C   UNL     1      33.662  -8.917 -23.172  0.00  0.00    +0.315 C 
BRANCH  18  19
ATOM     19  O   UNL     1      34.525  -7.872 -23.020  0.00  0.00    -0.444 OA
ATOM     20  C   UNL     1      34.694  -7.041 -24.171  0.00  0.00    +0.256 C 
ENDBRANCH  18  19
ENDBRANCH   4  18
BRANCH   1  21
ATOM     21  C   UNL     1      32.356 -12.739 -22.372  0.00  0.00    -0.074 C 
BRANCH  21  22
ATOM     22  C   UNL     1      33.062 -13.248 -23.628  0.00  0.00    +0.015 C 
BRANCH  22  24
ATOM     23  F   UNL     1      34.522 -14.054 -21.975  0.00  0.00    -0.234 F 
ATOM     24  C   UNL     1      34.185 -14.212 -23.282  0.00  0.00    +0.191 C 
ENDBRANCH  22  24
ENDBRANCH  21  22
ENDBRANCH   1  21
TORSDOF 6
ENDMDL
MODEL 7
REMARK VINA RESULT:      -6.0     19.671     21.997
REMARK  Name = 3086674
REMARK  6 active torsions:
REMARK  status: ('A' for Active; 'I' for Inactive)
REMARK    1  A    between atoms: N_1  and  C_21
REMARK    2  A    between atoms: C_4  and  C_18
REMARK    3  A    between atoms: C_5  and  C_11
REMARK    4  A    between atoms: C_18  and  O_19
REMARK    5  A    between atoms: C_21  and  C_22
REMARK    6  A    between atoms: C_22  and  C_24
REMARK                            x       y       z     vdW  Elec       q    Type
REMARK                         _______ _______ _______ _____ _____    ______ ____
ROOT
ATOM      1  N   UNL     1      32.027  -6.485 -22.383  0.00  0.00    +0.390 N 
ATOM      2  C   UNL     1      30.892  -6.477 -23.328  0.00  0.00    -0.047 C 
ATOM      3  C   UNL     1      33.002  -7.362 -23.053  0.00  0.00    -0.058 C 
ATOM      4  C   UNL     1      31.279  -5.565 -24.523  0.00  0.00    +0.084 C 
ATOM      5  C   UNL     1      32.589  -6.028 -25.218  0.00  0.00    +0.029 C 
ATOM      6  C   UNL     1      30.758  -7.943 -23.761  0.00  0.00    -0.022 C 
ATOM      7  C   UNL     1      33.635  -6.518 -24.182  0.00  0.00    -0.016 C 
ATOM      8  C   UNL     1      32.164  -8.526 -23.590  0.00  0.00    -0.023 C 
ATOM      9  H   UNL     1      32.394  -5.552 -22.196  0.00  0.00    -0.080 HD
ENDROOT
BRANCH   5  11
ATOM     10  I   UNL     1      34.684  -1.926 -29.641  0.00  0.00    -0.043 I 
ATOM     11  C   UNL     1      33.088  -5.049 -26.272  0.00  0.00    -0.022 C 
ATOM     12  C   UNL     1      32.182  -4.233 -26.945  0.00  0.00    -0.004 C 
ATOM     13  C   UNL     1      34.449  -4.975 -26.559  0.00  0.00    -0.004 C 
ATOM     14  C   UNL     1      32.641  -3.337 -27.911  0.00  0.00    +0.005 C 
ATOM     15  C   UNL     1      34.907  -4.079 -27.525  0.00  0.00    +0.005 C 
ATOM     16  C   UNL     1      34.003  -3.259 -28.201  0.00  0.00    +0.030 C 
ENDBRANCH   5  11
BRANCH   4  18
ATOM     17  O   UNL     1      32.180  -3.739 -23.227  0.00  0.00    -0.250 OA
ATOM     18  C   UNL     1      31.360  -4.141 -24.040  0.00  0.00    +0.315 C 
BRANCH  18  19
ATOM     19  O   UNL     1      30.390  -3.398 -24.647  0.00  0.00    -0.444 OA
ATOM     20  C   UNL     1      30.567  -1.980 -24.577  0.00  0.00    +0.256 C 
ENDBRANCH  18  19
ENDBRANCH   4  18
BRANCH   1  21
ATOM     21  C   UNL     1      31.656  -6.958 -21.052  0.00  0.00    -0.074 C 
BRANCH  21  22
ATOM     22  C   UNL     1      32.767  -7.832 -20.472  0.00  0.00    +0.015 C 
BRANCH  22  24
ATOM     23  F   UNL     1      31.371  -9.706 -20.706  0.00  0.00    -0.234 F 
ATOM     24  C   UNL     1      32.204  -9.089 -19.829  0.00  0.00    +0.191 C 
ENDBRANCH  22  24
ENDBRANCH  21  22
ENDBRANCH   1  21
TORSDOF 6
ENDMDL
MODEL 8
REMARK VINA RESULT:      -5.9     14.446     16.731
REMARK  Name = 3086674
REMARK  6 active torsions:
REMARK  status: ('A' for Active; 'I' for Inactive)
REMARK    1  A    between atoms: N_1  and  C_21
REMARK    2  A    between atoms: C_4  and  C_18
REMARK    3  A    between atoms: C_5  and  C_11
REMARK    4  A    between atoms: C_18  and  O_19
REMARK    5  A    between atoms: C_21  and  C_22
REMARK    6  A    between atoms: C_22  and  C_24
REMARK                            x       y       z     vdW  Elec       q    Type
REMARK                         _______ _______ _______ _____ _____    ______ ____
ROOT
ATOM      1  N   UNL     1      33.063 -13.802 -23.865  0.00  0.00    +0.390 N 
ATOM      2  C   UNL     1      34.290 -13.160 -23.353  0.00  0.00    -0.047 C 
ATOM      3  C   UNL     1      32.096 -13.567 -22.779  0.00  0.00    -0.058 C 
ATOM      4  C   UNL     1      34.115 -11.624 -23.493  0.00  0.00    +0.084 C 
ATOM      5  C   UNL     1      32.854 -11.105 -22.750  0.00  0.00    +0.029 C 
ATOM      6  C   UNL     1      34.347 -13.586 -21.880  0.00  0.00    -0.022 C 
ATOM      7  C   UNL     1      31.664 -12.088 -22.900  0.00  0.00    -0.016 C 
ATOM      8  C   UNL     1      32.887 -13.844 -21.496  0.00  0.00    -0.023 C 
ATOM      9  H   UNL     1      32.757 -13.417 -24.759  0.00  0.00    -0.080 HD
ENDROOT
BRANCH   5  11
ATOM     10  I   UNL     1      31.605  -4.947 -23.892  0.00  0.00    -0.043 I 
ATOM     11  C   UNL     1      32.557  -9.637 -23.022  0.00  0.00    -0.022 C 
ATOM     12  C   UNL     1      33.586  -8.701 -22.975  0.00  0.00    -0.004 C 
ATOM     13  C   UNL     1      31.255  -9.237 -23.317  0.00  0.00    -0.004 C 
ATOM     14  C   UNL     1      33.313  -7.356 -23.225  0.00  0.00    +0.005 C 
ATOM     15  C   UNL     1      30.982  -7.891 -23.568  0.00  0.00    +0.005 C 
ATOM     16  C   UNL     1      32.011  -6.951 -23.522  0.00  0.00    +0.030 C 
ENDBRANCH   5  11
BRANCH   4  18
ATOM     17  O   UNL     1      33.280 -11.694 -25.758  0.00  0.00    -0.250 OA
ATOM     18  C   UNL     1      34.101 -11.269 -24.957  0.00  0.00    +0.315 C 
BRANCH  18  19
ATOM     19  O   UNL     1      35.132 -10.417 -25.229  0.00  0.00    -0.444 OA
ATOM     20  C   UNL     1      35.668 -10.502 -26.552  0.00  0.00    +0.256 C 
ENDBRANCH  18  19
ENDBRANCH   4  18
BRANCH   1  21
ATOM     21  C   UNL     1      33.245 -15.218 -24.169  0.00  0.00    -0.074 C 
BRANCH  21  22
ATOM     22  C   UNL     1      33.779 -15.391 -25.590  0.00  0.00    +0.015 C 
BRANCH  22  24
ATOM     23  F   UNL     1      33.491 -14.076 -27.514  0.00  0.00    -0.234 F 
ATOM     24  C   UNL     1      32.808 -14.834 -26.619  0.00  0.00    +0.191 C 
ENDBRANCH  22  24
ENDBRANCH  21  22
ENDBRANCH   1  21
TORSDOF 6
ENDMDL
MODEL 9
REMARK VINA RESULT:      -5.9      2.856      4.835
REMARK  Name = 3086674
REMARK  6 active torsions:
REMARK  status: ('A' for Active; 'I' for Inactive)
REMARK    1  A    between atoms: N_1  and  C_21
REMARK    2  A    between atoms: C_4  and  C_18
REMARK    3  A    between atoms: C_5  and  C_11
REMARK    4  A    between atoms: C_18  and  O_19
REMARK    5  A    between atoms: C_21  and  C_22
REMARK    6  A    between atoms: C_22  and  C_24
REMARK                            x       y       z     vdW  Elec       q    Type
REMARK                         _______ _______ _______ _____ _____    ______ ____
ROOT
ATOM      1  N   UNL     1      35.625 -23.926 -13.921  0.00  0.00    +0.390 N 
ATOM      2  C   UNL     1      35.071 -24.891 -14.893  0.00  0.00    -0.047 C 
ATOM      3  C   UNL     1      36.966 -23.652 -14.463  0.00  0.00    -0.058 C 
ATOM      4  C   UNL     1      34.677 -24.102 -16.170  0.00  0.00    +0.084 C 
ATOM      5  C   UNL     1      35.874 -23.317 -16.772  0.00  0.00    +0.029 C 
ATOM      6  C   UNL     1      36.235 -25.853 -15.165  0.00  0.00    -0.022 C 
ATOM      7  C   UNL     1      36.760 -22.697 -15.660  0.00  0.00    -0.016 C 
ATOM      8  C   UNL     1      37.494 -25.024 -14.892  0.00  0.00    -0.023 C 
ATOM      9  H   UNL     1      35.054 -23.085 -13.828  0.00  0.00    -0.080 HD
ENDROOT
BRANCH   5  11
ATOM     10  I   UNL     1      34.199 -19.440 -21.561  0.00  0.00    -0.043 I 
ATOM     11  C   UNL     1      35.474 -22.393 -17.913  0.00  0.00    -0.022 C 
ATOM     12  C   UNL     1      34.176 -22.432 -18.415  0.00  0.00    -0.004 C 
ATOM     13  C   UNL     1      36.410 -21.512 -18.452  0.00  0.00    -0.004 C 
ATOM     14  C   UNL     1      33.810 -21.584 -19.461  0.00  0.00    +0.005 C 
ATOM     15  C   UNL     1      36.044 -20.664 -19.498  0.00  0.00    +0.005 C 
ATOM     16  C   UNL     1      34.744 -20.700 -20.002  0.00  0.00    +0.030 C 
ENDBRANCH   5  11
BRANCH   4  18
ATOM     17  O   UNL     1      33.539 -22.326 -14.994  0.00  0.00    -0.250 OA
ATOM     18  C   UNL     1      33.511 -23.205 -15.844  0.00  0.00    +0.315 C 
BRANCH  18  19
ATOM     19  O   UNL     1      32.450 -23.530 -16.638  0.00  0.00    -0.444 OA
ATOM     20  C   UNL     1      31.168 -23.133 -16.144  0.00  0.00    +0.256 C 
ENDBRANCH  18  19
ENDBRANCH   4  18
BRANCH   1  21
ATOM     21  C   UNL     1      35.657 -24.446 -12.557  0.00  0.00    -0.074 C 
BRANCH  21  22
ATOM     22  C   UNL     1      36.326 -23.440 -11.622  0.00  0.00    +0.015 C 
BRANCH  22  24
ATOM     23  F   UNL     1      37.995 -25.091 -11.645  0.00  0.00    -0.234 F 
ATOM     24  C   UNL     1      37.796 -23.768 -11.414  0.00  0.00    +0.191 C 
ENDBRANCH  22  24
ENDBRANCH  21  22
ENDBRANCH   1  21
TORSDOF 6
ENDMDL
