MODEL 1
REMARK VINA RESULT:      -9.1      0.000      0.000
REMARK  Name = 13755
REMARK  5 active torsions:
REMARK  status: ('A' for Active; 'I' for Inactive)
REMARK    1  A    between atoms: S_1  and  N_4
REMARK    2  A    between atoms: S_1  and  C_15
REMARK    3  A    between atoms: C_10  and  O_12
REMARK    4  A    between atoms: O_12  and  C_13
REMARK    5  A    between atoms: C_18  and  N_21
REMARK                            x       y       z     vdW  Elec       q    Type
REMARK                         _______ _______ _______ _____ _____    ______ ____
ROOT
ATOM      1  S   UNL     1      35.245 -18.392 -22.883  0.00  0.00    +0.075 S 
ATOM      2  O   UNL     1      36.674 -18.218 -22.651  0.00  0.00    -0.150 OA
ATOM      3  O   UNL     1      34.795 -19.531 -23.674  0.00  0.00    -0.150 OA
ENDROOT
BRANCH   1   4
ATOM      4  N   UNL     1      34.453 -18.403 -21.353  0.00  0.00    -0.197 N 
ATOM      5  N   UNL     1      35.514 -20.172 -20.201  0.00  0.00    -0.129 NA
ATOM      6  N   UNL     1      35.483 -21.354 -19.529  0.00  0.00    -0.109 NA
ATOM      7  C   UNL     1      34.357 -19.654 -20.650  0.00  0.00    +0.169 C 
ATOM      8  C   UNL     1      33.131 -20.251 -20.470  0.00  0.00    +0.042 C 
ATOM      9  C   UNL     1      33.100 -21.453 -19.787  0.00  0.00    +0.062 C 
ATOM     10  C   UNL     1      34.298 -21.970 -19.333  0.00  0.00    +0.244 C 
ATOM     11  H   UNL     1      34.078 -17.577 -20.970  0.00  0.00    +0.175 HD
BRANCH  10  12
ATOM     12  O   UNL     1      34.311 -23.156 -18.653  0.00  0.00    -0.459 OA
BRANCH  12  13
ATOM     13  C   UNL     1      33.382 -23.295 -17.583  0.00  0.00    +0.207 C 
ATOM     14  C   UNL     1      34.126 -23.203 -16.268  0.00  0.00    +0.051 C 
ENDBRANCH  12  13
ENDBRANCH  10  12
ENDBRANCH   1   4
BRANCH   1  15
ATOM     15  C   UNL     1      34.643 -16.926 -23.619  0.00  0.00    +0.125 C 
ATOM     16  C   UNL     1      34.599 -15.743 -22.881  0.00  0.00    +0.021 C 
ATOM     17  C   UNL     1      34.208 -16.940 -24.943  0.00  0.00    +0.021 C 
ATOM     18  C   UNL     1      33.684 -14.586 -24.795  0.00  0.00    +0.042 C 
ATOM     19  C   UNL     1      34.119 -14.573 -23.470  0.00  0.00    +0.015 C 
ATOM     20  C   UNL     1      33.728 -15.770 -25.531  0.00  0.00    +0.015 C 
BRANCH  18  21
ATOM     21  N   UNL     1      33.199 -13.403 -25.390  0.00  0.00    -0.357 N 
ATOM     22  H   UNL     1      33.385 -13.218 -26.339  0.00  0.00    +0.142 HD
ATOM     23  H   UNL     1      32.674 -12.763 -24.857  0.00  0.00    +0.142 HD
ENDBRANCH  18  21
ENDBRANCH   1  15
TORSDOF 5
ENDMDL
MODEL 2
REMARK VINA RESULT:      -8.8      5.262      9.246
REMARK  Name = 13755
REMARK  5 active torsions:
REMARK  status: ('A' for Active; 'I' for Inactive)
REMARK    1  A    between atoms: S_1  and  N_4
REMARK    2  A    between atoms: S_1  and  C_15
REMARK    3  A    between atoms: C_10  and  O_12
REMARK    4  A    between atoms: O_12  and  C_13
REMARK    5  A    between atoms: C_18  and  N_21
REMARK                            x       y       z     vdW  Elec       q    Type
REMARK                         _______ _______ _______ _____ _____    ______ ____
ROOT
ATOM      1  S   UNL     1      33.142 -13.523 -23.567  0.00  0.00    +0.075 S 
ATOM      2  O   UNL     1      32.661 -14.006 -24.856  0.00  0.00    -0.150 OA
ATOM      3  O   UNL     1      34.057 -12.388 -23.540  0.00  0.00    -0.150 OA
ENDROOT
BRANCH   1   4
ATOM      4  N   UNL     1      31.774 -13.185 -22.578  0.00  0.00    -0.197 N 
ATOM      5  N   UNL     1      31.760 -10.826 -22.451  0.00  0.00    -0.129 NA
ATOM      6  N   UNL     1      31.778  -9.663 -21.745  0.00  0.00    -0.109 NA
ATOM      7  C   UNL     1      31.795 -11.990 -21.778  0.00  0.00    +0.169 C 
ATOM      8  C   UNL     1      31.849 -12.079 -20.407  0.00  0.00    +0.042 C 
ATOM      9  C   UNL     1      31.869 -10.896 -19.690  0.00  0.00    +0.062 C 
ATOM     10  C   UNL     1      31.831  -9.711 -20.397  0.00  0.00    +0.244 C 
ATOM     11  H   UNL     1      30.998 -13.791 -22.561  0.00  0.00    +0.175 HD
BRANCH  10  12
ATOM     12  O   UNL     1      31.848  -8.520 -19.727  0.00  0.00    -0.459 OA
BRANCH  12  13
ATOM     13  C   UNL     1      32.728  -7.515 -20.221  0.00  0.00    +0.207 C 
ATOM     14  C   UNL     1      31.907  -6.381 -20.799  0.00  0.00    +0.051 C 
ENDBRANCH  12  13
ENDBRANCH  10  12
ENDBRANCH   1   4
BRANCH   1  15
ATOM     15  C   UNL     1      33.893 -14.867 -22.742  0.00  0.00    +0.125 C 
ATOM     16  C   UNL     1      33.975 -14.873 -21.349  0.00  0.00    +0.021 C 
ATOM     17  C   UNL     1      34.411 -15.934 -23.476  0.00  0.00    +0.021 C 
ATOM     18  C   UNL     1      35.092 -17.014 -21.425  0.00  0.00    +0.042 C 
ATOM     19  C   UNL     1      34.574 -15.947 -20.691  0.00  0.00    +0.015 C 
ATOM     20  C   UNL     1      35.011 -17.007 -22.817  0.00  0.00    +0.015 C 
BRANCH  18  21
ATOM     21  N   UNL     1      35.698 -18.100 -20.760  0.00  0.00    -0.357 N 
ATOM     22  H   UNL     1      35.145 -18.734 -20.248  0.00  0.00    +0.142 HD
ATOM     23  H   UNL     1      36.674 -18.224 -20.807  0.00  0.00    +0.142 HD
ENDBRANCH  18  21
ENDBRANCH   1  15
TORSDOF 5
ENDMDL
MODEL 3
REMARK VINA RESULT:      -8.6      2.595      8.074
REMARK  Name = 13755
REMARK  5 active torsions:
REMARK  status: ('A' for Active; 'I' for Inactive)
REMARK    1  A    between atoms: S_1  and  N_4
REMARK    2  A    between atoms: S_1  and  C_15
REMARK    3  A    between atoms: C_10  and  O_12
REMARK    4  A    between atoms: O_12  and  C_13
REMARK    5  A    between atoms: C_18  and  N_21
REMARK                            x       y       z     vdW  Elec       q    Type
REMARK                         _______ _______ _______ _____ _____    ______ ____
ROOT
ATOM      1  S   UNL     1      35.197 -17.790 -21.421  0.00  0.00    +0.075 S 
ATOM      2  O   UNL     1      36.175 -18.033 -22.476  0.00  0.00    -0.150 OA
ATOM      3  O   UNL     1      35.548 -16.886 -20.333  0.00  0.00    -0.150 OA
ENDROOT
BRANCH   1   4
ATOM      4  N   UNL     1      33.733 -17.265 -22.160  0.00  0.00    -0.197 N 
ATOM      5  N   UNL     1      34.389 -15.343 -23.367  0.00  0.00    -0.129 NA
ATOM      6  N   UNL     1      34.285 -14.018 -23.661  0.00  0.00    -0.109 NA
ATOM      7  C   UNL     1      33.576 -15.861 -22.428  0.00  0.00    +0.169 C 
ATOM      8  C   UNL     1      32.637 -15.129 -21.741  0.00  0.00    +0.042 C 
ATOM      9  C   UNL     1      32.532 -13.782 -22.041  0.00  0.00    +0.062 C 
ATOM     10  C   UNL     1      33.374 -13.267 -23.007  0.00  0.00    +0.244 C 
ATOM     11  H   UNL     1      33.024 -17.907 -22.394  0.00  0.00    +0.175 HD
BRANCH  10  12
ATOM     12  O   UNL     1      33.302 -11.942 -23.333  0.00  0.00    -0.459 OA
BRANCH  12  13
ATOM     13  C   UNL     1      33.927 -11.543 -24.549  0.00  0.00    +0.207 C 
ATOM     14  C   UNL     1      34.484 -10.145 -24.382  0.00  0.00    +0.051 C 
ENDBRANCH  12  13
ENDBRANCH  10  12
ENDBRANCH   1   4
BRANCH   1  15
ATOM     15  C   UNL     1      34.754 -19.338 -20.742  0.00  0.00    +0.125 C 
ATOM     16  C   UNL     1      35.746 -20.234 -20.342  0.00  0.00    +0.021 C 
ATOM     17  C   UNL     1      33.409 -19.676 -20.599  0.00  0.00    +0.021 C 
ATOM     18  C   UNL     1      34.045 -21.808 -19.657  0.00  0.00    +0.042 C 
ATOM     19  C   UNL     1      35.391 -21.469 -19.800  0.00  0.00    +0.015 C 
ATOM     20  C   UNL     1      33.055 -20.912 -20.058  0.00  0.00    +0.015 C 
BRANCH  18  21
ATOM     21  N   UNL     1      33.687 -23.057 -19.108  0.00  0.00    -0.357 N 
ATOM     22  H   UNL     1      33.713 -23.866 -19.669  0.00  0.00    +0.142 HD
ATOM     23  H   UNL     1      33.410 -23.119 -18.165  0.00  0.00    +0.142 HD
ENDBRANCH  18  21
ENDBRANCH   1  15
TORSDOF 5
ENDMDL
MODEL 4
REMARK VINA RESULT:      -8.6      2.806      7.452
REMARK  Name = 13755
REMARK  5 active torsions:
REMARK  status: ('A' for Active; 'I' for Inactive)
REMARK    1  A    between atoms: S_1  and  N_4
REMARK    2  A    between atoms: S_1  and  C_15
REMARK    3  A    between atoms: C_10  and  O_12
REMARK    4  A    between atoms: O_12  and  C_13
REMARK    5  A    between atoms: C_18  and  N_21
REMARK                            x       y       z     vdW  Elec       q    Type
REMARK                         _______ _______ _______ _____ _____    ______ ____
ROOT
ATOM      1  S   UNL     1      35.455 -18.379 -21.772  0.00  0.00    +0.075 S 
ATOM      2  O   UNL     1      34.615 -18.171 -22.947  0.00  0.00    -0.150 OA
ATOM      3  O   UNL     1      36.868 -18.680 -21.964  0.00  0.00    -0.150 OA
ENDROOT
BRANCH   1   4
ATOM      4  N   UNL     1      35.290 -17.004 -20.748  0.00  0.00    -0.197 N 
ATOM      5  N   UNL     1      33.089 -16.262 -21.177  0.00  0.00    -0.129 NA
ATOM      6  N   UNL     1      32.199 -15.307 -21.560  0.00  0.00    -0.109 NA
ATOM      7  C   UNL     1      34.399 -15.955 -21.161  0.00  0.00    +0.169 C 
ATOM      8  C   UNL     1      34.900 -14.723 -21.511  0.00  0.00    +0.042 C 
ATOM      9  C   UNL     1      33.994 -13.753 -21.902  0.00  0.00    +0.062 C 
ATOM     10  C   UNL     1      32.654 -14.085 -21.912  0.00  0.00    +0.244 C 
ATOM     11  H   UNL     1      35.792 -16.939 -19.903  0.00  0.00    +0.175 HD
BRANCH  10  12
ATOM     12  O   UNL     1      31.727 -13.156 -22.290  0.00  0.00    -0.459 OA
BRANCH  12  13
ATOM     13  C   UNL     1      31.895 -11.835 -21.785  0.00  0.00    +0.207 C 
ATOM     14  C   UNL     1      31.532 -11.819 -20.315  0.00  0.00    +0.051 C 
ENDBRANCH  12  13
ENDBRANCH  10  12
ENDBRANCH   1   4
BRANCH   1  15
ATOM     15  C   UNL     1      34.735 -19.657 -20.823  0.00  0.00    +0.125 C 
ATOM     16  C   UNL     1      35.547 -20.604 -20.199  0.00  0.00    +0.021 C 
ATOM     17  C   UNL     1      33.349 -19.730 -20.690  0.00  0.00    +0.021 C 
ATOM     18  C   UNL     1      33.584 -21.697 -19.308  0.00  0.00    +0.042 C 
ATOM     19  C   UNL     1      34.971 -21.624 -19.442  0.00  0.00    +0.015 C 
ATOM     20  C   UNL     1      32.773 -20.750 -19.933  0.00  0.00    +0.015 C 
BRANCH  18  21
ATOM     21  N   UNL     1      33.002 -22.728 -18.542  0.00  0.00    -0.357 N 
ATOM     22  H   UNL     1      32.791 -23.594 -18.962  0.00  0.00    +0.142 HD
ATOM     23  H   UNL     1      32.807 -22.583 -17.588  0.00  0.00    +0.142 HD
ENDBRANCH  18  21
ENDBRANCH   1  15
TORSDOF 5
ENDMDL
MODEL 5
REMARK VINA RESULT:      -8.5      1.859      2.332
REMARK  Name = 13755
REMARK  5 active torsions:
REMARK  status: ('A' for Active; 'I' for Inactive)
REMARK    1  A    between atoms: S_1  and  N_4
REMARK    2  A    between atoms: S_1  and  C_15
REMARK    3  A    between atoms: C_10  and  O_12
REMARK    4  A    between atoms: O_12  and  C_13
REMARK    5  A    between atoms: C_18  and  N_21
REMARK                            x       y       z     vdW  Elec       q    Type
REMARK                         _______ _______ _______ _____ _____    ______ ____
ROOT
ATOM      1  S   UNL     1      34.093 -16.630 -21.438  0.00  0.00    +0.075 S 
ATOM      2  O   UNL     1      32.809 -16.811 -20.770  0.00  0.00    -0.150 OA
ATOM      3  O   UNL     1      35.161 -15.936 -20.729  0.00  0.00    -0.150 OA
ENDROOT
BRANCH   1   4
ATOM      4  N   UNL     1      34.650 -18.176 -21.953  0.00  0.00    -0.197 N 
ATOM      5  N   UNL     1      32.977 -19.649 -21.171  0.00  0.00    -0.129 NA
ATOM      6  N   UNL     1      32.572 -20.726 -20.446  0.00  0.00    -0.109 NA
ATOM      7  C   UNL     1      34.282 -19.324 -21.169  0.00  0.00    +0.169 C 
ATOM      8  C   UNL     1      35.243 -20.019 -20.472  0.00  0.00    +0.042 C 
ATOM      9  C   UNL     1      34.830 -21.114 -19.735  0.00  0.00    +0.062 C 
ATOM     10  C   UNL     1      33.486 -21.434 -19.749  0.00  0.00    +0.244 C 
ATOM     11  H   UNL     1      35.204 -18.272 -22.762  0.00  0.00    +0.175 HD
BRANCH  10  12
ATOM     12  O   UNL     1      33.037 -22.508 -19.034  0.00  0.00    -0.459 OA
BRANCH  12  13
ATOM     13  C   UNL     1      33.792 -22.879 -17.885  0.00  0.00    +0.207 C 
ATOM     14  C   UNL     1      32.843 -23.320 -16.791  0.00  0.00    +0.051 C 
ENDBRANCH  12  13
ENDBRANCH  10  12
ENDBRANCH   1   4
BRANCH   1  15
ATOM     15  C   UNL     1      33.795 -15.804 -22.948  0.00  0.00    +0.125 C 
ATOM     16  C   UNL     1      34.140 -16.411 -24.155  0.00  0.00    +0.021 C 
ATOM     17  C   UNL     1      33.211 -14.538 -22.946  0.00  0.00    +0.021 C 
ATOM     18  C   UNL     1      33.318 -14.484 -25.359  0.00  0.00    +0.042 C 
ATOM     19  C   UNL     1      33.901 -15.751 -25.361  0.00  0.00    +0.015 C 
ATOM     20  C   UNL     1      32.973 -13.878 -24.151  0.00  0.00    +0.015 C 
BRANCH  18  21
ATOM     21  N   UNL     1      33.076 -13.817 -26.578  0.00  0.00    -0.357 N 
ATOM     22  H   UNL     1      32.648 -14.296 -27.324  0.00  0.00    +0.142 HD
ATOM     23  H   UNL     1      33.335 -12.873 -26.682  0.00  0.00    +0.142 HD
ENDBRANCH  18  21
ENDBRANCH   1  15
TORSDOF 5
ENDMDL
MODEL 6
REMARK VINA RESULT:      -8.5      4.075      5.696
REMARK  Name = 13755
REMARK  5 active torsions:
REMARK  status: ('A' for Active; 'I' for Inactive)
REMARK    1  A    between atoms: S_1  and  N_4
REMARK    2  A    between atoms: S_1  and  C_15
REMARK    3  A    between atoms: C_10  and  O_12
REMARK    4  A    between atoms: O_12  and  C_13
REMARK    5  A    between atoms: C_18  and  N_21
REMARK                            x       y       z     vdW  Elec       q    Type
REMARK                         _______ _______ _______ _____ _____    ______ ____
ROOT
ATOM      1  S   UNL     1      33.253 -13.120 -23.897  0.00  0.00    +0.075 S 
ATOM      2  O   UNL     1      33.292 -13.542 -25.293  0.00  0.00    -0.150 OA
ATOM      3  O   UNL     1      32.051 -13.385 -23.117  0.00  0.00    -0.150 OA
ENDROOT
BRANCH   1   4
ATOM      4  N   UNL     1      34.621 -13.795 -23.098  0.00  0.00    -0.197 N 
ATOM      5  N   UNL     1      34.644 -16.035 -23.848  0.00  0.00    -0.129 NA
ATOM      6  N   UNL     1      34.628 -17.376 -23.621  0.00  0.00    -0.109 NA
ATOM      7  C   UNL     1      34.603 -15.200 -22.794  0.00  0.00    +0.169 C 
ATOM      8  C   UNL     1      34.545 -15.622 -21.487  0.00  0.00    +0.042 C 
ATOM      9  C   UNL     1      34.529 -16.986 -21.256  0.00  0.00    +0.062 C 
ATOM     10  C   UNL     1      34.572 -17.828 -22.350  0.00  0.00    +0.244 C 
ATOM     11  H   UNL     1      35.395 -13.235 -22.856  0.00  0.00    +0.175 HD
BRANCH  10  12
ATOM     12  O   UNL     1      34.558 -19.182 -22.165  0.00  0.00    -0.459 OA
BRANCH  12  13
ATOM     13  C   UNL     1      34.396 -19.648 -20.830  0.00  0.00    +0.207 C 
ATOM     14  C   UNL     1      32.993 -20.195 -20.664  0.00  0.00    +0.051 C 
ENDBRANCH  12  13
ENDBRANCH  10  12
ENDBRANCH   1   4
BRANCH   1  15
ATOM     15  C   UNL     1      33.585 -11.406 -23.851  0.00  0.00    +0.125 C 
ATOM     16  C   UNL     1      34.678 -10.888 -24.545  0.00  0.00    +0.021 C 
ATOM     17  C   UNL     1      32.756 -10.555 -23.119  0.00  0.00    +0.021 C 
ATOM     18  C   UNL     1      34.114  -8.667 -23.776  0.00  0.00    +0.042 C 
ATOM     19  C   UNL     1      34.942  -9.519 -24.507  0.00  0.00    +0.015 C 
ATOM     20  C   UNL     1      33.021  -9.187 -23.081  0.00  0.00    +0.015 C 
BRANCH  18  21
ATOM     21  N   UNL     1      34.380  -7.283 -23.738  0.00  0.00    -0.357 N 
ATOM     22  H   UNL     1      33.775  -6.653 -24.193  0.00  0.00    +0.142 HD
ATOM     23  H   UNL     1      35.171  -6.947 -23.257  0.00  0.00    +0.142 HD
ENDBRANCH  18  21
ENDBRANCH   1  15
TORSDOF 5
ENDMDL
MODEL 7
REMARK VINA RESULT:      -8.4      3.096      8.293
REMARK  Name = 13755
REMARK  5 active torsions:
REMARK  status: ('A' for Active; 'I' for Inactive)
REMARK    1  A    between atoms: S_1  and  N_4
REMARK    2  A    between atoms: S_1  and  C_15
REMARK    3  A    between atoms: C_10  and  O_12
REMARK    4  A    between atoms: O_12  and  C_13
REMARK    5  A    between atoms: C_18  and  N_21
REMARK                            x       y       z     vdW  Elec       q    Type
REMARK                         _______ _______ _______ _____ _____    ______ ____
ROOT
ATOM      1  S   UNL     1      34.828 -16.937 -21.676  0.00  0.00    +0.075 S 
ATOM      2  O   UNL     1      35.782 -17.144 -22.760  0.00  0.00    -0.150 OA
ATOM      3  O   UNL     1      35.211 -16.084 -20.557  0.00  0.00    -0.150 OA
ENDROOT
BRANCH   1   4
ATOM      4  N   UNL     1      33.355 -16.364 -22.361  0.00  0.00    -0.197 N 
ATOM      5  N   UNL     1      34.024 -14.449 -23.572  0.00  0.00    -0.129 NA
ATOM      6  N   UNL     1      33.947 -13.120 -23.851  0.00  0.00    -0.109 NA
ATOM      7  C   UNL     1      33.229 -14.954 -22.612  0.00  0.00    +0.169 C 
ATOM      8  C   UNL     1      32.333 -14.203 -21.887  0.00  0.00    +0.042 C 
ATOM      9  C   UNL     1      32.256 -12.852 -22.171  0.00  0.00    +0.062 C 
ATOM     10  C   UNL     1      33.079 -12.351 -23.161  0.00  0.00    +0.244 C 
ATOM     11  H   UNL     1      32.622 -16.985 -22.576  0.00  0.00    +0.175 HD
BRANCH  10  12
ATOM     12  O   UNL     1      33.033 -11.021 -23.472  0.00  0.00    -0.459 OA
BRANCH  12  13
ATOM     13  C   UNL     1      32.289 -10.179 -22.597  0.00  0.00    +0.207 C 
ATOM     14  C   UNL     1      31.743  -9.007 -23.385  0.00  0.00    +0.051 C 
ENDBRANCH  12  13
ENDBRANCH  10  12
ENDBRANCH   1   4
BRANCH   1  15
ATOM     15  C   UNL     1      34.381 -18.507 -21.054  0.00  0.00    +0.125 C 
ATOM     16  C   UNL     1      33.037 -18.817 -20.845  0.00  0.00    +0.021 C 
ATOM     17  C   UNL     1      35.367 -19.450 -20.768  0.00  0.00    +0.021 C 
ATOM     18  C   UNL     1      33.667 -21.015 -20.062  0.00  0.00    +0.042 C 
ATOM     19  C   UNL     1      32.681 -20.071 -20.349  0.00  0.00    +0.015 C 
ATOM     20  C   UNL     1      35.010 -20.703 -20.271  0.00  0.00    +0.015 C 
BRANCH  18  21
ATOM     21  N   UNL     1      33.307 -22.283 -19.561  0.00  0.00    -0.357 N 
ATOM     22  H   UNL     1      33.993 -22.981 -19.450  0.00  0.00    +0.142 HD
ATOM     23  H   UNL     1      32.370 -22.470 -19.322  0.00  0.00    +0.142 HD
ENDBRANCH  18  21
ENDBRANCH   1  15
TORSDOF 5
ENDMDL
MODEL 8
REMARK VINA RESULT:      -8.2      5.924     10.890
REMARK  Name = 13755
REMARK  5 active torsions:
REMARK  status: ('A' for Active; 'I' for Inactive)
REMARK    1  A    between atoms: S_1  and  N_4
REMARK    2  A    between atoms: S_1  and  C_15
REMARK    3  A    between atoms: C_10  and  O_12
REMARK    4  A    between atoms: O_12  and  C_13
REMARK    5  A    between atoms: C_18  and  N_21
REMARK                            x       y       z     vdW  Elec       q    Type
REMARK                         _______ _______ _______ _____ _____    ______ ____
ROOT
ATOM      1  S   UNL     1      35.263 -24.228 -13.132  0.00  0.00    +0.075 S 
ATOM      2  O   UNL     1      35.309 -22.812 -13.483  0.00  0.00    -0.150 OA
ATOM      3  O   UNL     1      34.917 -24.601 -11.766  0.00  0.00    -0.150 OA
ENDROOT
BRANCH   1   4
ATOM      4  N   UNL     1      34.200 -25.017 -14.234  0.00  0.00    -0.197 N 
ATOM      5  N   UNL     1      34.644 -23.941 -16.289  0.00  0.00    -0.129 NA
ATOM      6  N   UNL     1      34.249 -23.234 -17.382  0.00  0.00    -0.109 NA
ATOM      7  C   UNL     1      33.723 -24.271 -15.367  0.00  0.00    +0.169 C 
ATOM      8  C   UNL     1      32.393 -23.936 -15.460  0.00  0.00    +0.042 C 
ATOM      9  C   UNL     1      31.991 -23.217 -16.571  0.00  0.00    +0.062 C 
ATOM     10  C   UNL     1      32.950 -22.887 -17.509  0.00  0.00    +0.244 C 
ATOM     11  H   UNL     1      33.928 -25.953 -14.093  0.00  0.00    +0.175 HD
BRANCH  10  12
ATOM     12  O   UNL     1      32.595 -22.177 -18.621  0.00  0.00    -0.459 OA
BRANCH  12  13
ATOM     13  C   UNL     1      33.654 -21.697 -19.443  0.00  0.00    +0.207 C 
ATOM     14  C   UNL     1      33.179 -20.471 -20.194  0.00  0.00    +0.051 C 
ENDBRANCH  12  13
ENDBRANCH  10  12
ENDBRANCH   1   4
BRANCH   1  15
ATOM     15  C   UNL     1      36.816 -24.924 -13.527  0.00  0.00    +0.125 C 
ATOM     16  C   UNL     1      36.898 -25.969 -14.447  0.00  0.00    +0.021 C 
ATOM     17  C   UNL     1      37.973 -24.434 -12.922  0.00  0.00    +0.021 C 
ATOM     18  C   UNL     1      39.296 -26.035 -14.157  0.00  0.00    +0.042 C 
ATOM     19  C   UNL     1      38.138 -26.524 -14.762  0.00  0.00    +0.015 C 
ATOM     20  C   UNL     1      39.213 -24.990 -13.236  0.00  0.00    +0.015 C 
BRANCH  18  21
ATOM     21  N   UNL     1      40.550 -26.595 -14.475  0.00  0.00    -0.357 N 
ATOM     22  H   UNL     1      40.991 -26.364 -15.324  0.00  0.00    +0.142 HD
ATOM     23  H   UNL     1      40.984 -27.218 -13.848  0.00  0.00    +0.142 HD
ENDBRANCH  18  21
ENDBRANCH   1  15
TORSDOF 5
ENDMDL
MODEL 9
REMARK VINA RESULT:      -8.1      4.112      6.330
REMARK  Name = 13755
REMARK  5 active torsions:
REMARK  status: ('A' for Active; 'I' for Inactive)
REMARK    1  A    between atoms: S_1  and  N_4
REMARK    2  A    between atoms: S_1  and  C_15
REMARK    3  A    between atoms: C_10  and  O_12
REMARK    4  A    between atoms: O_12  and  C_13
REMARK    5  A    between atoms: C_18  and  N_21
REMARK                            x       y       z     vdW  Elec       q    Type
REMARK                         _______ _______ _______ _____ _____    ______ ____
ROOT
ATOM      1  S   UNL     1      33.878 -22.779 -18.346  0.00  0.00    +0.075 S 
ATOM      2  O   UNL     1      33.885 -24.007 -19.134  0.00  0.00    -0.150 OA
ATOM      3  O   UNL     1      32.759 -22.529 -17.446  0.00  0.00    -0.150 OA
ENDROOT
BRANCH   1   4
ATOM      4  N   UNL     1      35.356 -22.701 -17.465  0.00  0.00    -0.197 N 
ATOM      5  N   UNL     1      35.287 -24.634 -16.109  0.00  0.00    -0.129 NA
ATOM      6  N   UNL     1      35.318 -25.249 -14.896  0.00  0.00    -0.109 NA
ATOM      7  C   UNL     1      35.396 -23.294 -16.156  0.00  0.00    +0.169 C 
ATOM      8  C   UNL     1      35.538 -22.499 -15.044  0.00  0.00    +0.042 C 
ATOM      9  C   UNL     1      35.569 -23.125 -13.810  0.00  0.00    +0.062 C 
ATOM     10  C   UNL     1      35.457 -24.501 -13.781  0.00  0.00    +0.244 C 
ATOM     11  H   UNL     1      36.151 -22.265 -17.848  0.00  0.00    +0.175 HD
BRANCH  10  12
ATOM     12  O   UNL     1      35.483 -25.158 -12.583  0.00  0.00    -0.459 OA
BRANCH  12  13
ATOM     13  C   UNL     1      36.642 -24.979 -11.775  0.00  0.00    +0.207 C 
ATOM     14  C   UNL     1      37.795 -25.743 -12.390  0.00  0.00    +0.051 C 
ENDBRANCH  12  13
ENDBRANCH  10  12
ENDBRANCH   1   4
BRANCH   1  15
ATOM     15  C   UNL     1      34.016 -21.436 -19.454  0.00  0.00    +0.125 C 
ATOM     16  C   UNL     1      35.273 -21.023 -19.896  0.00  0.00    +0.021 C 
ATOM     17  C   UNL     1      32.870 -20.776 -19.895  0.00  0.00    +0.021 C 
ATOM     18  C   UNL     1      34.236 -19.290 -21.223  0.00  0.00    +0.042 C 
ATOM     19  C   UNL     1      35.383 -19.950 -20.781  0.00  0.00    +0.015 C 
ATOM     20  C   UNL     1      32.980 -19.703 -20.780  0.00  0.00    +0.015 C 
BRANCH  18  21
ATOM     21  N   UNL     1      34.347 -18.206 -22.117  0.00  0.00    -0.357 N 
ATOM     22  H   UNL     1      35.059 -18.200 -22.798  0.00  0.00    +0.142 HD
ATOM     23  H   UNL     1      33.713 -17.454 -22.062  0.00  0.00    +0.142 HD
ENDBRANCH  18  21
ENDBRANCH   1  15
TORSDOF 5
ENDMDL
