MODEL 1
REMARK VINA RESULT:      -9.1      0.000      0.000
REMARK  Name = 25113137
REMARK  4 active torsions:
REMARK  status: ('A' for Active; 'I' for Inactive)
REMARK    1  A    between atoms: C_6  and  C_16
REMARK    2  A    between atoms: C_16  and  N_18
REMARK    3  A    between atoms: C_19  and  O_21
REMARK    4  A    between atoms: O_21  and  C_22
REMARK                            x       y       z     vdW  Elec       q    Type
REMARK                         _______ _______ _______ _____ _____    ______ ____
ROOT
ATOM      1  O   UNL     1      36.809 -21.279 -19.645  0.00  0.00    -0.209 OA
ATOM      2  N   UNL     1      32.485 -20.054 -20.518  0.00  0.00    -0.300 N 
ATOM      3  N   UNL     1      32.858 -21.858 -18.963  0.00  0.00    -0.264 N 
ATOM      4  N   UNL     1      35.142 -22.448 -18.551  0.00  0.00    -0.302 NA
ATOM      5  N   UNL     1      33.361 -23.568 -17.494  0.00  0.00    -0.320 N 
ATOM      6  C   UNL     1      34.624 -19.602 -21.008  0.00  0.00    +0.027 C 
ATOM      7  C   UNL     1      34.590 -20.668 -20.078  0.00  0.00    +0.121 C 
ATOM      8  C   UNL     1      33.269 -20.907 -19.810  0.00  0.00    +0.116 C 
ATOM      9  C   UNL     1      33.311 -19.242 -21.262  0.00  0.00    +0.061 C 
ATOM     10  C   UNL     1      35.617 -21.467 -19.428  0.00  0.00    +0.209 C 
ATOM     11  C   UNL     1      33.851 -22.614 -18.349  0.00  0.00    +0.248 C 
ATOM     12  H   UNL     1      31.501 -20.023 -20.502  0.00  0.00    +0.153 HD
ATOM     13  H   UNL     1      31.902 -22.015 -18.784  0.00  0.00    +0.157 HD
ATOM     14  H   UNL     1      32.389 -23.663 -17.368  0.00  0.00    +0.146 HD
ATOM     15  H   UNL     1      33.980 -24.158 -17.007  0.00  0.00    +0.146 HD
ENDROOT
BRANCH   6  16
ATOM     16  C   UNL     1      35.821 -18.977 -21.603  0.00  0.00    +0.122 C 
BRANCH  16  18
ATOM     17  O   UNL     1      35.197 -17.630 -24.099  0.00  0.00    -0.226 OA
ATOM     18  N   UNL     1      35.664 -17.558 -21.828  0.00  0.00    -0.266 N 
ATOM     19  C   UNL     1      35.366 -17.008 -23.056  0.00  0.00    +0.402 C 
ATOM     20  H   UNL     1      35.777 -16.950 -21.062  0.00  0.00    +0.153 HD
BRANCH  19  21
ATOM     21  O   UNL     1      35.284 -15.648 -22.942  0.00  0.00    -0.442 OA
BRANCH  21  22
ATOM     22  C   UNL     1      33.996 -15.077 -23.194  0.00  0.00    +0.138 C 
ATOM     23  C   UNL     1      33.011 -15.624 -22.162  0.00  0.00    +0.044 C 
ATOM     24  C   UNL     1      34.129 -13.562 -23.059  0.00  0.00    +0.044 C 
ATOM     25  C   UNL     1      33.566 -15.454 -24.611  0.00  0.00    +0.044 C 
ENDBRANCH  21  22
ENDBRANCH  19  21
ENDBRANCH  16  18
ENDBRANCH   6  16
TORSDOF 4
ENDMDL
MODEL 2
REMARK VINA RESULT:      -9.0      8.222      9.897
REMARK  Name = 25113137
REMARK  4 active torsions:
REMARK  status: ('A' for Active; 'I' for Inactive)
REMARK    1  A    between atoms: C_6  and  C_16
REMARK    2  A    between atoms: C_16  and  N_18
REMARK    3  A    between atoms: C_19  and  O_21
REMARK    4  A    between atoms: O_21  and  C_22
REMARK                            x       y       z     vdW  Elec       q    Type
REMARK                         _______ _______ _______ _____ _____    ______ ____
ROOT
ATOM      1  O   UNL     1      36.655 -26.085 -11.912  0.00  0.00    -0.209 OA
ATOM      2  N   UNL     1      36.825 -23.604 -15.756  0.00  0.00    -0.300 N 
ATOM      3  N   UNL     1      38.775 -24.885 -15.150  0.00  0.00    -0.264 N 
ATOM      4  N   UNL     1      38.619 -26.161 -13.129  0.00  0.00    -0.302 NA
ATOM      5  N   UNL     1      40.568 -26.160 -14.450  0.00  0.00    -0.320 N 
ATOM      6  C   UNL     1      35.517 -24.166 -14.026  0.00  0.00    +0.027 C 
ATOM      7  C   UNL     1      36.762 -24.823 -13.882  0.00  0.00    +0.121 C 
ATOM      8  C   UNL     1      37.524 -24.449 -14.957  0.00  0.00    +0.116 C 
ATOM      9  C   UNL     1      35.583 -23.420 -15.191  0.00  0.00    +0.061 C 
ATOM     10  C   UNL     1      37.310 -25.732 -12.887  0.00  0.00    +0.209 C 
ATOM     11  C   UNL     1      39.284 -25.754 -14.191  0.00  0.00    +0.248 C 
ATOM     12  H   UNL     1      37.149 -23.193 -16.590  0.00  0.00    +0.153 HD
ATOM     13  H   UNL     1      39.307 -24.605 -15.930  0.00  0.00    +0.157 HD
ATOM     14  H   UNL     1      41.034 -25.835 -15.254  0.00  0.00    +0.146 HD
ATOM     15  H   UNL     1      41.024 -26.777 -13.833  0.00  0.00    +0.146 HD
ENDROOT
BRANCH   6  16
ATOM     16  C   UNL     1      34.357 -24.249 -13.118  0.00  0.00    +0.122 C 
BRANCH  16  18
ATOM     17  O   UNL     1      31.578 -25.095 -13.125  0.00  0.00    -0.226 OA
ATOM     18  N   UNL     1      33.209 -23.515 -13.601  0.00  0.00    -0.266 N 
ATOM     19  C   UNL     1      31.919 -24.001 -13.563  0.00  0.00    +0.402 C 
ATOM     20  H   UNL     1      33.356 -22.618 -13.979  0.00  0.00    +0.153 HD
BRANCH  19  21
ATOM     21  O   UNL     1      31.064 -23.075 -14.091  0.00  0.00    -0.442 OA
BRANCH  21  22
ATOM     22  C   UNL     1      30.499 -23.403 -15.365  0.00  0.00    +0.138 C 
ATOM     23  C   UNL     1      30.070 -24.870 -15.344  0.00  0.00    +0.044 C 
ATOM     24  C   UNL     1      29.292 -22.493 -15.581  0.00  0.00    +0.044 C 
ATOM     25  C   UNL     1      31.555 -23.160 -16.442  0.00  0.00    +0.044 C 
ENDBRANCH  21  22
ENDBRANCH  19  21
ENDBRANCH  16  18
ENDBRANCH   6  16
TORSDOF 4
ENDMDL
MODEL 3
REMARK VINA RESULT:      -8.9      1.680      2.438
REMARK  Name = 25113137
REMARK  4 active torsions:
REMARK  status: ('A' for Active; 'I' for Inactive)
REMARK    1  A    between atoms: C_6  and  C_16
REMARK    2  A    between atoms: C_16  and  N_18
REMARK    3  A    between atoms: C_19  and  O_21
REMARK    4  A    between atoms: O_21  and  C_22
REMARK                            x       y       z     vdW  Elec       q    Type
REMARK                         _______ _______ _______ _____ _____    ______ ____
ROOT
ATOM      1  O   UNL     1      32.555 -19.849 -20.939  0.00  0.00    -0.209 OA
ATOM      2  N   UNL     1      36.791 -20.984 -19.626  0.00  0.00    -0.300 N 
ATOM      3  N   UNL     1      34.947 -22.219 -18.687  0.00  0.00    -0.264 N 
ATOM      4  N   UNL     1      32.759 -21.575 -19.416  0.00  0.00    -0.302 NA
ATOM      5  N   UNL     1      33.088 -23.319 -17.868  0.00  0.00    -0.320 N 
ATOM      6  C   UNL     1      35.618 -19.592 -20.931  0.00  0.00    +0.027 C 
ATOM      7  C   UNL     1      34.714 -20.445 -20.255  0.00  0.00    +0.121 C 
ATOM      8  C   UNL     1      35.474 -21.273 -19.473  0.00  0.00    +0.116 C 
ATOM      9  C   UNL     1      36.894 -19.946 -20.525  0.00  0.00    +0.061 C 
ATOM     10  C   UNL     1      33.265 -20.574 -20.252  0.00  0.00    +0.209 C 
ATOM     11  C   UNL     1      33.561 -22.332 -18.695  0.00  0.00    +0.248 C 
ATOM     12  H   UNL     1      37.540 -21.435 -19.174  0.00  0.00    +0.153 HD
ATOM     13  H   UNL     1      35.511 -22.806 -18.131  0.00  0.00    +0.157 HD
ATOM     14  H   UNL     1      33.718 -23.865 -17.344  0.00  0.00    +0.146 HD
ATOM     15  H   UNL     1      32.121 -23.483 -17.800  0.00  0.00    +0.146 HD
ENDROOT
BRANCH   6  16
ATOM     16  C   UNL     1      35.283 -18.524 -21.892  0.00  0.00    +0.122 C 
BRANCH  16  18
ATOM     17  O   UNL     1      35.323 -15.811 -22.930  0.00  0.00    -0.226 OA
ATOM     18  N   UNL     1      34.793 -17.323 -21.253  0.00  0.00    -0.266 N 
ATOM     19  C   UNL     1      34.855 -16.072 -21.827  0.00  0.00    +0.402 C 
ATOM     20  H   UNL     1      34.392 -17.404 -20.357  0.00  0.00    +0.153 HD
BRANCH  19  21
ATOM     21  O   UNL     1      34.313 -15.150 -20.977  0.00  0.00    -0.442 OA
BRANCH  21  22
ATOM     22  C   UNL     1      32.926 -14.855 -21.177  0.00  0.00    +0.138 C 
ATOM     23  C   UNL     1      32.101 -16.043 -20.685  0.00  0.00    +0.044 C 
ATOM     24  C   UNL     1      32.600 -13.602 -20.368  0.00  0.00    +0.044 C 
ATOM     25  C   UNL     1      32.692 -14.610 -22.667  0.00  0.00    +0.044 C 
ENDBRANCH  21  22
ENDBRANCH  19  21
ENDBRANCH  16  18
ENDBRANCH   6  16
TORSDOF 4
ENDMDL
MODEL 4
REMARK VINA RESULT:      -8.6      2.257      3.693
REMARK  Name = 25113137
REMARK  4 active torsions:
REMARK  status: ('A' for Active; 'I' for Inactive)
REMARK    1  A    between atoms: C_6  and  C_16
REMARK    2  A    between atoms: C_16  and  N_18
REMARK    3  A    between atoms: C_19  and  O_21
REMARK    4  A    between atoms: O_21  and  C_22
REMARK                            x       y       z     vdW  Elec       q    Type
REMARK                         _______ _______ _______ _____ _____    ______ ____
ROOT
ATOM      1  O   UNL     1      33.284 -22.109 -19.752  0.00  0.00    -0.209 OA
ATOM      2  N   UNL     1      36.184 -22.582 -16.241  0.00  0.00    -0.300 N 
ATOM      3  N   UNL     1      33.882 -23.210 -15.899  0.00  0.00    -0.264 N 
ATOM      4  N   UNL     1      32.419 -22.938 -17.776  0.00  0.00    -0.302 NA
ATOM      5  N   UNL     1      31.650 -23.773 -15.712  0.00  0.00    -0.320 N 
ATOM      6  C   UNL     1      36.028 -21.932 -18.379  0.00  0.00    +0.027 C 
ATOM      7  C   UNL     1      34.751 -22.359 -17.944  0.00  0.00    +0.121 C 
ATOM      8  C   UNL     1      34.896 -22.744 -16.638  0.00  0.00    +0.116 C 
ATOM      9  C   UNL     1      36.894 -22.080 -17.309  0.00  0.00    +0.061 C 
ATOM     10  C   UNL     1      33.448 -22.447 -18.585  0.00  0.00    +0.209 C 
ATOM     11  C   UNL     1      32.642 -23.289 -16.525  0.00  0.00    +0.248 C 
ATOM     12  H   UNL     1      36.545 -22.785 -15.349  0.00  0.00    +0.153 HD
ATOM     13  H   UNL     1      34.006 -23.482 -14.960  0.00  0.00    +0.157 HD
ATOM     14  H   UNL     1      31.855 -24.025 -14.783  0.00  0.00    +0.146 HD
ATOM     15  H   UNL     1      30.734 -23.870 -16.058  0.00  0.00    +0.146 HD
ENDROOT
BRANCH   6  16
ATOM     16  C   UNL     1      36.388 -21.423 -19.717  0.00  0.00    +0.122 C 
BRANCH  16  18
ATOM     17  O   UNL     1      37.676 -19.239 -21.133  0.00  0.00    -0.226 OA
ATOM     18  N   UNL     1      35.858 -20.104 -19.980  0.00  0.00    -0.266 N 
ATOM     19  C   UNL     1      36.548 -19.127 -20.665  0.00  0.00    +0.402 C 
ATOM     20  H   UNL     1      34.955 -19.892 -19.652  0.00  0.00    +0.153 HD
BRANCH  19  21
ATOM     21  O   UNL     1      35.782 -17.998 -20.749  0.00  0.00    -0.442 OA
BRANCH  21  22
ATOM     22  C   UNL     1      34.746 -18.018 -21.738  0.00  0.00    +0.138 C 
ATOM     23  C   UNL     1      33.622 -18.929 -21.246  0.00  0.00    +0.044 C 
ATOM     24  C   UNL     1      34.243 -16.586 -21.906  0.00  0.00    +0.044 C 
ATOM     25  C   UNL     1      35.336 -18.539 -23.047  0.00  0.00    +0.044 C 
ENDBRANCH  21  22
ENDBRANCH  19  21
ENDBRANCH  16  18
ENDBRANCH   6  16
TORSDOF 4
ENDMDL
MODEL 5
REMARK VINA RESULT:      -8.6      5.001      7.055
REMARK  Name = 25113137
REMARK  4 active torsions:
REMARK  status: ('A' for Active; 'I' for Inactive)
REMARK    1  A    between atoms: C_6  and  C_16
REMARK    2  A    between atoms: C_16  and  N_18
REMARK    3  A    between atoms: C_19  and  O_21
REMARK    4  A    between atoms: O_21  and  C_22
REMARK                            x       y       z     vdW  Elec       q    Type
REMARK                         _______ _______ _______ _____ _____    ______ ____
ROOT
ATOM      1  O   UNL     1      33.611 -15.339 -26.487  0.00  0.00    -0.209 OA
ATOM      2  N   UNL     1      34.610 -15.417 -22.020  0.00  0.00    -0.300 N 
ATOM      3  N   UNL     1      34.730 -17.492 -23.242  0.00  0.00    -0.264 N 
ATOM      4  N   UNL     1      34.195 -17.380 -25.574  0.00  0.00    -0.302 NA
ATOM      5  N   UNL     1      34.805 -19.404 -24.535  0.00  0.00    -0.320 N 
ATOM      6  C   UNL     1      33.988 -14.083 -23.708  0.00  0.00    +0.027 C 
ATOM      7  C   UNL     1      34.126 -15.401 -24.204  0.00  0.00    +0.121 C 
ATOM      8  C   UNL     1      34.505 -16.176 -23.140  0.00  0.00    +0.116 C 
ATOM      9  C   UNL     1      34.292 -14.121 -22.357  0.00  0.00    +0.061 C 
ATOM     10  C   UNL     1      33.950 -16.005 -25.515  0.00  0.00    +0.209 C 
ATOM     11  C   UNL     1      34.559 -18.055 -24.502  0.00  0.00    +0.248 C 
ATOM     12  H   UNL     1      34.866 -15.738 -21.125  0.00  0.00    +0.153 HD
ATOM     13  H   UNL     1      35.002 -18.033 -22.466  0.00  0.00    +0.157 HD
ATOM     14  H   UNL     1      35.075 -19.875 -23.714  0.00  0.00    +0.146 HD
ATOM     15  H   UNL     1      34.713 -19.901 -25.380  0.00  0.00    +0.146 HD
ENDROOT
BRANCH   6  16
ATOM     16  C   UNL     1      33.596 -12.882 -24.471  0.00  0.00    +0.122 C 
BRANCH  16  18
ATOM     17  O   UNL     1      34.816 -10.547 -25.694  0.00  0.00    -0.226 OA
ATOM     18  N   UNL     1      33.993 -11.650 -23.827  0.00  0.00    -0.266 N 
ATOM     19  C   UNL     1      34.569 -10.589 -24.494  0.00  0.00    +0.402 C 
ATOM     20  H   UNL     1      33.845 -11.563 -22.857  0.00  0.00    +0.153 HD
BRANCH  19  21
ATOM     21  O   UNL     1      34.827  -9.578 -23.612  0.00  0.00    -0.442 OA
BRANCH  21  22
ATOM     22  C   UNL     1      33.881  -8.504 -23.599  0.00  0.00    +0.138 C 
ATOM     23  C   UNL     1      32.516  -9.054 -24.009  0.00  0.00    +0.044 C 
ATOM     24  C   UNL     1      33.833  -7.950 -22.177  0.00  0.00    +0.044 C 
ATOM     25  C   UNL     1      34.352  -7.430 -24.578  0.00  0.00    +0.044 C 
ENDBRANCH  21  22
ENDBRANCH  19  21
ENDBRANCH  16  18
ENDBRANCH   6  16
TORSDOF 4
ENDMDL
MODEL 6
REMARK VINA RESULT:      -8.5      2.666      7.199
REMARK  Name = 25113137
REMARK  4 active torsions:
REMARK  status: ('A' for Active; 'I' for Inactive)
REMARK    1  A    between atoms: C_6  and  C_16
REMARK    2  A    between atoms: C_16  and  N_18
REMARK    3  A    between atoms: C_19  and  O_21
REMARK    4  A    between atoms: O_21  and  C_22
REMARK                            x       y       z     vdW  Elec       q    Type
REMARK                         _______ _______ _______ _____ _____    ______ ____
ROOT
ATOM      1  O   UNL     1      34.944 -17.948 -25.601  0.00  0.00    -0.209 OA
ATOM      2  N   UNL     1      34.178 -15.061 -22.132  0.00  0.00    -0.300 N 
ATOM      3  N   UNL     1      33.237 -14.518 -24.283  0.00  0.00    -0.264 N 
ATOM      4  N   UNL     1      33.675 -16.070 -26.054  0.00  0.00    -0.302 NA
ATOM      5  N   UNL     1      32.396 -14.123 -26.398  0.00  0.00    -0.320 N 
ATOM      6  C   UNL     1      35.184 -16.982 -22.693  0.00  0.00    +0.027 C 
ATOM      7  C   UNL     1      34.541 -16.459 -23.840  0.00  0.00    +0.121 C 
ATOM      8  C   UNL     1      33.943 -15.290 -23.448  0.00  0.00    +0.116 C 
ATOM      9  C   UNL     1      34.944 -16.100 -21.653  0.00  0.00    +0.061 C 
ATOM     10  C   UNL     1      34.421 -16.908 -25.218  0.00  0.00    +0.209 C 
ATOM     11  C   UNL     1      33.132 -14.960 -25.598  0.00  0.00    +0.248 C 
ATOM     12  H   UNL     1      33.859 -14.289 -21.612  0.00  0.00    +0.153 HD
ATOM     13  H   UNL     1      32.815 -13.680 -23.983  0.00  0.00    +0.157 HD
ATOM     14  H   UNL     1      32.005 -13.302 -26.022  0.00  0.00    +0.146 HD
ATOM     15  H   UNL     1      32.259 -14.343 -27.347  0.00  0.00    +0.146 HD
ENDROOT
BRANCH   6  16
ATOM     16  C   UNL     1      35.965 -18.231 -22.604  0.00  0.00    +0.122 C 
BRANCH  16  18
ATOM     17  O   UNL     1      33.943 -20.025 -21.540  0.00  0.00    -0.226 OA
ATOM     18  N   UNL     1      35.918 -18.833 -21.290  0.00  0.00    -0.266 N 
ATOM     19  C   UNL     1      34.911 -19.678 -20.872  0.00  0.00    +0.402 C 
ATOM     20  H   UNL     1      36.645 -18.628 -20.658  0.00  0.00    +0.153 HD
BRANCH  19  21
ATOM     21  O   UNL     1      35.152 -20.077 -19.587  0.00  0.00    -0.442 OA
BRANCH  21  22
ATOM     22  C   UNL     1      35.626 -21.419 -19.430  0.00  0.00    +0.138 C 
ATOM     23  C   UNL     1      36.491 -21.774 -20.638  0.00  0.00    +0.044 C 
ATOM     24  C   UNL     1      36.450 -21.468 -18.145  0.00  0.00    +0.044 C 
ATOM     25  C   UNL     1      34.420 -22.351 -19.330  0.00  0.00    +0.044 C 
ENDBRANCH  21  22
ENDBRANCH  19  21
ENDBRANCH  16  18
ENDBRANCH   6  16
TORSDOF 4
ENDMDL
MODEL 7
REMARK VINA RESULT:      -8.5      7.126      9.556
REMARK  Name = 25113137
REMARK  4 active torsions:
REMARK  status: ('A' for Active; 'I' for Inactive)
REMARK    1  A    between atoms: C_6  and  C_16
REMARK    2  A    between atoms: C_16  and  N_18
REMARK    3  A    between atoms: C_19  and  O_21
REMARK    4  A    between atoms: O_21  and  C_22
REMARK                            x       y       z     vdW  Elec       q    Type
REMARK                         _______ _______ _______ _____ _____    ______ ____
ROOT
ATOM      1  O   UNL     1      31.960 -22.423 -17.938  0.00  0.00    -0.209 OA
ATOM      2  N   UNL     1      31.560 -23.810 -13.594  0.00  0.00    -0.300 N 
ATOM      3  N   UNL     1      29.550 -23.197 -14.775  0.00  0.00    -0.264 N 
ATOM      4  N   UNL     1      29.830 -22.481 -17.043  0.00  0.00    -0.302 NA
ATOM      5  N   UNL     1      27.708 -22.581 -16.026  0.00  0.00    -0.320 N 
ATOM      6  C   UNL     1      33.031 -23.431 -15.239  0.00  0.00    +0.027 C 
ATOM      7  C   UNL     1      31.734 -23.129 -15.717  0.00  0.00    +0.121 C 
ATOM      8  C   UNL     1      30.873 -23.375 -14.680  0.00  0.00    +0.116 C 
ATOM      9  C   UNL     1      32.895 -23.849 -13.926  0.00  0.00    +0.061 C 
ATOM     10  C   UNL     1      31.217 -22.653 -16.990  0.00  0.00    +0.209 C 
ATOM     11  C   UNL     1      29.070 -22.741 -15.999  0.00  0.00    +0.248 C 
ATOM     12  H   UNL     1      31.172 -24.053 -12.722  0.00  0.00    +0.153 HD
ATOM     13  H   UNL     1      28.946 -23.379 -14.018  0.00  0.00    +0.157 HD
ATOM     14  H   UNL     1      27.173 -22.786 -15.226  0.00  0.00    +0.146 HD
ATOM     15  H   UNL     1      27.266 -22.263 -16.846  0.00  0.00    +0.146 HD
ENDROOT
BRANCH   6  16
ATOM     16  C   UNL     1      34.300 -23.328 -15.986  0.00  0.00    +0.122 C 
BRANCH  16  18
ATOM     17  O   UNL     1      36.617 -25.021 -15.537  0.00  0.00    -0.226 OA
ATOM     18  N   UNL     1      35.437 -23.066 -15.131  0.00  0.00    -0.266 N 
ATOM     19  C   UNL     1      36.496 -23.934 -14.981  0.00  0.00    +0.402 C 
ATOM     20  H   UNL     1      35.455 -22.219 -14.629  0.00  0.00    +0.153 HD
BRANCH  19  21
ATOM     21  O   UNL     1      37.406 -23.403 -14.111  0.00  0.00    -0.442 OA
BRANCH  21  22
ATOM     22  C   UNL     1      37.478 -24.028 -12.825  0.00  0.00    +0.138 C 
ATOM     23  C   UNL     1      38.678 -24.972 -12.810  0.00  0.00    +0.044 C 
ATOM     24  C   UNL     1      37.650 -22.923 -11.785  0.00  0.00    +0.044 C 
ATOM     25  C   UNL     1      36.178 -24.794 -12.584  0.00  0.00    +0.044 C 
ENDBRANCH  21  22
ENDBRANCH  19  21
ENDBRANCH  16  18
ENDBRANCH   6  16
TORSDOF 4
ENDMDL
MODEL 8
REMARK VINA RESULT:      -8.5      7.589      9.908
REMARK  Name = 25113137
REMARK  4 active torsions:
REMARK  status: ('A' for Active; 'I' for Inactive)
REMARK    1  A    between atoms: C_6  and  C_16
REMARK    2  A    between atoms: C_16  and  N_18
REMARK    3  A    between atoms: C_19  and  O_21
REMARK    4  A    between atoms: O_21  and  C_22
REMARK                            x       y       z     vdW  Elec       q    Type
REMARK                         _______ _______ _______ _____ _____    ______ ____
ROOT
ATOM      1  O   UNL     1      31.355 -23.494 -13.093  0.00  0.00    -0.209 OA
ATOM      2  N   UNL     1      32.966 -23.081 -17.358  0.00  0.00    -0.300 N 
ATOM      3  N   UNL     1      30.606 -22.741 -17.003  0.00  0.00    -0.264 N 
ATOM      4  N   UNL     1      29.829 -22.972 -14.748  0.00  0.00    -0.302 NA
ATOM      5  N   UNL     1      28.367 -22.441 -16.517  0.00  0.00    -0.320 N 
ATOM      6  C   UNL     1      33.552 -23.519 -15.241  0.00  0.00    +0.027 C 
ATOM      7  C   UNL     1      32.159 -23.278 -15.281  0.00  0.00    +0.121 C 
ATOM      8  C   UNL     1      31.849 -23.017 -16.590  0.00  0.00    +0.116 C 
ATOM      9  C   UNL     1      34.026 -23.391 -16.536  0.00  0.00    +0.061 C 
ATOM     10  C   UNL     1      31.112 -23.264 -14.272  0.00  0.00    +0.209 C 
ATOM     11  C   UNL     1      29.615 -22.731 -16.026  0.00  0.00    +0.248 C 
ATOM     12  H   UNL     1      33.009 -22.934 -18.330  0.00  0.00    +0.153 HD
ATOM     13  H   UNL     1      30.402 -22.556 -17.949  0.00  0.00    +0.157 HD
ATOM     14  H   UNL     1      28.246 -22.267 -17.479  0.00  0.00    +0.146 HD
ATOM     15  H   UNL     1      27.595 -22.408 -15.909  0.00  0.00    +0.146 HD
ENDROOT
BRANCH   6  16
ATOM     16  C   UNL     1      34.365 -23.844 -14.053  0.00  0.00    +0.122 C 
BRANCH  16  18
ATOM     17  O   UNL     1      36.704 -23.041 -12.531  0.00  0.00    -0.226 OA
ATOM     18  N   UNL     1      35.754 -24.088 -14.370  0.00  0.00    -0.266 N 
ATOM     19  C   UNL     1      36.803 -23.665 -13.581  0.00  0.00    +0.402 C 
ATOM     20  H   UNL     1      35.963 -24.583 -15.194  0.00  0.00    +0.153 HD
BRANCH  19  21
ATOM     21  O   UNL     1      37.986 -24.048 -14.148  0.00  0.00    -0.442 OA
BRANCH  21  22
ATOM     22  C   UNL     1      38.411 -25.386 -13.863  0.00  0.00    +0.138 C 
ATOM     23  C   UNL     1      37.739 -26.332 -14.856  0.00  0.00    +0.044 C 
ATOM     24  C   UNL     1      39.929 -25.430 -14.021  0.00  0.00    +0.044 C 
ATOM     25  C   UNL     1      38.010 -25.727 -12.429  0.00  0.00    +0.044 C 
ENDBRANCH  21  22
ENDBRANCH  19  21
ENDBRANCH  16  18
ENDBRANCH   6  16
TORSDOF 4
ENDMDL
MODEL 9
REMARK VINA RESULT:      -8.4      3.207      7.503
REMARK  Name = 25113137
REMARK  4 active torsions:
REMARK  status: ('A' for Active; 'I' for Inactive)
REMARK    1  A    between atoms: C_6  and  C_16
REMARK    2  A    between atoms: C_16  and  N_18
REMARK    3  A    between atoms: C_19  and  O_21
REMARK    4  A    between atoms: O_21  and  C_22
REMARK                            x       y       z     vdW  Elec       q    Type
REMARK                         _______ _______ _______ _____ _____    ______ ____
ROOT
ATOM      1  O   UNL     1      32.371 -20.892 -20.690  0.00  0.00    -0.209 OA
ATOM      2  N   UNL     1      36.759 -20.493 -19.445  0.00  0.00    -0.300 N 
ATOM      3  N   UNL     1      35.772 -18.688 -20.702  0.00  0.00    -0.264 N 
ATOM      4  N   UNL     1      33.474 -18.961 -21.321  0.00  0.00    -0.302 NA
ATOM      5  N   UNL     1      34.698 -17.036 -21.908  0.00  0.00    -0.320 N 
ATOM      6  C   UNL     1      34.969 -21.835 -19.344  0.00  0.00    +0.027 C 
ATOM      7  C   UNL     1      34.617 -20.668 -20.063  0.00  0.00    +0.121 C 
ATOM      8  C   UNL     1      35.738 -19.882 -20.098  0.00  0.00    +0.116 C 
ATOM      9  C   UNL     1      36.297 -21.701 -18.974  0.00  0.00    +0.061 C 
ATOM     10  C   UNL     1      33.392 -20.213 -20.702  0.00  0.00    +0.209 C 
ATOM     11  C   UNL     1      34.594 -18.266 -21.309  0.00  0.00    +0.248 C 
ATOM     12  H   UNL     1      37.669 -20.135 -19.330  0.00  0.00    +0.153 HD
ATOM     13  H   UNL     1      36.588 -18.138 -20.717  0.00  0.00    +0.157 HD
ATOM     14  H   UNL     1      35.552 -16.546 -21.879  0.00  0.00    +0.146 HD
ATOM     15  H   UNL     1      33.921 -16.644 -22.366  0.00  0.00    +0.146 HD
ENDROOT
BRANCH   6  16
ATOM     16  C   UNL     1      34.099 -22.986 -19.036  0.00  0.00    +0.122 C 
BRANCH  16  18
ATOM     17  O   UNL     1      33.044 -23.599 -16.400  0.00  0.00    -0.226 OA
ATOM     18  N   UNL     1      32.823 -22.596 -18.479  0.00  0.00    -0.266 N 
ATOM     19  C   UNL     1      32.406 -22.936 -17.210  0.00  0.00    +0.402 C 
ATOM     20  H   UNL     1      32.217 -22.057 -19.038  0.00  0.00    +0.153 HD
BRANCH  19  21
ATOM     21  O   UNL     1      31.162 -22.420 -16.982  0.00  0.00    -0.442 OA
BRANCH  21  22
ATOM     22  C   UNL     1      30.430 -23.011 -15.902  0.00  0.00    +0.138 C 
ATOM     23  C   UNL     1      31.117 -22.640 -14.589  0.00  0.00    +0.044 C 
ATOM     24  C   UNL     1      29.012 -22.446 -15.944  0.00  0.00    +0.044 C 
ATOM     25  C   UNL     1      30.411 -24.525 -16.099  0.00  0.00    +0.044 C 
ENDBRANCH  21  22
ENDBRANCH  19  21
ENDBRANCH  16  18
ENDBRANCH   6  16
TORSDOF 4
ENDMDL
