MODEL 1
REMARK VINA RESULT:     -10.8      0.000      0.000
REMARK  Name = 16224058
REMARK  5 active torsions:
REMARK  status: ('A' for Active; 'I' for Inactive)
REMARK    1  A    between atoms: C_7  and  N_26
REMARK    2  A    between atoms: C_17  and  C_21
REMARK    3  A    between atoms: C_21  and  C_23
REMARK    4  A    between atoms: C_23  and  O_24
REMARK    5  A    between atoms: N_26  and  C_28
REMARK                            x       y       z     vdW  Elec       q    Type
REMARK                         _______ _______ _______ _____ _____    ______ ____
ROOT
ATOM      1  N   UNL     1      35.637 -22.918 -15.827  0.00  0.00    -0.164 N 
ATOM      2  N   UNL     1      36.916 -22.836 -15.425  0.00  0.00    -0.170 NA
ATOM      3  N   UNL     1      33.400 -23.536 -15.391  0.00  0.00    -0.370 NA
ATOM      4  N   UNL     1      34.186 -24.446 -12.857  0.00  0.00    -0.256 NA
ATOM      5  C   UNL     1      35.414 -22.432 -17.087  0.00  0.00    +0.079 C 
ATOM      6  C   UNL     1      36.656 -22.000 -17.539  0.00  0.00    +0.036 C 
ATOM      7  C   UNL     1      34.375 -21.779 -19.129  0.00  0.00    +0.046 C 
ATOM      8  C   UNL     1      34.250 -22.338 -17.854  0.00  0.00    +0.031 C 
ATOM      9  C   UNL     1      36.766 -21.442 -18.823  0.00  0.00    +0.004 C 
ATOM     10  C   UNL     1      35.610 -21.338 -19.608  0.00  0.00    +0.014 C 
ATOM     11  C   UNL     1      34.679 -23.462 -14.971  0.00  0.00    +0.209 C 
ATOM     12  C   UNL     1      37.533 -22.279 -16.469  0.00  0.00    +0.120 C 
ATOM     13  C   UNL     1      32.521 -24.074 -14.521  0.00  0.00    +0.211 C 
ATOM     14  C   UNL     1      35.064 -23.909 -13.727  0.00  0.00    +0.202 C 
ATOM     15  C   UNL     1      32.908 -24.520 -13.276  0.00  0.00    +0.142 C 
ATOM     16  N   UNL     1      31.192 -24.177 -14.893  0.00  0.00    -0.238 N 
ATOM     17  C   UNL     1      29.323 -24.039 -16.084  0.00  0.00    +0.005 C 
ATOM     18  C   UNL     1      30.674 -23.772 -16.095  0.00  0.00    +0.068 C 
ATOM     19  C   UNL     1      30.193 -24.699 -14.114  0.00  0.00    +0.072 C 
ATOM     20  C   UNL     1      29.018 -24.626 -14.830  0.00  0.00    +0.014 C 
ENDROOT
BRANCH   7  21
ATOM     21  N   UNL     1      33.229 -21.659 -19.948  0.00  0.00    -0.334 N 
ATOM     22  H   UNL     1      32.533 -22.353 -19.891  0.00  0.00    +0.147 HD
BRANCH  21  23
ATOM     23  C   UNL     1      33.037 -20.572 -20.856  0.00  0.00    +0.069 C 
ATOM     24  C   UNL     1      34.395 -20.046 -21.301  0.00  0.00    +0.021 C 
ATOM     25  C   UNL     1      32.214 -19.484 -20.181  0.00  0.00    +0.021 C 
ENDBRANCH  21  23
ENDBRANCH   7  21
BRANCH  17  26
ATOM     26  C   UNL     1      28.369 -23.763 -17.174  0.00  0.00    +0.137 C 
BRANCH  26  28
ATOM     27  O   UNL     1      27.809 -21.728 -15.987  0.00  0.00    -0.250 OA
ATOM     28  C   UNL     1      27.622 -22.465 -16.948  0.00  0.00    +0.318 C 
BRANCH  28  29
ATOM     29  O   UNL     1      26.686 -22.223 -17.899  0.00  0.00    -0.480 OA
ATOM     30  H   UNL     1      26.124 -22.915 -18.189  0.00  0.00    +0.295 HD
ENDBRANCH  28  29
ENDBRANCH  26  28
ENDBRANCH  17  26
TORSDOF 5
ENDMDL
MODEL 2
REMARK VINA RESULT:     -10.3      2.770      6.444
REMARK  Name = 16224058
REMARK  5 active torsions:
REMARK  status: ('A' for Active; 'I' for Inactive)
REMARK    1  A    between atoms: C_7  and  N_26
REMARK    2  A    between atoms: C_17  and  C_21
REMARK    3  A    between atoms: C_21  and  C_23
REMARK    4  A    between atoms: C_23  and  O_24
REMARK    5  A    between atoms: N_26  and  C_28
REMARK                            x       y       z     vdW  Elec       q    Type
REMARK                         _______ _______ _______ _____ _____    ______ ____
ROOT
ATOM      1  N   UNL     1      34.389 -23.787 -14.451  0.00  0.00    -0.164 N 
ATOM      2  N   UNL     1      34.694 -24.391 -13.290  0.00  0.00    -0.170 NA
ATOM      3  N   UNL     1      35.090 -22.700 -16.426  0.00  0.00    -0.370 NA
ATOM      4  N   UNL     1      37.754 -23.004 -15.603  0.00  0.00    -0.256 NA
ATOM      5  C   UNL     1      33.047 -23.716 -14.710  0.00  0.00    +0.079 C 
ATOM      6  C   UNL     1      32.431 -24.327 -13.623  0.00  0.00    +0.036 C 
ATOM      7  C   UNL     1      30.942 -23.276 -15.735  0.00  0.00    +0.046 C 
ATOM      8  C   UNL     1      32.336 -23.179 -15.786  0.00  0.00    +0.031 C 
ATOM      9  C   UNL     1      31.030 -24.415 -13.587  0.00  0.00    +0.004 C 
ATOM     10  C   UNL     1      30.297 -23.882 -14.655  0.00  0.00    +0.014 C 
ATOM     11  C   UNL     1      35.413 -23.303 -15.264  0.00  0.00    +0.209 C 
ATOM     12  C   UNL     1      33.500 -24.717 -12.789  0.00  0.00    +0.120 C 
ATOM     13  C   UNL     1      36.122 -22.251 -17.168  0.00  0.00    +0.211 C 
ATOM     14  C   UNL     1      36.722 -23.452 -14.861  0.00  0.00    +0.202 C 
ATOM     15  C   UNL     1      37.431 -22.401 -16.764  0.00  0.00    +0.142 C 
ATOM     16  N   UNL     1      35.855 -21.622 -18.372  0.00  0.00    -0.238 N 
ATOM     17  C   UNL     1      34.756 -20.761 -20.098  0.00  0.00    +0.005 C 
ATOM     18  C   UNL     1      34.606 -21.410 -18.893  0.00  0.00    +0.068 C 
ATOM     19  C   UNL     1      36.802 -21.119 -19.227  0.00  0.00    +0.072 C 
ATOM     20  C   UNL     1      36.146 -20.577 -20.310  0.00  0.00    +0.014 C 
ENDROOT
BRANCH   7  21
ATOM     21  N   UNL     1      30.173 -22.749 -16.797  0.00  0.00    -0.334 N 
ATOM     22  H   UNL     1      30.638 -22.297 -17.539  0.00  0.00    +0.147 HD
BRANCH  21  23
ATOM     23  C   UNL     1      28.747 -22.842 -16.841  0.00  0.00    +0.069 C 
ATOM     24  C   UNL     1      28.163 -22.176 -15.603  0.00  0.00    +0.021 C 
ATOM     25  C   UNL     1      28.336 -24.306 -16.930  0.00  0.00    +0.021 C 
ENDBRANCH  21  23
ENDBRANCH   7  21
BRANCH  17  26
ATOM     26  C   UNL     1      33.671 -20.339 -21.004  0.00  0.00    +0.137 C 
BRANCH  26  28
ATOM     27  O   UNL     1      34.493 -19.282 -23.021  0.00  0.00    -0.250 OA
ATOM     28  C   UNL     1      34.089 -19.169 -21.870  0.00  0.00    +0.318 C 
BRANCH  28  29
ATOM     29  O   UNL     1      34.016 -17.981 -21.221  0.00  0.00    -0.480 OA
ATOM     30  H   UNL     1      33.236 -17.464 -21.277  0.00  0.00    +0.295 HD
ENDBRANCH  28  29
ENDBRANCH  26  28
ENDBRANCH  17  26
TORSDOF 5
ENDMDL
MODEL 3
REMARK VINA RESULT:      -9.7     11.267     14.807
REMARK  Name = 16224058
REMARK  5 active torsions:
REMARK  status: ('A' for Active; 'I' for Inactive)
REMARK    1  A    between atoms: C_7  and  N_26
REMARK    2  A    between atoms: C_17  and  C_21
REMARK    3  A    between atoms: C_21  and  C_23
REMARK    4  A    between atoms: C_23  and  O_24
REMARK    5  A    between atoms: N_26  and  C_28
REMARK                            x       y       z     vdW  Elec       q    Type
REMARK                         _______ _______ _______ _____ _____    ______ ____
ROOT
ATOM      1  N   UNL     1      32.318 -12.876 -21.319  0.00  0.00    -0.164 N 
ATOM      2  N   UNL     1      32.127 -14.017 -20.636  0.00  0.00    -0.170 NA
ATOM      3  N   UNL     1      32.224 -10.518 -21.413  0.00  0.00    -0.370 NA
ATOM      4  N   UNL     1      31.245 -10.490 -18.785  0.00  0.00    -0.256 NA
ATOM      5  C   UNL     1      32.800 -13.056 -22.587  0.00  0.00    +0.079 C 
ATOM      6  C   UNL     1      32.931 -14.432 -22.737  0.00  0.00    +0.036 C 
ATOM      7  C   UNL     1      33.601 -12.676 -24.799  0.00  0.00    +0.046 C 
ATOM      8  C   UNL     1      33.125 -12.146 -23.596  0.00  0.00    +0.031 C 
ATOM      9  C   UNL     1      33.411 -14.950 -23.952  0.00  0.00    +0.004 C 
ATOM     10  C   UNL     1      33.742 -14.054 -24.977  0.00  0.00    +0.014 C 
ATOM     11  C   UNL     1      32.027 -11.654 -20.713  0.00  0.00    +0.209 C 
ATOM     12  C   UNL     1      32.500 -14.961 -21.502  0.00  0.00    +0.120 C 
ATOM     13  C   UNL     1      31.923  -9.369 -20.776  0.00  0.00    +0.211 C 
ATOM     14  C   UNL     1      31.546 -11.639 -19.423  0.00  0.00    +0.202 C 
ATOM     15  C   UNL     1      31.442  -9.356 -19.485  0.00  0.00    +0.142 C 
ATOM     16  N   UNL     1      32.104  -8.169 -21.441  0.00  0.00    -0.238 N 
ATOM     17  C   UNL     1      32.615  -6.695 -23.021  0.00  0.00    +0.005 C 
ATOM     18  C   UNL     1      32.576  -8.038 -22.721  0.00  0.00    +0.068 C 
ATOM     19  C   UNL     1      31.842  -6.929 -20.919  0.00  0.00    +0.072 C 
ATOM     20  C   UNL     1      32.150  -5.993 -21.881  0.00  0.00    +0.014 C 
ENDROOT
BRANCH   7  21
ATOM     21  N   UNL     1      33.946 -11.800 -25.853  0.00  0.00    -0.334 N 
ATOM     22  H   UNL     1      33.329 -11.713 -26.615  0.00  0.00    +0.147 HD
BRANCH  21  23
ATOM     23  C   UNL     1      35.153 -11.036 -25.861  0.00  0.00    +0.069 C 
ATOM     24  C   UNL     1      34.893  -9.680 -25.217  0.00  0.00    +0.021 C 
ATOM     25  C   UNL     1      35.650 -10.884 -27.293  0.00  0.00    +0.021 C 
ENDBRANCH  21  23
ENDBRANCH   7  21
BRANCH  17  26
ATOM     26  C   UNL     1      33.060  -6.097 -24.294  0.00  0.00    +0.137 C 
BRANCH  26  28
ATOM     27  O   UNL     1      30.793  -5.381 -24.753  0.00  0.00    -0.250 OA
ATOM     28  C   UNL     1      31.997  -5.201 -24.893  0.00  0.00    +0.318 C 
BRANCH  28  29
ATOM     29  O   UNL     1      32.516  -4.199 -25.645  0.00  0.00    -0.480 OA
ATOM     30  H   UNL     1      31.996  -3.798 -26.315  0.00  0.00    +0.295 HD
ENDBRANCH  28  29
ENDBRANCH  26  28
ENDBRANCH  17  26
TORSDOF 5
ENDMDL
MODEL 4
REMARK VINA RESULT:      -8.5     10.465     14.081
REMARK  Name = 16224058
REMARK  5 active torsions:
REMARK  status: ('A' for Active; 'I' for Inactive)
REMARK    1  A    between atoms: C_7  and  N_26
REMARK    2  A    between atoms: C_17  and  C_21
REMARK    3  A    between atoms: C_21  and  C_23
REMARK    4  A    between atoms: C_23  and  O_24
REMARK    5  A    between atoms: N_26  and  C_28
REMARK                            x       y       z     vdW  Elec       q    Type
REMARK                         _______ _______ _______ _____ _____    ______ ____
ROOT
ATOM      1  N   UNL     1      31.973 -11.602 -20.190  0.00  0.00    -0.164 N 
ATOM      2  N   UNL     1      31.658 -11.592 -18.884  0.00  0.00    -0.170 NA
ATOM      3  N   UNL     1      32.528 -12.808 -22.143  0.00  0.00    -0.370 NA
ATOM      4  N   UNL     1      32.345 -15.192 -20.676  0.00  0.00    -0.256 NA
ATOM      5  C   UNL     1      32.022 -10.360 -20.764  0.00  0.00    +0.079 C 
ATOM      6  C   UNL     1      31.713  -9.471 -19.740  0.00  0.00    +0.036 C 
ATOM      7  C   UNL     1      32.270  -8.575 -22.323  0.00  0.00    +0.046 C 
ATOM      8  C   UNL     1      32.307  -9.950 -22.068  0.00  0.00    +0.031 C 
ATOM      9  C   UNL     1      31.682  -8.093 -20.011  0.00  0.00    +0.004 C 
ATOM     10  C   UNL     1      31.964  -7.660 -21.313  0.00  0.00    +0.014 C 
ATOM     11  C   UNL     1      32.213 -12.817 -20.832  0.00  0.00    +0.209 C 
ATOM     12  C   UNL     1      31.502 -10.295 -18.614  0.00  0.00    +0.120 C 
ATOM     13  C   UNL     1      32.750 -14.012 -22.707  0.00  0.00    +0.211 C 
ATOM     14  C   UNL     1      32.123 -13.988 -20.112  0.00  0.00    +0.202 C 
ATOM     15  C   UNL     1      32.660 -15.183 -21.987  0.00  0.00    +0.142 C 
ATOM     16  N   UNL     1      33.077 -14.069 -24.051  0.00  0.00    -0.238 N 
ATOM     17  C   UNL     1      33.530 -13.452 -26.135  0.00  0.00    +0.005 C 
ATOM     18  C   UNL     1      33.197 -12.987 -24.882  0.00  0.00    +0.068 C 
ATOM     19  C   UNL     1      33.328 -15.219 -24.754  0.00  0.00    +0.072 C 
ATOM     20  C   UNL     1      33.613 -14.865 -26.054  0.00  0.00    +0.014 C 
ENDROOT
BRANCH   7  21
ATOM     21  N   UNL     1      32.550  -8.105 -23.626  0.00  0.00    -0.334 N 
ATOM     22  H   UNL     1      32.329  -8.680 -24.393  0.00  0.00    +0.147 HD
BRANCH  21  23
ATOM     23  C   UNL     1      33.140  -6.828 -23.877  0.00  0.00    +0.069 C 
ATOM     24  C   UNL     1      32.237  -6.032 -24.809  0.00  0.00    +0.021 C 
ATOM     25  C   UNL     1      34.527  -7.018 -24.477  0.00  0.00    +0.021 C 
ENDBRANCH  21  23
ENDBRANCH   7  21
BRANCH  17  26
ATOM     26  C   UNL     1      33.757 -12.631 -27.339  0.00  0.00    +0.137 C 
BRANCH  26  28
ATOM     27  O   UNL     1      34.984 -10.846 -26.258  0.00  0.00    -0.250 OA
ATOM     28  C   UNL     1      34.918 -11.677 -27.155  0.00  0.00    +0.318 C 
BRANCH  28  29
ATOM     29  O   UNL     1      35.862 -11.805 -28.120  0.00  0.00    -0.480 OA
ATOM     30  H   UNL     1      35.618 -11.755 -29.024  0.00  0.00    +0.295 HD
ENDBRANCH  28  29
ENDBRANCH  26  28
ENDBRANCH  17  26
TORSDOF 5
ENDMDL
MODEL 5
REMARK VINA RESULT:      -8.5     10.449     13.888
REMARK  Name = 16224058
REMARK  5 active torsions:
REMARK  status: ('A' for Active; 'I' for Inactive)
REMARK    1  A    between atoms: C_7  and  N_26
REMARK    2  A    between atoms: C_17  and  C_21
REMARK    3  A    between atoms: C_21  and  C_23
REMARK    4  A    between atoms: C_23  and  O_24
REMARK    5  A    between atoms: N_26  and  C_28
REMARK                            x       y       z     vdW  Elec       q    Type
REMARK                         _______ _______ _______ _____ _____    ______ ____
ROOT
ATOM      1  N   UNL     1      32.187  -8.480 -20.912  0.00  0.00    -0.164 N 
ATOM      2  N   UNL     1      31.838  -7.410 -20.177  0.00  0.00    -0.170 NA
ATOM      3  N   UNL     1      32.344 -10.824 -21.151  0.00  0.00    -0.370 NA
ATOM      4  N   UNL     1      31.224 -11.121 -18.596  0.00  0.00    -0.256 NA
ATOM      5  C   UNL     1      32.718  -8.170 -22.135  0.00  0.00    +0.079 C 
ATOM      6  C   UNL     1      32.714  -6.781 -22.195  0.00  0.00    +0.036 C 
ATOM      7  C   UNL     1      33.681  -8.323 -24.309  0.00  0.00    +0.046 C 
ATOM      8  C   UNL     1      33.194  -8.976 -23.172  0.00  0.00    +0.031 C 
ATOM      9  C   UNL     1      33.207  -6.140 -23.343  0.00  0.00    +0.004 C 
ATOM     10  C   UNL     1      33.689  -6.929 -24.395  0.00  0.00    +0.014 C 
ATOM     11  C   UNL     1      31.989  -9.762 -20.400  0.00  0.00    +0.209 C 
ATOM     12  C   UNL     1      32.161  -6.379 -20.960  0.00  0.00    +0.120 C 
ATOM     13  C   UNL     1      32.130 -12.036 -20.602  0.00  0.00    +0.211 C 
ATOM     14  C   UNL     1      31.438  -9.908 -19.146  0.00  0.00    +0.202 C 
ATOM     15  C   UNL     1      31.580 -12.182 -19.347  0.00  0.00    +0.142 C 
ATOM     16  N   UNL     1      32.475 -13.166 -21.323  0.00  0.00    -0.238 N 
ATOM     17  C   UNL     1      33.220 -14.476 -22.954  0.00  0.00    +0.005 C 
ATOM     18  C   UNL     1      33.025 -13.165 -22.578  0.00  0.00    +0.068 C 
ATOM     19  C   UNL     1      32.314 -14.457 -20.892  0.00  0.00    +0.072 C 
ATOM     20  C   UNL     1      32.769 -15.294 -21.888  0.00  0.00    +0.014 C 
ENDROOT
BRANCH   7  21
ATOM     21  N   UNL     1      34.175  -9.090 -25.389  0.00  0.00    -0.334 N 
ATOM     22  H   UNL     1      34.016  -8.770 -26.307  0.00  0.00    +0.147 HD
BRANCH  21  23
ATOM     23  C   UNL     1      34.895 -10.310 -25.206  0.00  0.00    +0.069 C 
ATOM     24  C   UNL     1      36.096 -10.329 -26.142  0.00  0.00    +0.021 C 
ATOM     25  C   UNL     1      33.969 -11.491 -25.468  0.00  0.00    +0.021 C 
ENDBRANCH  21  23
ENDBRANCH   7  21
BRANCH  17  26
ATOM     26  C   UNL     1      33.789 -14.942 -24.232  0.00  0.00    +0.137 C 
BRANCH  26  28
ATOM     27  O   UNL     1      34.188 -17.317 -24.477  0.00  0.00    -0.250 OA
ATOM     28  C   UNL     1      34.567 -16.229 -24.061  0.00  0.00    +0.318 C 
BRANCH  28  29
ATOM     29  O   UNL     1      35.712 -16.063 -23.353  0.00  0.00    -0.480 OA
ATOM     30  H   UNL     1      35.764 -15.396 -22.696  0.00  0.00    +0.295 HD
ENDBRANCH  28  29
ENDBRANCH  26  28
ENDBRANCH  17  26
TORSDOF 5
ENDMDL
MODEL 6
REMARK VINA RESULT:      -8.1     10.266     14.295
REMARK  Name = 16224058
REMARK  5 active torsions:
REMARK  status: ('A' for Active; 'I' for Inactive)
REMARK    1  A    between atoms: C_7  and  N_26
REMARK    2  A    between atoms: C_17  and  C_21
REMARK    3  A    between atoms: C_21  and  C_23
REMARK    4  A    between atoms: C_23  and  O_24
REMARK    5  A    between atoms: N_26  and  C_28
REMARK                            x       y       z     vdW  Elec       q    Type
REMARK                         _______ _______ _______ _____ _____    ______ ____
ROOT
ATOM      1  N   UNL     1      33.683  -8.376 -23.887  0.00  0.00    -0.164 N 
ATOM      2  N   UNL     1      33.992  -7.273 -24.590  0.00  0.00    -0.170 NA
ATOM      3  N   UNL     1      33.664 -10.729 -23.693  0.00  0.00    -0.370 NA
ATOM      4  N   UNL     1      34.898 -10.908 -26.206  0.00  0.00    -0.256 NA
ATOM      5  C   UNL     1      33.086  -8.122 -22.682  0.00  0.00    +0.079 C 
ATOM      6  C   UNL     1      33.001  -6.737 -22.599  0.00  0.00    +0.036 C 
ATOM      7  C   UNL     1      32.052  -8.376 -20.550  0.00  0.00    +0.046 C 
ATOM      8  C   UNL     1      32.623  -8.975 -21.677  0.00  0.00    +0.031 C 
ATOM      9  C   UNL     1      32.425  -6.149 -21.460  0.00  0.00    +0.004 C 
ATOM     10  C   UNL     1      31.953  -6.987 -20.441  0.00  0.00    +0.014 C 
ATOM     11  C   UNL     1      33.981  -9.633 -24.412  0.00  0.00    +0.209 C 
ATOM     12  C   UNL     1      33.575  -6.279 -23.804  0.00  0.00    +0.120 C 
ATOM     13  C   UNL     1      33.975 -11.915 -24.253  0.00  0.00    +0.211 C 
ATOM     14  C   UNL     1      34.587  -9.722 -25.645  0.00  0.00    +0.202 C 
ATOM     15  C   UNL     1      34.581 -12.003 -25.487  0.00  0.00    +0.142 C 
ATOM     16  N   UNL     1      33.675 -13.077 -23.564  0.00  0.00    -0.238 N 
ATOM     17  C   UNL     1      32.952 -14.461 -21.985  0.00  0.00    +0.005 C 
ATOM     18  C   UNL     1      33.078 -13.135 -22.332  0.00  0.00    +0.068 C 
ATOM     19  C   UNL     1      33.934 -14.348 -24.009  0.00  0.00    +0.072 C 
ATOM     20  C   UNL     1      33.494 -15.230 -23.046  0.00  0.00    +0.014 C 
ENDROOT
BRANCH   7  21
ATOM     21  N   UNL     1      31.567  -9.191 -19.503  0.00  0.00    -0.334 N 
ATOM     22  H   UNL     1      31.158  -8.759 -18.718  0.00  0.00    +0.147 HD
BRANCH  21  23
ATOM     23  C   UNL     1      31.646 -10.618 -19.533  0.00  0.00    +0.069 C 
ATOM     24  C   UNL     1      30.624 -11.155 -20.526  0.00  0.00    +0.021 C 
ATOM     25  C   UNL     1      31.404 -11.171 -18.135  0.00  0.00    +0.021 C 
ENDBRANCH  21  23
ENDBRANCH   7  21
BRANCH  17  26
ATOM     26  C   UNL     1      32.365 -14.986 -20.738  0.00  0.00    +0.137 C 
BRANCH  26  28
ATOM     27  O   UNL     1      33.377 -17.184 -20.810  0.00  0.00    -0.250 OA
ATOM     28  C   UNL     1      32.365 -16.500 -20.713  0.00  0.00    +0.318 C 
BRANCH  28  29
ATOM     29  O   UNL     1      31.119 -17.025 -20.620  0.00  0.00    -0.480 OA
ATOM     30  H   UNL     1      30.772 -17.263 -19.782  0.00  0.00    +0.295 HD
ENDBRANCH  28  29
ENDBRANCH  26  28
ENDBRANCH  17  26
TORSDOF 5
ENDMDL
MODEL 7
REMARK VINA RESULT:      -8.1     16.488     20.742
REMARK  Name = 16224058
REMARK  5 active torsions:
REMARK  status: ('A' for Active; 'I' for Inactive)
REMARK    1  A    between atoms: C_7  and  N_26
REMARK    2  A    between atoms: C_17  and  C_21
REMARK    3  A    between atoms: C_21  and  C_23
REMARK    4  A    between atoms: C_23  and  O_24
REMARK    5  A    between atoms: N_26  and  C_28
REMARK                            x       y       z     vdW  Elec       q    Type
REMARK                         _______ _______ _______ _____ _____    ______ ____
ROOT
ATOM      1  N   UNL     1      31.444  -4.849 -23.679  0.00  0.00    -0.164 N 
ATOM      2  N   UNL     1      30.415  -4.589 -22.856  0.00  0.00    -0.170 NA
ATOM      3  N   UNL     1      32.747  -4.263 -25.559  0.00  0.00    -0.370 NA
ATOM      4  N   UNL     1      31.114  -2.014 -25.941  0.00  0.00    -0.256 NA
ATOM      5  C   UNL     1      32.145  -5.981 -23.361  0.00  0.00    +0.079 C 
ATOM      6  C   UNL     1      31.513  -6.499 -22.235  0.00  0.00    +0.036 C 
ATOM      7  C   UNL     1      33.731  -7.759 -23.364  0.00  0.00    +0.046 C 
ATOM      8  C   UNL     1      33.257  -6.584 -23.954  0.00  0.00    +0.031 C 
ATOM      9  C   UNL     1      32.000  -7.681 -21.654  0.00  0.00    +0.004 C 
ATOM     10  C   UNL     1      33.115  -8.301 -22.233  0.00  0.00    +0.014 C 
ATOM     11  C   UNL     1      31.710  -3.987 -24.743  0.00  0.00    +0.209 C 
ATOM     12  C   UNL     1      30.459  -5.595 -21.979  0.00  0.00    +0.120 C 
ATOM     13  C   UNL     1      32.952  -3.394 -26.570  0.00  0.00    +0.211 C 
ATOM     14  C   UNL     1      30.909  -2.882 -24.930  0.00  0.00    +0.202 C 
ATOM     15  C   UNL     1      32.151  -2.290 -26.757  0.00  0.00    +0.142 C 
ATOM     16  N   UNL     1      34.002  -3.622 -27.443  0.00  0.00    -0.238 N 
ATOM     17  C   UNL     1      35.773  -4.552 -28.408  0.00  0.00    +0.005 C 
ATOM     18  C   UNL     1      34.875  -4.675 -27.371  0.00  0.00    +0.068 C 
ATOM     19  C   UNL     1      34.329  -2.826 -28.510  0.00  0.00    +0.072 C 
ATOM     20  C   UNL     1      35.427  -3.381 -29.129  0.00  0.00    +0.014 C 
ENDROOT
BRANCH   7  21
ATOM     21  N   UNL     1      34.854  -8.410 -23.923  0.00  0.00    -0.334 N 
ATOM     22  H   UNL     1      35.657  -7.877 -24.125  0.00  0.00    +0.147 HD
BRANCH  21  23
ATOM     23  C   UNL     1      34.874  -9.811 -24.207  0.00  0.00    +0.069 C 
ATOM     24  C   UNL     1      35.544 -10.039 -25.556  0.00  0.00    +0.021 C 
ATOM     25  C   UNL     1      33.450 -10.353 -24.196  0.00  0.00    +0.021 C 
ENDBRANCH  21  23
ENDBRANCH   7  21
BRANCH  17  26
ATOM     26  C   UNL     1      36.889  -5.467 -28.711  0.00  0.00    +0.137 C 
BRANCH  26  28
ATOM     27  O   UNL     1      39.069  -4.704 -29.440  0.00  0.00    -0.250 OA
ATOM     28  C   UNL     1      38.231  -4.783 -28.550  0.00  0.00    +0.318 C 
BRANCH  28  29
ATOM     29  O   UNL     1      38.432  -4.306 -27.296  0.00  0.00    -0.480 OA
ATOM     30  H   UNL     1      37.762  -4.399 -26.647  0.00  0.00    +0.295 HD
ENDBRANCH  28  29
ENDBRANCH  26  28
ENDBRANCH  17  26
TORSDOF 5
ENDMDL
