MODEL 1
REMARK VINA RESULT:      -5.8      0.000      0.000
REMARK  Name = 649
REMARK  0 active torsions:
REMARK  status: ('A' for Active; 'I' for Inactive)
REMARK                            x       y       z     vdW  Elec       q    Type
REMARK                         _______ _______ _______ _____ _____    ______ ____
ROOT
ATOM      1  O   UNL     1      36.861 -26.409 -11.639  0.00  0.00    -0.275 OA
ATOM      2  O   UNL     1      36.672 -27.327 -16.156  0.00  0.00    -0.252 OA
ATOM      3  N   UNL     1      38.072 -25.652 -15.437  0.00  0.00    -0.288 N 
ATOM      4  N   UNL     1      36.696 -26.787 -13.914  0.00  0.00    -0.240 N 
ATOM      5  C   UNL     1      38.433 -24.720 -14.392  0.00  0.00    +0.101 C 
ATOM      6  C   UNL     1      38.531 -25.426 -13.057  0.00  0.00    +0.107 C 
ATOM      7  C   UNL     1      37.278 -26.222 -12.781  0.00  0.00    +0.231 C 
ATOM      8  C   UNL     1      37.113 -26.634 -15.239  0.00  0.00    +0.306 C 
ATOM      9  H   UNL     1      38.518 -25.588 -16.312  0.00  0.00    +0.151 HD
ATOM     10  H   UNL     1      35.908 -27.357 -13.765  0.00  0.00    +0.159 HD
ENDROOT
TORSDOF 0
ENDMDL
MODEL 2
REMARK VINA RESULT:      -5.4      3.750      4.435
REMARK  Name = 649
REMARK  0 active torsions:
REMARK  status: ('A' for Active; 'I' for Inactive)
REMARK                            x       y       z     vdW  Elec       q    Type
REMARK                         _______ _______ _______ _____ _____    ______ ____
ROOT
ATOM      1  O   UNL     1      38.435 -22.338 -11.853  0.00  0.00    -0.275 OA
ATOM      2  O   UNL     1      35.207 -24.968  -9.867  0.00  0.00    -0.252 OA
ATOM      3  N   UNL     1      35.163 -24.718 -12.151  0.00  0.00    -0.288 N 
ATOM      4  N   UNL     1      36.750 -23.571 -10.861  0.00  0.00    -0.240 N 
ATOM      5  C   UNL     1      35.582 -23.963 -13.311  0.00  0.00    +0.101 C 
ATOM      6  C   UNL     1      37.075 -23.713 -13.275  0.00  0.00    +0.107 C 
ATOM      7  C   UNL     1      37.484 -23.111 -11.952  0.00  0.00    +0.231 C 
ATOM      8  C   UNL     1      35.667 -24.455 -10.887  0.00  0.00    +0.306 C 
ATOM      9  H   UNL     1      34.502 -25.439 -12.262  0.00  0.00    +0.151 HD
ATOM     10  H   UNL     1      37.025 -23.240  -9.976  0.00  0.00    +0.159 HD
ENDROOT
TORSDOF 0
ENDMDL
MODEL 3
REMARK VINA RESULT:      -5.4      1.753      2.410
REMARK  Name = 649
REMARK  0 active torsions:
REMARK  status: ('A' for Active; 'I' for Inactive)
REMARK                            x       y       z     vdW  Elec       q    Type
REMARK                         _______ _______ _______ _____ _____    ______ ____
ROOT
ATOM      1  O   UNL     1      37.877 -23.140 -14.589  0.00  0.00    -0.275 OA
ATOM      2  O   UNL     1      36.726 -27.327 -16.145  0.00  0.00    -0.252 OA
ATOM      3  N   UNL     1      36.810 -26.988 -13.874  0.00  0.00    -0.288 N 
ATOM      4  N   UNL     1      37.403 -25.269 -15.354  0.00  0.00    -0.240 N 
ATOM      5  C   UNL     1      37.280 -26.180 -12.771  0.00  0.00    +0.101 C 
ATOM      6  C   UNL     1      36.981 -24.716 -13.015  0.00  0.00    +0.107 C 
ATOM      7  C   UNL     1      37.491 -24.286 -14.370  0.00  0.00    +0.231 C 
ATOM      8  C   UNL     1      36.966 -26.587 -15.191  0.00  0.00    +0.306 C 
ATOM      9  H   UNL     1      36.368 -27.847 -13.684  0.00  0.00    +0.151 HD
ATOM     10  H   UNL     1      37.677 -25.007 -16.262  0.00  0.00    +0.159 HD
ENDROOT
TORSDOF 0
ENDMDL
MODEL 4
REMARK VINA RESULT:      -5.3      2.172      2.302
REMARK  Name = 649
REMARK  0 active torsions:
REMARK  status: ('A' for Active; 'I' for Inactive)
REMARK                            x       y       z     vdW  Elec       q    Type
REMARK                         _______ _______ _______ _____ _____    ______ ____
ROOT
ATOM      1  O   UNL     1      37.530 -26.124 -11.979  0.00  0.00    -0.275 OA
ATOM      2  O   UNL     1      40.896 -26.171 -15.133  0.00  0.00    -0.252 OA
ATOM      3  N   UNL     1      39.205 -24.631 -15.359  0.00  0.00    -0.288 N 
ATOM      4  N   UNL     1      39.153 -26.207 -13.624  0.00  0.00    -0.240 N 
ATOM      5  C   UNL     1      37.863 -24.222 -15.009  0.00  0.00    +0.101 C 
ATOM      6  C   UNL     1      37.662 -24.278 -13.509  0.00  0.00    +0.107 C 
ATOM      7  C   UNL     1      38.069 -25.627 -12.966  0.00  0.00    +0.231 C 
ATOM      8  C   UNL     1      39.827 -25.704 -14.740  0.00  0.00    +0.306 C 
ATOM      9  H   UNL     1      39.691 -24.133 -16.056  0.00  0.00    +0.151 HD
ATOM     10  H   UNL     1      39.479 -27.062 -13.262  0.00  0.00    +0.159 HD
ENDROOT
TORSDOF 0
ENDMDL
MODEL 5
REMARK VINA RESULT:      -5.3      7.488      8.408
REMARK  Name = 649
REMARK  0 active torsions:
REMARK  status: ('A' for Active; 'I' for Inactive)
REMARK                            x       y       z     vdW  Elec       q    Type
REMARK                         _______ _______ _______ _____ _____    ______ ____
ROOT
ATOM      1  O   UNL     1      36.619 -20.153 -19.882  0.00  0.00    -0.275 OA
ATOM      2  O   UNL     1      33.832 -23.694 -18.893  0.00  0.00    -0.252 OA
ATOM      3  N   UNL     1      32.915 -21.807 -19.832  0.00  0.00    -0.288 N 
ATOM      4  N   UNL     1      35.196 -21.878 -19.294  0.00  0.00    -0.240 N 
ATOM      5  C   UNL     1      33.043 -20.399 -20.129  0.00  0.00    +0.101 C 
ATOM      6  C   UNL     1      34.386 -20.106 -20.764  0.00  0.00    +0.107 C 
ATOM      7  C   UNL     1      35.507 -20.677 -19.928  0.00  0.00    +0.231 C 
ATOM      8  C   UNL     1      33.966 -22.542 -19.306  0.00  0.00    +0.306 C 
ATOM      9  H   UNL     1      32.058 -22.258 -20.009  0.00  0.00    +0.151 HD
ATOM     10  H   UNL     1      35.920 -22.305 -18.784  0.00  0.00    +0.159 HD
ENDROOT
TORSDOF 0
ENDMDL
MODEL 6
REMARK VINA RESULT:      -5.3      1.115      2.944
REMARK  Name = 649
REMARK  0 active torsions:
REMARK  status: ('A' for Active; 'I' for Inactive)
REMARK                            x       y       z     vdW  Elec       q    Type
REMARK                         _______ _______ _______ _____ _____    ______ ____
ROOT
ATOM      1  O   UNL     1      36.834 -27.156 -15.924  0.00  0.00    -0.275 OA
ATOM      2  O   UNL     1      36.433 -25.817 -11.527  0.00  0.00    -0.252 OA
ATOM      3  N   UNL     1      38.383 -25.336 -12.646  0.00  0.00    -0.288 N 
ATOM      4  N   UNL     1      36.688 -26.574 -13.691  0.00  0.00    -0.240 N 
ATOM      5  C   UNL     1      39.255 -25.612 -13.765  0.00  0.00    +0.101 C 
ATOM      6  C   UNL     1      38.473 -25.628 -15.061  0.00  0.00    +0.107 C 
ATOM      7  C   UNL     1      37.279 -26.547 -14.953  0.00  0.00    +0.231 C 
ATOM      8  C   UNL     1      37.123 -25.905 -12.544  0.00  0.00    +0.306 C 
ATOM      9  H   UNL     1      38.692 -24.728 -11.936  0.00  0.00    +0.151 HD
ATOM     10  H   UNL     1      35.876 -27.121 -13.599  0.00  0.00    +0.159 HD
ENDROOT
TORSDOF 0
ENDMDL
MODEL 7
REMARK VINA RESULT:      -5.2      2.079      2.855
REMARK  Name = 649
REMARK  0 active torsions:
REMARK  status: ('A' for Active; 'I' for Inactive)
REMARK                            x       y       z     vdW  Elec       q    Type
REMARK                         _______ _______ _______ _____ _____    ______ ____
ROOT
ATOM      1  O   UNL     1      36.029 -25.110 -15.421  0.00  0.00    -0.275 OA
ATOM      2  O   UNL     1      40.568 -25.935 -15.435  0.00  0.00    -0.252 OA
ATOM      3  N   UNL     1      39.452 -25.983 -13.426  0.00  0.00    -0.288 N 
ATOM      4  N   UNL     1      38.320 -25.420 -15.400  0.00  0.00    -0.240 N 
ATOM      5  C   UNL     1      38.279 -25.616 -12.666  0.00  0.00    +0.101 C 
ATOM      6  C   UNL     1      37.018 -25.988 -13.417  0.00  0.00    +0.107 C 
ATOM      7  C   UNL     1      37.052 -25.438 -14.823  0.00  0.00    +0.231 C 
ATOM      8  C   UNL     1      39.526 -25.786 -14.796  0.00  0.00    +0.306 C 
ATOM      9  H   UNL     1      40.221 -26.383 -12.958  0.00  0.00    +0.151 HD
ATOM     10  H   UNL     1      38.372 -25.118 -16.335  0.00  0.00    +0.159 HD
ENDROOT
TORSDOF 0
ENDMDL
MODEL 8
REMARK VINA RESULT:      -5.0      2.463      2.967
REMARK  Name = 649
REMARK  0 active torsions:
REMARK  status: ('A' for Active; 'I' for Inactive)
REMARK                            x       y       z     vdW  Elec       q    Type
REMARK                         _______ _______ _______ _____ _____    ______ ____
ROOT
ATOM      1  O   UNL     1      38.939 -23.210 -11.607  0.00  0.00    -0.275 OA
ATOM      2  O   UNL     1      37.496 -27.011 -13.788  0.00  0.00    -0.252 OA
ATOM      3  N   UNL     1      35.924 -25.491 -13.080  0.00  0.00    -0.288 N 
ATOM      4  N   UNL     1      38.196 -25.160 -12.603  0.00  0.00    -0.240 N 
ATOM      5  C   UNL     1      35.596 -24.375 -12.222  0.00  0.00    +0.101 C 
ATOM      6  C   UNL     1      36.649 -23.293 -12.326  0.00  0.00    +0.107 C 
ATOM      7  C   UNL     1      38.029 -23.867 -12.109  0.00  0.00    +0.231 C 
ATOM      8  C   UNL     1      37.221 -25.966 -13.197  0.00  0.00    +0.306 C 
ATOM      9  H   UNL     1      35.207 -25.925 -13.597  0.00  0.00    +0.151 HD
ATOM     10  H   UNL     1      39.098 -25.545 -12.527  0.00  0.00    +0.159 HD
ENDROOT
TORSDOF 0
ENDMDL
MODEL 9
REMARK VINA RESULT:      -4.9      7.430      8.368
REMARK  Name = 649
REMARK  0 active torsions:
REMARK  status: ('A' for Active; 'I' for Inactive)
REMARK                            x       y       z     vdW  Elec       q    Type
REMARK                         _______ _______ _______ _____ _____    ______ ____
ROOT
ATOM      1  O   UNL     1      32.306 -20.281 -20.920  0.00  0.00    -0.275 OA
ATOM      2  O   UNL     1      33.880 -23.341 -17.847  0.00  0.00    -0.252 OA
ATOM      3  N   UNL     1      35.404 -22.066 -19.003  0.00  0.00    -0.288 N 
ATOM      4  N   UNL     1      33.112 -21.884 -19.461  0.00  0.00    -0.240 N 
ATOM      5  C   UNL     1      35.685 -21.226 -20.145  0.00  0.00    +0.101 C 
ATOM      6  C   UNL     1      34.622 -20.158 -20.296  0.00  0.00    +0.107 C 
ATOM      7  C   UNL     1      33.243 -20.774 -20.294  0.00  0.00    +0.231 C 
ATOM      8  C   UNL     1      34.120 -22.496 -18.710  0.00  0.00    +0.306 C 
ATOM      9  H   UNL     1      36.146 -22.342 -18.416  0.00  0.00    +0.151 HD
ATOM     10  H   UNL     1      32.214 -22.278 -19.394  0.00  0.00    +0.159 HD
ENDROOT
TORSDOF 0
ENDMDL
