MODEL 1
REMARK VINA RESULT:      -8.4      0.000      0.000
REMARK  Name = 4369426
REMARK  11 active torsions:
REMARK  status: ('A' for Active; 'I' for Inactive)
REMARK    1  A    between atoms: O_1  and  P_2
REMARK    2  A    between atoms: O_1  and  C_12
REMARK    3  A    between atoms: P_2  and  O_4
REMARK    4  A    between atoms: P_2  and  C_6
REMARK    5  A    between atoms: C_6  and  C_7
REMARK    6  A    between atoms: C_7  and  C_8
REMARK    7  A    between atoms: C_8  and  C_9
REMARK    8  A    between atoms: C_9  and  C_10
REMARK    9  A    between atoms: C_12  and  C_13
REMARK   10  A    between atoms: C_13  and  C_15
REMARK   11  A    between atoms: C_15  and  C_16
REMARK                            x       y       z     vdW  Elec       q    Type
REMARK                         _______ _______ _______ _____ _____    ______ ____
ROOT
ATOM      1  O   UNL     1      34.972 -15.318 -23.182  0.00  0.00    -0.294 OA
ENDROOT
BRANCH   1   2
ATOM      2  P   UNL     1      33.759 -14.346 -23.603  0.00  0.00    +0.340 P 
ATOM      3  O   UNL     1      33.019 -14.750 -24.833  0.00  0.00    -0.258 OA
BRANCH   2   4
ATOM      4  O   UNL     1      34.407 -12.872 -23.654  0.00  0.00    -0.323 OA
ATOM      5  H   UNL     1      35.352 -12.927 -23.441  0.00  0.00    +0.220 HD
ENDBRANCH   2   4
BRANCH   2   6
ATOM      6  C   UNL     1      32.700 -14.270 -22.141  0.00  0.00    +0.116 C 
BRANCH   6   7
ATOM      7  C   UNL     1      31.958 -12.949 -21.993  0.00  0.00    +0.013 C 
BRANCH   7   8
ATOM      8  C   UNL     1      31.996 -12.422 -20.557  0.00  0.00    +0.001 C 
BRANCH   8   9
ATOM      9  C   UNL     1      31.015 -11.263 -20.365  0.00  0.00    +0.000 C 
BRANCH   9  10
ATOM     10  C   UNL     1      31.506 -10.292 -19.291  0.00  0.00    +0.000 C 
ATOM     11  C   UNL     1      32.142  -9.056 -19.906  0.00  0.00    +0.000 C 
ENDBRANCH   9  10
ENDBRANCH   8   9
ENDBRANCH   7   8
ENDBRANCH   6   7
ENDBRANCH   2   6
ENDBRANCH   1   2
BRANCH   1  12
ATOM     12  C   UNL     1      34.858 -16.215 -22.093  0.00  0.00    +0.152 C 
BRANCH  12  13
ATOM     13  C   UNL     1      34.782 -17.669 -22.586  0.00  0.00    +0.035 C 
ATOM     14  C   UNL     1      35.137 -17.746 -24.075  0.00  0.00    +0.003 C 
BRANCH  13  15
ATOM     15  C   UNL     1      35.704 -18.620 -21.794  0.00  0.00    +0.029 C 
BRANCH  15  16
ATOM     16  C   UNL     1      34.961 -19.641 -20.966  0.00  0.00    -0.022 C 
ATOM     17  C   UNL     1      35.667 -20.622 -20.270  0.00  0.00    -0.004 C 
ATOM     18  C   UNL     1      33.568 -19.603 -20.897  0.00  0.00    -0.004 C 
ATOM     19  C   UNL     1      34.980 -21.565 -19.505  0.00  0.00    -0.000 C 
ATOM     20  C   UNL     1      32.882 -20.546 -20.132  0.00  0.00    -0.000 C 
ATOM     21  C   UNL     1      33.588 -21.527 -19.436  0.00  0.00    -0.000 C 
ENDBRANCH  15  16
ENDBRANCH  13  15
ENDBRANCH  12  13
ENDBRANCH   1  12
TORSDOF 11
ENDMDL
MODEL 2
REMARK VINA RESULT:      -8.4      0.849      1.562
REMARK  Name = 4369426
REMARK  11 active torsions:
REMARK  status: ('A' for Active; 'I' for Inactive)
REMARK    1  A    between atoms: O_1  and  P_2
REMARK    2  A    between atoms: O_1  and  C_12
REMARK    3  A    between atoms: P_2  and  O_4
REMARK    4  A    between atoms: P_2  and  C_6
REMARK    5  A    between atoms: C_6  and  C_7
REMARK    6  A    between atoms: C_7  and  C_8
REMARK    7  A    between atoms: C_8  and  C_9
REMARK    8  A    between atoms: C_9  and  C_10
REMARK    9  A    between atoms: C_12  and  C_13
REMARK   10  A    between atoms: C_13  and  C_15
REMARK   11  A    between atoms: C_15  and  C_16
REMARK                            x       y       z     vdW  Elec       q    Type
REMARK                         _______ _______ _______ _____ _____    ______ ____
ROOT
ATOM      1  O   UNL     1      34.896 -15.786 -23.417  0.00  0.00    -0.294 OA
ENDROOT
BRANCH   1   2
ATOM      2  P   UNL     1      33.747 -14.682 -23.651  0.00  0.00    +0.340 P 
ATOM      3  O   UNL     1      33.032 -14.776 -24.956  0.00  0.00    -0.258 OA
BRANCH   2   4
ATOM      4  O   UNL     1      34.469 -13.269 -23.372  0.00  0.00    -0.323 OA
ATOM      5  H   UNL     1      34.060 -12.582 -23.923  0.00  0.00    +0.220 HD
ENDBRANCH   2   4
BRANCH   2   6
ATOM      6  C   UNL     1      32.644 -14.856 -22.232  0.00  0.00    +0.116 C 
BRANCH   6   7
ATOM      7  C   UNL     1      33.199 -14.254 -20.948  0.00  0.00    +0.013 C 
BRANCH   7   8
ATOM      8  C   UNL     1      32.227 -13.262 -20.307  0.00  0.00    +0.001 C 
BRANCH   8   9
ATOM      9  C   UNL     1      31.793 -12.186 -21.305  0.00  0.00    +0.000 C 
BRANCH   9  10
ATOM     10  C   UNL     1      30.833 -11.186 -20.661  0.00  0.00    +0.000 C 
ATOM     11  C   UNL     1      31.342 -10.720 -19.306  0.00  0.00    +0.000 C 
ENDBRANCH   9  10
ENDBRANCH   8   9
ENDBRANCH   7   8
ENDBRANCH   6   7
ENDBRANCH   2   6
ENDBRANCH   1   2
BRANCH   1  12
ATOM     12  C   UNL     1      35.005 -16.928 -24.247  0.00  0.00    +0.152 C 
BRANCH  12  13
ATOM     13  C   UNL     1      34.629 -18.204 -23.478  0.00  0.00    +0.035 C 
ATOM     14  C   UNL     1      34.875 -19.442 -24.348  0.00  0.00    +0.003 C 
BRANCH  13  15
ATOM     15  C   UNL     1      35.402 -18.355 -22.150  0.00  0.00    +0.029 C 
BRANCH  15  16
ATOM     16  C   UNL     1      34.833 -19.406 -21.229  0.00  0.00    -0.022 C 
ATOM     17  C   UNL     1      33.456 -19.469 -21.008  0.00  0.00    -0.004 C 
ATOM     18  C   UNL     1      35.682 -20.317 -20.600  0.00  0.00    -0.004 C 
ATOM     19  C   UNL     1      32.931 -20.442 -20.158  0.00  0.00    -0.000 C 
ATOM     20  C   UNL     1      35.156 -21.289 -19.750  0.00  0.00    -0.000 C 
ATOM     21  C   UNL     1      33.780 -21.352 -19.528  0.00  0.00    -0.000 C 
ENDBRANCH  15  16
ENDBRANCH  13  15
ENDBRANCH  12  13
ENDBRANCH   1  12
TORSDOF 11
ENDMDL
MODEL 3
REMARK VINA RESULT:      -8.4      1.413      1.918
REMARK  Name = 4369426
REMARK  11 active torsions:
REMARK  status: ('A' for Active; 'I' for Inactive)
REMARK    1  A    between atoms: O_1  and  P_2
REMARK    2  A    between atoms: O_1  and  C_12
REMARK    3  A    between atoms: P_2  and  O_4
REMARK    4  A    between atoms: P_2  and  C_6
REMARK    5  A    between atoms: C_6  and  C_7
REMARK    6  A    between atoms: C_7  and  C_8
REMARK    7  A    between atoms: C_8  and  C_9
REMARK    8  A    between atoms: C_9  and  C_10
REMARK    9  A    between atoms: C_12  and  C_13
REMARK   10  A    between atoms: C_13  and  C_15
REMARK   11  A    between atoms: C_15  and  C_16
REMARK                            x       y       z     vdW  Elec       q    Type
REMARK                         _______ _______ _______ _____ _____    ______ ____
ROOT
ATOM      1  O   UNL     1      33.828 -15.648 -22.646  0.00  0.00    -0.294 OA
ENDROOT
BRANCH   1   2
ATOM      2  P   UNL     1      33.558 -15.341 -21.089  0.00  0.00    +0.340 P 
ATOM      3  O   UNL     1      34.772 -15.338 -20.222  0.00  0.00    -0.258 OA
BRANCH   2   4
ATOM      4  O   UNL     1      32.415 -16.389 -20.652  0.00  0.00    -0.323 OA
ATOM      5  H   UNL     1      32.714 -17.292 -20.843  0.00  0.00    +0.220 HD
ENDBRANCH   2   4
BRANCH   2   6
ATOM      6  C   UNL     1      32.682 -13.762 -21.075  0.00  0.00    +0.116 C 
BRANCH   6   7
ATOM      7  C   UNL     1      32.432 -13.189 -22.464  0.00  0.00    +0.013 C 
BRANCH   7   8
ATOM      8  C   UNL     1      31.978 -11.730 -22.415  0.00  0.00    +0.001 C 
BRANCH   8   9
ATOM      9  C   UNL     1      31.015 -11.486 -21.251  0.00  0.00    +0.000 C 
BRANCH   9  10
ATOM     10  C   UNL     1      31.524 -10.378 -20.330  0.00  0.00    +0.000 C 
ATOM     11  C   UNL     1      31.320 -10.733 -18.866  0.00  0.00    +0.000 C 
ENDBRANCH   9  10
ENDBRANCH   8   9
ENDBRANCH   7   8
ENDBRANCH   6   7
ENDBRANCH   2   6
ENDBRANCH   1   2
BRANCH   1  12
ATOM     12  C   UNL     1      34.957 -16.391 -23.070  0.00  0.00    +0.152 C 
BRANCH  12  13
ATOM     13  C   UNL     1      34.716 -17.899 -22.905  0.00  0.00    +0.035 C 
ATOM     14  C   UNL     1      34.871 -18.613 -24.253  0.00  0.00    +0.003 C 
BRANCH  13  15
ATOM     15  C   UNL     1      35.662 -18.550 -21.874  0.00  0.00    +0.029 C 
BRANCH  15  16
ATOM     16  C   UNL     1      34.999 -19.600 -21.015  0.00  0.00    -0.022 C 
ATOM     17  C   UNL     1      35.778 -20.535 -20.332  0.00  0.00    -0.004 C 
ATOM     18  C   UNL     1      33.609 -19.635 -20.904  0.00  0.00    -0.004 C 
ATOM     19  C   UNL     1      35.165 -21.505 -19.538  0.00  0.00    -0.000 C 
ATOM     20  C   UNL     1      32.998 -20.605 -20.109  0.00  0.00    -0.000 C 
ATOM     21  C   UNL     1      33.775 -21.540 -19.428  0.00  0.00    -0.000 C 
ENDBRANCH  15  16
ENDBRANCH  13  15
ENDBRANCH  12  13
ENDBRANCH   1  12
TORSDOF 11
ENDMDL
MODEL 4
REMARK VINA RESULT:      -8.3      2.464      3.056
REMARK  Name = 4369426
REMARK  11 active torsions:
REMARK  status: ('A' for Active; 'I' for Inactive)
REMARK    1  A    between atoms: O_1  and  P_2
REMARK    2  A    between atoms: O_1  and  C_12
REMARK    3  A    between atoms: P_2  and  O_4
REMARK    4  A    between atoms: P_2  and  C_6
REMARK    5  A    between atoms: C_6  and  C_7
REMARK    6  A    between atoms: C_7  and  C_8
REMARK    7  A    between atoms: C_8  and  C_9
REMARK    8  A    between atoms: C_9  and  C_10
REMARK    9  A    between atoms: C_12  and  C_13
REMARK   10  A    between atoms: C_13  and  C_15
REMARK   11  A    between atoms: C_15  and  C_16
REMARK                            x       y       z     vdW  Elec       q    Type
REMARK                         _______ _______ _______ _____ _____    ______ ____
ROOT
ATOM      1  O   UNL     1      33.868 -16.034 -22.888  0.00  0.00    -0.294 OA
ENDROOT
BRANCH   1   2
ATOM      2  P   UNL     1      33.368 -14.990 -21.769  0.00  0.00    +0.340 P 
ATOM      3  O   UNL     1      34.400 -14.584 -20.772  0.00  0.00    -0.258 OA
BRANCH   2   4
ATOM      4  O   UNL     1      32.043 -15.659 -21.141  0.00  0.00    -0.323 OA
ATOM      5  H   UNL     1      31.285 -15.070 -21.284  0.00  0.00    +0.220 HD
ENDBRANCH   2   4
BRANCH   2   6
ATOM      6  C   UNL     1      32.708 -13.593 -22.704  0.00  0.00    +0.116 C 
BRANCH   6   7
ATOM      7  C   UNL     1      33.526 -13.244 -23.940  0.00  0.00    +0.013 C 
BRANCH   7   8
ATOM      8  C   UNL     1      33.742 -11.736 -24.084  0.00  0.00    +0.001 C 
BRANCH   8   9
ATOM      9  C   UNL     1      34.260 -11.380 -25.479  0.00  0.00    +0.000 C 
BRANCH   9  10
ATOM     10  C   UNL     1      35.270 -10.235 -25.421  0.00  0.00    +0.000 C 
ATOM     11  C   UNL     1      34.934  -9.252 -24.311  0.00  0.00    +0.000 C 
ENDBRANCH   9  10
ENDBRANCH   8   9
ENDBRANCH   7   8
ENDBRANCH   6   7
ENDBRANCH   2   6
ENDBRANCH   1   2
BRANCH   1  12
ATOM     12  C   UNL     1      35.099 -16.723 -22.760  0.00  0.00    +0.152 C 
BRANCH  12  13
ATOM     13  C   UNL     1      34.869 -18.235 -22.612  0.00  0.00    +0.035 C 
ATOM     14  C   UNL     1      35.053 -18.936 -23.963  0.00  0.00    +0.003 C 
BRANCH  13  15
ATOM     15  C   UNL     1      35.805 -18.885 -21.571  0.00  0.00    +0.029 C 
BRANCH  15  16
ATOM     16  C   UNL     1      35.138 -19.947 -20.730  0.00  0.00    -0.022 C 
ATOM     17  C   UNL     1      35.913 -20.894 -20.060  0.00  0.00    -0.004 C 
ATOM     18  C   UNL     1      33.748 -19.979 -20.621  0.00  0.00    -0.004 C 
ATOM     19  C   UNL     1      35.296 -21.875 -19.282  0.00  0.00    -0.000 C 
ATOM     20  C   UNL     1      33.132 -20.960 -19.843  0.00  0.00    -0.000 C 
ATOM     21  C   UNL     1      33.906 -21.908 -19.175  0.00  0.00    -0.000 C 
ENDBRANCH  15  16
ENDBRANCH  13  15
ENDBRANCH  12  13
ENDBRANCH   1  12
TORSDOF 11
ENDMDL
MODEL 5
REMARK VINA RESULT:      -8.1      5.505      9.260
REMARK  Name = 4369426
REMARK  11 active torsions:
REMARK  status: ('A' for Active; 'I' for Inactive)
REMARK    1  A    between atoms: O_1  and  P_2
REMARK    2  A    between atoms: O_1  and  C_12
REMARK    3  A    between atoms: P_2  and  O_4
REMARK    4  A    between atoms: P_2  and  C_6
REMARK    5  A    between atoms: C_6  and  C_7
REMARK    6  A    between atoms: C_7  and  C_8
REMARK    7  A    between atoms: C_8  and  C_9
REMARK    8  A    between atoms: C_9  and  C_10
REMARK    9  A    between atoms: C_12  and  C_13
REMARK   10  A    between atoms: C_13  and  C_15
REMARK   11  A    between atoms: C_15  and  C_16
REMARK                            x       y       z     vdW  Elec       q    Type
REMARK                         _______ _______ _______ _____ _____    ______ ____
ROOT
ATOM      1  O   UNL     1      33.716 -21.582 -19.108  0.00  0.00    -0.294 OA
ENDROOT
BRANCH   1   2
ATOM      2  P   UNL     1      33.903 -22.883 -18.177  0.00  0.00    +0.340 P 
ATOM      3  O   UNL     1      35.099 -22.859 -17.287  0.00  0.00    -0.258 OA
BRANCH   2   4
ATOM      4  O   UNL     1      33.836 -24.132 -19.192  0.00  0.00    -0.323 OA
ATOM      5  H   UNL     1      33.403 -23.857 -20.016  0.00  0.00    +0.220 HD
ENDBRANCH   2   4
BRANCH   2   6
ATOM      6  C   UNL     1      32.351 -23.024 -17.264  0.00  0.00    +0.116 C 
BRANCH   6   7
ATOM      7  C   UNL     1      32.536 -23.382 -15.796  0.00  0.00    +0.013 C 
BRANCH   7   8
ATOM      8  C   UNL     1      31.241 -23.233 -14.996  0.00  0.00    +0.001 C 
BRANCH   8   9
ATOM      9  C   UNL     1      30.040 -23.013 -15.919  0.00  0.00    +0.000 C 
BRANCH   9  10
ATOM     10  C   UNL     1      28.933 -24.029 -15.643  0.00  0.00    +0.000 C 
ATOM     11  C   UNL     1      29.429 -25.167 -14.764  0.00  0.00    +0.000 C 
ENDBRANCH   9  10
ENDBRANCH   8   9
ENDBRANCH   7   8
ENDBRANCH   6   7
ENDBRANCH   2   6
ENDBRANCH   1   2
BRANCH   1  12
ATOM     12  C   UNL     1      34.796 -21.036 -19.843  0.00  0.00    +0.152 C 
BRANCH  12  13
ATOM     13  C   UNL     1      34.288 -20.112 -20.961  0.00  0.00    +0.035 C 
ATOM     14  C   UNL     1      32.874 -19.615 -20.639  0.00  0.00    +0.003 C 
BRANCH  13  15
ATOM     15  C   UNL     1      35.210 -18.898 -21.201  0.00  0.00    +0.029 C 
BRANCH  15  16
ATOM     16  C   UNL     1      35.013 -18.238 -22.544  0.00  0.00    -0.022 C 
ATOM     17  C   UNL     1      35.022 -16.847 -22.646  0.00  0.00    -0.004 C 
ATOM     18  C   UNL     1      34.823 -19.020 -23.684  0.00  0.00    -0.004 C 
ATOM     19  C   UNL     1      34.840 -16.237 -23.888  0.00  0.00    -0.000 C 
ATOM     20  C   UNL     1      34.642 -18.409 -24.925  0.00  0.00    -0.000 C 
ATOM     21  C   UNL     1      34.650 -17.019 -25.027  0.00  0.00    -0.000 C 
ENDBRANCH  15  16
ENDBRANCH  13  15
ENDBRANCH  12  13
ENDBRANCH   1  12
TORSDOF 11
ENDMDL
MODEL 6
REMARK VINA RESULT:      -7.9      1.739      2.808
REMARK  Name = 4369426
REMARK  11 active torsions:
REMARK  status: ('A' for Active; 'I' for Inactive)
REMARK    1  A    between atoms: O_1  and  P_2
REMARK    2  A    between atoms: O_1  and  C_12
REMARK    3  A    between atoms: P_2  and  O_4
REMARK    4  A    between atoms: P_2  and  C_6
REMARK    5  A    between atoms: C_6  and  C_7
REMARK    6  A    between atoms: C_7  and  C_8
REMARK    7  A    between atoms: C_8  and  C_9
REMARK    8  A    between atoms: C_9  and  C_10
REMARK    9  A    between atoms: C_12  and  C_13
REMARK   10  A    between atoms: C_13  and  C_15
REMARK   11  A    between atoms: C_15  and  C_16
REMARK                            x       y       z     vdW  Elec       q    Type
REMARK                         _______ _______ _______ _____ _____    ______ ____
ROOT
ATOM      1  O   UNL     1      33.969 -17.683 -23.705  0.00  0.00    -0.294 OA
ENDROOT
BRANCH   1   2
ATOM      2  P   UNL     1      34.603 -16.535 -24.640  0.00  0.00    +0.340 P 
ATOM      3  O   UNL     1      34.950 -16.963 -26.025  0.00  0.00    -0.258 OA
BRANCH   2   4
ATOM      4  O   UNL     1      35.830 -15.936 -23.785  0.00  0.00    -0.323 OA
ATOM      5  H   UNL     1      35.553 -15.112 -23.355  0.00  0.00    +0.220 HD
ENDBRANCH   2   4
BRANCH   2   6
ATOM      6  C   UNL     1      33.395 -15.192 -24.603  0.00  0.00    +0.116 C 
BRANCH   6   7
ATOM      7  C   UNL     1      33.905 -13.931 -23.918  0.00  0.00    +0.013 C 
BRANCH   7   8
ATOM      8  C   UNL     1      32.862 -13.320 -22.980  0.00  0.00    +0.001 C 
BRANCH   8   9
ATOM      9  C   UNL     1      32.486 -14.292 -21.860  0.00  0.00    +0.000 C 
BRANCH   9  10
ATOM     10  C   UNL     1      32.373 -13.574 -20.516  0.00  0.00    +0.000 C 
ATOM     11  C   UNL     1      31.769 -12.188 -20.675  0.00  0.00    +0.000 C 
ENDBRANCH   9  10
ENDBRANCH   8   9
ENDBRANCH   7   8
ENDBRANCH   6   7
ENDBRANCH   2   6
ENDBRANCH   1   2
BRANCH   1  12
ATOM     12  C   UNL     1      34.766 -18.724 -23.169  0.00  0.00    +0.152 C 
BRANCH  12  13
ATOM     13  C   UNL     1      34.656 -18.766 -21.637  0.00  0.00    +0.035 C 
ATOM     14  C   UNL     1      34.392 -17.361 -21.083  0.00  0.00    +0.003 C 
BRANCH  13  15
ATOM     15  C   UNL     1      33.551 -19.723 -21.140  0.00  0.00    +0.029 C 
BRANCH  15  16
ATOM     16  C   UNL     1      34.024 -20.716 -20.106  0.00  0.00    -0.022 C 
ATOM     17  C   UNL     1      33.096 -21.484 -19.402  0.00  0.00    -0.004 C 
ATOM     18  C   UNL     1      35.388 -20.865 -19.854  0.00  0.00    -0.004 C 
ATOM     19  C   UNL     1      33.533 -22.402 -18.446  0.00  0.00    -0.000 C 
ATOM     20  C   UNL     1      35.823 -21.783 -18.899  0.00  0.00    -0.000 C 
ATOM     21  C   UNL     1      34.896 -22.551 -18.194  0.00  0.00    -0.000 C 
ENDBRANCH  15  16
ENDBRANCH  13  15
ENDBRANCH  12  13
ENDBRANCH   1  12
TORSDOF 11
ENDMDL
MODEL 7
REMARK VINA RESULT:      -7.8      2.010      8.026
REMARK  Name = 4369426
REMARK  11 active torsions:
REMARK  status: ('A' for Active; 'I' for Inactive)
REMARK    1  A    between atoms: O_1  and  P_2
REMARK    2  A    between atoms: O_1  and  C_12
REMARK    3  A    between atoms: P_2  and  O_4
REMARK    4  A    between atoms: P_2  and  C_6
REMARK    5  A    between atoms: C_6  and  C_7
REMARK    6  A    between atoms: C_7  and  C_8
REMARK    7  A    between atoms: C_8  and  C_9
REMARK    8  A    between atoms: C_9  and  C_10
REMARK    9  A    between atoms: C_12  and  C_13
REMARK   10  A    between atoms: C_13  and  C_15
REMARK   11  A    between atoms: C_15  and  C_16
REMARK                            x       y       z     vdW  Elec       q    Type
REMARK                         _______ _______ _______ _____ _____    ______ ____
ROOT
ATOM      1  O   UNL     1      34.199 -13.044 -23.697  0.00  0.00    -0.294 OA
ENDROOT
BRANCH   1   2
ATOM      2  P   UNL     1      33.519 -14.502 -23.766  0.00  0.00    +0.340 P 
ATOM      3  O   UNL     1      33.116 -14.951 -25.129  0.00  0.00    -0.258 OA
BRANCH   2   4
ATOM      4  O   UNL     1      32.324 -14.452 -22.686  0.00  0.00    -0.323 OA
ATOM      5  H   UNL     1      32.211 -13.541 -22.370  0.00  0.00    +0.220 HD
ENDBRANCH   2   4
BRANCH   2   6
ATOM      6  C   UNL     1      34.717 -15.607 -22.988  0.00  0.00    +0.116 C 
BRANCH   6   7
ATOM      7  C   UNL     1      34.434 -15.877 -21.516  0.00  0.00    +0.013 C 
BRANCH   7   8
ATOM      8  C   UNL     1      35.047 -17.196 -21.042  0.00  0.00    +0.001 C 
BRANCH   8   9
ATOM      9  C   UNL     1      34.455 -18.387 -21.799  0.00  0.00    +0.000 C 
BRANCH   9  10
ATOM     10  C   UNL     1      34.323 -19.611 -20.893  0.00  0.00    +0.000 C 
ATOM     11  C   UNL     1      32.865 -19.943 -20.616  0.00  0.00    +0.000 C 
ENDBRANCH   9  10
ENDBRANCH   8   9
ENDBRANCH   7   8
ENDBRANCH   6   7
ENDBRANCH   2   6
ENDBRANCH   1   2
BRANCH   1  12
ATOM     12  C   UNL     1      33.715 -11.964 -24.474  0.00  0.00    +0.152 C 
BRANCH  12  13
ATOM     13  C   UNL     1      33.937 -10.625 -23.753  0.00  0.00    +0.035 C 
ATOM     14  C   UNL     1      34.858  -9.721 -24.581  0.00  0.00    +0.003 C 
BRANCH  13  15
ATOM     15  C   UNL     1      32.620  -9.876 -23.458  0.00  0.00    +0.029 C 
BRANCH  15  16
ATOM     16  C   UNL     1      32.143 -10.018 -22.033  0.00  0.00    -0.022 C 
ATOM     17  C   UNL     1      31.500 -11.188 -21.626  0.00  0.00    -0.004 C 
ATOM     18  C   UNL     1      32.347  -8.981 -21.122  0.00  0.00    -0.004 C 
ATOM     19  C   UNL     1      31.060 -11.319 -20.309  0.00  0.00    -0.000 C 
ATOM     20  C   UNL     1      31.907  -9.114 -19.806  0.00  0.00    -0.000 C 
ATOM     21  C   UNL     1      31.263 -10.282 -19.399  0.00  0.00    -0.000 C 
ENDBRANCH  15  16
ENDBRANCH  13  15
ENDBRANCH  12  13
ENDBRANCH   1  12
TORSDOF 11
ENDMDL
MODEL 8
REMARK VINA RESULT:      -7.8      1.749      7.980
REMARK  Name = 4369426
REMARK  11 active torsions:
REMARK  status: ('A' for Active; 'I' for Inactive)
REMARK    1  A    between atoms: O_1  and  P_2
REMARK    2  A    between atoms: O_1  and  C_12
REMARK    3  A    between atoms: P_2  and  O_4
REMARK    4  A    between atoms: P_2  and  C_6
REMARK    5  A    between atoms: C_6  and  C_7
REMARK    6  A    between atoms: C_7  and  C_8
REMARK    7  A    between atoms: C_8  and  C_9
REMARK    8  A    between atoms: C_9  and  C_10
REMARK    9  A    between atoms: C_12  and  C_13
REMARK   10  A    between atoms: C_13  and  C_15
REMARK   11  A    between atoms: C_15  and  C_16
REMARK                            x       y       z     vdW  Elec       q    Type
REMARK                         _______ _______ _______ _____ _____    ______ ____
ROOT
ATOM      1  O   UNL     1      34.763 -14.470 -22.304  0.00  0.00    -0.294 OA
ENDROOT
BRANCH   1   2
ATOM      2  P   UNL     1      34.224 -15.688 -21.398  0.00  0.00    +0.340 P 
ATOM      3  O   UNL     1      32.740 -15.796 -21.298  0.00  0.00    -0.258 OA
BRANCH   2   4
ATOM      4  O   UNL     1      34.990 -15.527 -19.990  0.00  0.00    -0.323 OA
ATOM      5  H   UNL     1      35.787 -14.987 -20.115  0.00  0.00    +0.220 HD
ENDBRANCH   2   4
BRANCH   2   6
ATOM      6  C   UNL     1      34.989 -17.163 -22.106  0.00  0.00    +0.116 C 
BRANCH   6   7
ATOM      7  C   UNL     1      35.200 -18.285 -21.098  0.00  0.00    +0.013 C 
BRANCH   7   8
ATOM      8  C   UNL     1      34.513 -19.583 -21.525  0.00  0.00    +0.001 C 
BRANCH   8   9
ATOM      9  C   UNL     1      33.148 -19.737 -20.850  0.00  0.00    +0.000 C 
BRANCH   9  10
ATOM     10  C   UNL     1      33.187 -20.802 -19.754  0.00  0.00    +0.000 C 
ATOM     11  C   UNL     1      34.543 -21.487 -19.692  0.00  0.00    +0.000 C 
ENDBRANCH   9  10
ENDBRANCH   8   9
ENDBRANCH   7   8
ENDBRANCH   6   7
ENDBRANCH   2   6
ENDBRANCH   1   2
BRANCH   1  12
ATOM     12  C   UNL     1      34.101 -14.083 -23.494  0.00  0.00    +0.152 C 
BRANCH  12  13
ATOM     13  C   UNL     1      33.613 -12.629 -23.403  0.00  0.00    +0.035 C 
ATOM     14  C   UNL     1      33.768 -11.930 -24.758  0.00  0.00    +0.003 C 
BRANCH  13  15
ATOM     15  C   UNL     1      32.146 -12.516 -22.937  0.00  0.00    +0.029 C 
BRANCH  15  16
ATOM     16  C   UNL     1      31.943 -11.560 -21.786  0.00  0.00    -0.022 C 
ATOM     17  C   UNL     1      31.742 -12.054 -20.497  0.00  0.00    -0.004 C 
ATOM     18  C   UNL     1      31.959 -10.184 -22.011  0.00  0.00    -0.004 C 
ATOM     19  C   UNL     1      31.555 -11.171 -19.433  0.00  0.00    -0.000 C 
ATOM     20  C   UNL     1      31.773  -9.301 -20.947  0.00  0.00    -0.000 C 
ATOM     21  C   UNL     1      31.571  -9.795 -19.658  0.00  0.00    -0.000 C 
ENDBRANCH  15  16
ENDBRANCH  13  15
ENDBRANCH  12  13
ENDBRANCH   1  12
TORSDOF 11
ENDMDL
MODEL 9
REMARK VINA RESULT:      -7.7      6.398      9.276
REMARK  Name = 4369426
REMARK  11 active torsions:
REMARK  status: ('A' for Active; 'I' for Inactive)
REMARK    1  A    between atoms: O_1  and  P_2
REMARK    2  A    between atoms: O_1  and  C_12
REMARK    3  A    between atoms: P_2  and  O_4
REMARK    4  A    between atoms: P_2  and  C_6
REMARK    5  A    between atoms: C_6  and  C_7
REMARK    6  A    between atoms: C_7  and  C_8
REMARK    7  A    between atoms: C_8  and  C_9
REMARK    8  A    between atoms: C_9  and  C_10
REMARK    9  A    between atoms: C_12  and  C_13
REMARK   10  A    between atoms: C_13  and  C_15
REMARK   11  A    between atoms: C_15  and  C_16
REMARK                            x       y       z     vdW  Elec       q    Type
REMARK                         _______ _______ _______ _____ _____    ______ ____
ROOT
ATOM      1  O   UNL     1      34.071 -23.710 -17.272  0.00  0.00    -0.294 OA
ENDROOT
BRANCH   1   2
ATOM      2  P   UNL     1      33.894 -22.822 -18.603  0.00  0.00    +0.340 P 
ATOM      3  O   UNL     1      32.655 -21.994 -18.654  0.00  0.00    -0.258 OA
BRANCH   2   4
ATOM      4  O   UNL     1      34.067 -23.862 -19.821  0.00  0.00    -0.323 OA
ATOM      5  H   UNL     1      33.235 -23.922 -20.316  0.00  0.00    +0.220 HD
ENDBRANCH   2   4
BRANCH   2   6
ATOM      6  C   UNL     1      35.403 -21.833 -18.702  0.00  0.00    +0.116 C 
BRANCH   6   7
ATOM      7  C   UNL     1      35.785 -21.443 -20.123  0.00  0.00    +0.013 C 
BRANCH   7   8
ATOM      8  C   UNL     1      35.032 -20.202 -20.606  0.00  0.00    +0.001 C 
BRANCH   8   9
ATOM      9  C   UNL     1      35.990 -19.041 -20.877  0.00  0.00    +0.000 C 
BRANCH   9  10
ATOM     10  C   UNL     1      35.924 -18.595 -22.337  0.00  0.00    +0.000 C 
ATOM     11  C   UNL     1      34.695 -19.155 -23.035  0.00  0.00    +0.000 C 
ENDBRANCH   9  10
ENDBRANCH   8   9
ENDBRANCH   7   8
ENDBRANCH   6   7
ENDBRANCH   2   6
ENDBRANCH   1   2
BRANCH   1  12
ATOM     12  C   UNL     1      34.317 -23.114 -16.011  0.00  0.00    +0.152 C 
BRANCH  12  13
ATOM     13  C   UNL     1      33.589 -23.875 -14.893  0.00  0.00    +0.035 C 
ATOM     14  C   UNL     1      34.558 -24.196 -13.749  0.00  0.00    +0.003 C 
BRANCH  13  15
ATOM     15  C   UNL     1      32.377 -23.102 -14.330  0.00  0.00    +0.029 C 
BRANCH  15  16
ATOM     16  C   UNL     1      31.054 -23.530 -14.916  0.00  0.00    -0.022 C 
ATOM     17  C   UNL     1      30.354 -24.597 -14.351  0.00  0.00    -0.004 C 
ATOM     18  C   UNL     1      30.530 -22.859 -16.021  0.00  0.00    -0.004 C 
ATOM     19  C   UNL     1      29.130 -24.992 -14.893  0.00  0.00    -0.000 C 
ATOM     20  C   UNL     1      29.306 -23.254 -16.561  0.00  0.00    -0.000 C 
ATOM     21  C   UNL     1      28.607 -24.321 -15.998  0.00  0.00    -0.000 C 
ENDBRANCH  15  16
ENDBRANCH  13  15
ENDBRANCH  12  13
ENDBRANCH   1  12
TORSDOF 11
ENDMDL
