MODEL 1
REMARK VINA RESULT:      -9.7      0.000      0.000
REMARK  Name = 11349402
REMARK  6 active torsions:
REMARK  status: ('A' for Active; 'I' for Inactive)
REMARK    1  A    between atoms: C_2  and  C_25
REMARK    2  A    between atoms: C_8  and  S_13
REMARK    3  A    between atoms: S_13  and  N_16
REMARK    4  A    between atoms: N_16  and  C_18
REMARK    5  A    between atoms: C_18  and  C_19
REMARK    6  A    between atoms: C_19  and  C_23
REMARK                            x       y       z     vdW  Elec       q    Type
REMARK                         _______ _______ _______ _____ _____    ______ ____
ROOT
ATOM      1  N   UNL     1      36.387 -18.132 -22.392  0.00  0.00    +0.390 N 
ATOM      2  C   UNL     1      35.331 -17.147 -22.135  0.00  0.00    -0.021 C 
ATOM      3  C   UNL     1      33.968 -17.857 -22.074  0.00  0.00    +0.007 C 
ATOM      4  C   UNL     1      33.988 -19.076 -21.187  0.00  0.00    -0.030 C 
ATOM      5  C   UNL     1      35.209 -19.677 -20.835  0.00  0.00    -0.046 C 
ATOM      6  C   UNL     1      36.517 -19.060 -21.263  0.00  0.00    -0.054 C 
ATOM      7  C   UNL     1      35.206 -20.822 -20.027  0.00  0.00    +0.013 C 
ATOM      8  C   UNL     1      34.003 -21.380 -19.597  0.00  0.00    +0.122 C 
ATOM      9  C   UNL     1      32.783 -19.650 -20.758  0.00  0.00    -0.003 C 
ATOM     10  C   UNL     1      32.792 -20.796 -19.964  0.00  0.00    +0.020 C 
ATOM     11  H   UNL     1      37.272 -17.645 -22.529  0.00  0.00    -0.084 HD
ATOM     12  H   UNL     1      36.141 -18.663 -23.228  0.00  0.00    -0.084 HD
ENDROOT
BRANCH   8  13
ATOM     13  S   UNL     1      34.013 -22.811 -18.596  0.00  0.00    +0.060 S 
ATOM     14  O   UNL     1      33.993 -23.986 -19.459  0.00  0.00    -0.153 OA
ATOM     15  O   UNL     1      35.081 -22.662 -17.618  0.00  0.00    -0.153 OA
BRANCH  13  16
ATOM     16  N   UNL     1      32.512 -22.704 -17.785  0.00  0.00    -0.179 NA
ATOM     17  H   UNL     1      31.800 -23.034 -18.439  0.00  0.00    +0.149 HD
BRANCH  16  18
ATOM     18  C   UNL     1      32.306 -23.434 -16.526  0.00  0.00    +0.100 C 
BRANCH  18  19
ATOM     19  C   UNL     1      30.820 -23.460 -16.195  0.00  0.00    +0.122 C 
BRANCH  19  23
ATOM     20  F   UNL     1      31.569 -22.180 -14.352  0.00  0.00    -0.170 F 
ATOM     21  F   UNL     1      30.336 -23.933 -13.929  0.00  0.00    -0.170 F 
ATOM     22  F   UNL     1      29.436 -22.152 -14.809  0.00  0.00    -0.170 F 
ATOM     23  C   UNL     1      30.543 -22.929 -14.807  0.00  0.00    +0.399 C 
ENDBRANCH  19  23
ENDBRANCH  18  19
ENDBRANCH  16  18
ENDBRANCH  13  16
ENDBRANCH   8  13
BRANCH   2  25
ATOM     24  F   UNL     1      34.936 -14.915 -22.695  0.00  0.00    -0.237 F 
ATOM     25  C   UNL     1      35.337 -16.089 -23.237  0.00  0.00    +0.172 C 
ENDBRANCH   2  25
TORSDOF 6
ENDMDL
MODEL 2
REMARK VINA RESULT:      -9.4      3.202      7.409
REMARK  Name = 11349402
REMARK  6 active torsions:
REMARK  status: ('A' for Active; 'I' for Inactive)
REMARK    1  A    between atoms: C_2  and  C_25
REMARK    2  A    between atoms: C_8  and  S_13
REMARK    3  A    between atoms: S_13  and  N_16
REMARK    4  A    between atoms: N_16  and  C_18
REMARK    5  A    between atoms: C_18  and  C_19
REMARK    6  A    between atoms: C_19  and  C_23
REMARK                            x       y       z     vdW  Elec       q    Type
REMARK                         _______ _______ _______ _____ _____    ______ ____
ROOT
ATOM      1  N   UNL     1      35.414 -22.265 -17.584  0.00  0.00    +0.390 N 
ATOM      2  C   UNL     1      34.200 -23.010 -17.937  0.00  0.00    -0.021 C 
ATOM      3  C   UNL     1      33.160 -22.047 -18.533  0.00  0.00    +0.007 C 
ATOM      4  C   UNL     1      33.741 -21.154 -19.601  0.00  0.00    -0.030 C 
ATOM      5  C   UNL     1      35.133 -20.972 -19.693  0.00  0.00    -0.046 C 
ATOM      6  C   UNL     1      36.066 -21.735 -18.787  0.00  0.00    -0.054 C 
ATOM      7  C   UNL     1      35.653 -20.122 -20.678  0.00  0.00    +0.013 C 
ATOM      8  C   UNL     1      34.800 -19.438 -21.543  0.00  0.00    +0.122 C 
ATOM      9  C   UNL     1      32.892 -20.455 -20.469  0.00  0.00    -0.003 C 
ATOM     10  C   UNL     1      33.420 -19.602 -21.437  0.00  0.00    +0.020 C 
ATOM     11  H   UNL     1      36.060 -22.888 -17.100  0.00  0.00    -0.084 HD
ATOM     12  H   UNL     1      35.154 -21.485 -16.980  0.00  0.00    -0.084 HD
ENDROOT
BRANCH   8  13
ATOM     13  S   UNL     1      35.460 -18.376 -22.762  0.00  0.00    +0.060 S 
ATOM     14  O   UNL     1      36.904 -18.292 -22.578  0.00  0.00    -0.153 OA
ATOM     15  O   UNL     1      34.929 -18.794 -24.052  0.00  0.00    -0.153 OA
BRANCH  13  16
ATOM     16  N   UNL     1      34.769 -16.868 -22.350  0.00  0.00    -0.179 NA
ATOM     17  H   UNL     1      33.784 -16.914 -22.613  0.00  0.00    +0.149 HD
BRANCH  16  18
ATOM     18  C   UNL     1      34.817 -16.396 -20.958  0.00  0.00    +0.100 C 
BRANCH  18  19
ATOM     19  C   UNL     1      34.331 -14.955 -20.897  0.00  0.00    +0.122 C 
BRANCH  19  23
ATOM     20  F   UNL     1      32.386 -13.837 -20.144  0.00  0.00    -0.170 F 
ATOM     21  F   UNL     1      32.264 -16.001 -20.417  0.00  0.00    -0.170 F 
ATOM     22  F   UNL     1      32.357 -14.685 -22.153  0.00  0.00    -0.170 F 
ATOM     23  C   UNL     1      32.820 -14.869 -20.897  0.00  0.00    +0.399 C 
ENDBRANCH  19  23
ENDBRANCH  18  19
ENDBRANCH  16  18
ENDBRANCH  13  16
ENDBRANCH   8  13
BRANCH   2  25
ATOM     24  F   UNL     1      32.359 -23.303 -16.532  0.00  0.00    -0.237 F 
ATOM     25  C   UNL     1      33.642 -23.700 -16.693  0.00  0.00    +0.172 C 
ENDBRANCH   2  25
TORSDOF 6
ENDMDL
MODEL 3
REMARK VINA RESULT:      -9.2      1.199      1.839
REMARK  Name = 11349402
REMARK  6 active torsions:
REMARK  status: ('A' for Active; 'I' for Inactive)
REMARK    1  A    between atoms: C_2  and  C_25
REMARK    2  A    between atoms: C_8  and  S_13
REMARK    3  A    between atoms: S_13  and  N_16
REMARK    4  A    between atoms: N_16  and  C_18
REMARK    5  A    between atoms: C_18  and  C_19
REMARK    6  A    between atoms: C_19  and  C_23
REMARK                            x       y       z     vdW  Elec       q    Type
REMARK                         _______ _______ _______ _____ _____    ______ ____
ROOT
ATOM      1  N   UNL     1      33.691 -17.702 -21.561  0.00  0.00    +0.390 N 
ATOM      2  C   UNL     1      34.894 -17.957 -22.361  0.00  0.00    -0.021 C 
ATOM      3  C   UNL     1      35.965 -18.625 -21.481  0.00  0.00    +0.007 C 
ATOM      4  C   UNL     1      35.421 -19.784 -20.686  0.00  0.00    -0.030 C 
ATOM      5  C   UNL     1      34.036 -19.921 -20.486  0.00  0.00    -0.046 C 
ATOM      6  C   UNL     1      33.071 -18.962 -21.138  0.00  0.00    -0.054 C 
ATOM      7  C   UNL     1      33.550 -20.993 -19.726  0.00  0.00    +0.013 C 
ATOM      8  C   UNL     1      34.432 -21.905 -19.147  0.00  0.00    +0.122 C 
ATOM      9  C   UNL     1      36.300 -20.700 -20.091  0.00  0.00    -0.003 C 
ATOM     10  C   UNL     1      35.806 -21.757 -19.327  0.00  0.00    +0.020 C 
ATOM     11  H   UNL     1      33.024 -17.171 -22.121  0.00  0.00    -0.084 HD
ATOM     12  H   UNL     1      33.957 -17.172 -20.731  0.00  0.00    -0.084 HD
ENDROOT
BRANCH   8  13
ATOM     13  S   UNL     1      33.816 -23.233 -18.197  0.00  0.00    +0.060 S 
ATOM     14  O   UNL     1      33.680 -24.402 -19.057  0.00  0.00    -0.153 OA
ATOM     15  O   UNL     1      34.622 -23.327 -16.987  0.00  0.00    -0.153 OA
BRANCH  13  16
ATOM     16  N   UNL     1      32.253 -22.686 -17.769  0.00  0.00    -0.179 NA
ATOM     17  H   UNL     1      31.629 -22.955 -18.531  0.00  0.00    +0.149 HD
BRANCH  16  18
ATOM     18  C   UNL     1      31.630 -23.152 -16.522  0.00  0.00    +0.100 C 
BRANCH  18  19
ATOM     19  C   UNL     1      30.154 -22.779 -16.525  0.00  0.00    +0.122 C 
BRANCH  19  23
ATOM     20  F   UNL     1      30.476 -22.781 -14.181  0.00  0.00    -0.170 F 
ATOM     21  F   UNL     1      28.914 -24.079 -14.986  0.00  0.00    -0.170 F 
ATOM     22  F   UNL     1      28.627 -21.918 -14.952  0.00  0.00    -0.170 F 
ATOM     23  C   UNL     1      29.541 -22.894 -15.148  0.00  0.00    +0.399 C 
ENDBRANCH  19  23
ENDBRANCH  18  19
ENDBRANCH  16  18
ENDBRANCH  13  16
ENDBRANCH   8  13
BRANCH   2  25
ATOM     24  F   UNL     1      35.287 -16.692 -24.283  0.00  0.00    -0.237 F 
ATOM     25  C   UNL     1      35.416 -16.642 -22.937  0.00  0.00    +0.172 C 
ENDBRANCH   2  25
TORSDOF 6
ENDMDL
MODEL 4
REMARK VINA RESULT:      -9.1      3.173      3.707
REMARK  Name = 11349402
REMARK  6 active torsions:
REMARK  status: ('A' for Active; 'I' for Inactive)
REMARK    1  A    between atoms: C_2  and  C_25
REMARK    2  A    between atoms: C_8  and  S_13
REMARK    3  A    between atoms: S_13  and  N_16
REMARK    4  A    between atoms: N_16  and  C_18
REMARK    5  A    between atoms: C_18  and  C_19
REMARK    6  A    between atoms: C_19  and  C_23
REMARK                            x       y       z     vdW  Elec       q    Type
REMARK                         _______ _______ _______ _____ _____    ______ ____
ROOT
ATOM      1  N   UNL     1      36.365 -18.233 -22.331  0.00  0.00    +0.390 N 
ATOM      2  C   UNL     1      35.311 -17.239 -22.103  0.00  0.00    -0.021 C 
ATOM      3  C   UNL     1      33.944 -17.942 -22.040  0.00  0.00    +0.007 C 
ATOM      4  C   UNL     1      33.951 -19.143 -21.128  0.00  0.00    -0.030 C 
ATOM      5  C   UNL     1      35.167 -19.741 -20.753  0.00  0.00    -0.046 C 
ATOM      6  C   UNL     1      36.481 -19.139 -21.182  0.00  0.00    -0.054 C 
ATOM      7  C   UNL     1      35.153 -20.869 -19.922  0.00  0.00    +0.013 C 
ATOM      8  C   UNL     1      33.944 -21.414 -19.491  0.00  0.00    +0.122 C 
ATOM      9  C   UNL     1      32.741 -19.703 -20.698  0.00  0.00    -0.003 C 
ATOM     10  C   UNL     1      32.738 -20.833 -19.881  0.00  0.00    +0.020 C 
ATOM     11  H   UNL     1      37.254 -17.753 -22.470  0.00  0.00    -0.084 HD
ATOM     12  H   UNL     1      36.125 -18.781 -23.157  0.00  0.00    -0.084 HD
ENDROOT
BRANCH   8  13
ATOM     13  S   UNL     1      33.939 -22.823 -18.461  0.00  0.00    +0.060 S 
ATOM     14  O   UNL     1      32.886 -22.672 -17.464  0.00  0.00    -0.153 OA
ATOM     15  O   UNL     1      33.946 -24.001 -19.318  0.00  0.00    -0.153 OA
BRANCH  13  16
ATOM     16  N   UNL     1      35.453 -22.711 -17.675  0.00  0.00    -0.179 NA
ATOM     17  H   UNL     1      35.861 -21.816 -17.949  0.00  0.00    +0.149 HD
BRANCH  16  18
ATOM     18  C   UNL     1      35.524 -22.780 -16.209  0.00  0.00    +0.100 C 
BRANCH  18  19
ATOM     19  C   UNL     1      36.962 -22.553 -15.761  0.00  0.00    +0.122 C 
BRANCH  19  23
ATOM     20  F   UNL     1      36.891 -24.902 -15.482  0.00  0.00    -0.170 F 
ATOM     21  F   UNL     1      37.498 -23.699 -13.763  0.00  0.00    -0.170 F 
ATOM     22  F   UNL     1      38.846 -23.934 -15.461  0.00  0.00    -0.170 F 
ATOM     23  C   UNL     1      37.550 -23.784 -15.109  0.00  0.00    +0.399 C 
ENDBRANCH  19  23
ENDBRANCH  18  19
ENDBRANCH  16  18
ENDBRANCH  13  16
ENDBRANCH   8  13
BRANCH   2  25
ATOM     24  F   UNL     1      34.343 -15.309 -22.992  0.00  0.00    -0.237 F 
ATOM     25  C   UNL     1      35.331 -16.204 -23.227  0.00  0.00    +0.172 C 
ENDBRANCH   2  25
TORSDOF 6
ENDMDL
MODEL 5
REMARK VINA RESULT:      -8.8      4.202      5.668
REMARK  Name = 11349402
REMARK  6 active torsions:
REMARK  status: ('A' for Active; 'I' for Inactive)
REMARK    1  A    between atoms: C_2  and  C_25
REMARK    2  A    between atoms: C_8  and  S_13
REMARK    3  A    between atoms: S_13  and  N_16
REMARK    4  A    between atoms: N_16  and  C_18
REMARK    5  A    between atoms: C_18  and  C_19
REMARK    6  A    between atoms: C_19  and  C_23
REMARK                            x       y       z     vdW  Elec       q    Type
REMARK                         _______ _______ _______ _____ _____    ______ ____
ROOT
ATOM      1  N   UNL     1      32.436 -13.186 -20.504  0.00  0.00    +0.390 N 
ATOM      2  C   UNL     1      31.900 -12.847 -21.827  0.00  0.00    -0.021 C 
ATOM      3  C   UNL     1      32.956 -13.152 -22.903  0.00  0.00    +0.007 C 
ATOM      4  C   UNL     1      33.563 -14.523 -22.749  0.00  0.00    -0.030 C 
ATOM      5  C   UNL     1      33.456 -15.213 -21.528  0.00  0.00    -0.046 C 
ATOM      6  C   UNL     1      32.658 -14.632 -20.388  0.00  0.00    -0.054 C 
ATOM      7  C   UNL     1      34.045 -16.477 -21.396  0.00  0.00    +0.013 C 
ATOM      8  C   UNL     1      34.756 -17.039 -22.456  0.00  0.00    +0.122 C 
ATOM      9  C   UNL     1      34.288 -15.092 -23.805  0.00  0.00    -0.003 C 
ATOM     10  C   UNL     1      34.879 -16.346 -23.659  0.00  0.00    +0.020 C 
ATOM     11  H   UNL     1      31.772 -12.891 -19.788  0.00  0.00    -0.084 HD
ATOM     12  H   UNL     1      33.328 -12.705 -20.380  0.00  0.00    -0.084 HD
ENDROOT
BRANCH   8  13
ATOM     13  S   UNL     1      35.491 -18.613 -22.278  0.00  0.00    +0.060 S 
ATOM     14  O   UNL     1      34.913 -19.515 -23.267  0.00  0.00    -0.153 OA
ATOM     15  O   UNL     1      36.935 -18.428 -22.238  0.00  0.00    -0.153 OA
BRANCH  13  16
ATOM     16  N   UNL     1      34.959 -19.094 -20.725  0.00  0.00    -0.179 NA
ATOM     17  H   UNL     1      33.965 -18.869 -20.672  0.00  0.00    +0.149 HD
BRANCH  16  18
ATOM     18  C   UNL     1      35.103 -20.495 -20.304  0.00  0.00    +0.100 C 
BRANCH  18  19
ATOM     19  C   UNL     1      33.751 -21.025 -19.845  0.00  0.00    +0.122 C 
BRANCH  19  23
ATOM     20  F   UNL     1      32.815 -22.381 -18.147  0.00  0.00    -0.170 F 
ATOM     21  F   UNL     1      34.984 -22.121 -18.150  0.00  0.00    -0.170 F 
ATOM     22  F   UNL     1      34.030 -23.357 -19.673  0.00  0.00    -0.170 F 
ATOM     23  C   UNL     1      33.896 -22.229 -18.941  0.00  0.00    +0.399 C 
ENDBRANCH  19  23
ENDBRANCH  18  19
ENDBRANCH  16  18
ENDBRANCH  13  16
ENDBRANCH   8  13
BRANCH   2  25
ATOM     24  F   UNL     1      30.365 -11.223 -21.153  0.00  0.00    -0.237 F 
ATOM     25  C   UNL     1      31.510 -11.371 -21.860  0.00  0.00    +0.172 C 
ENDBRANCH   2  25
TORSDOF 6
ENDMDL
MODEL 6
REMARK VINA RESULT:      -8.7      6.025      8.490
REMARK  Name = 11349402
REMARK  6 active torsions:
REMARK  status: ('A' for Active; 'I' for Inactive)
REMARK    1  A    between atoms: C_2  and  C_25
REMARK    2  A    between atoms: C_8  and  S_13
REMARK    3  A    between atoms: S_13  and  N_16
REMARK    4  A    between atoms: N_16  and  C_18
REMARK    5  A    between atoms: C_18  and  C_19
REMARK    6  A    between atoms: C_19  and  C_23
REMARK                            x       y       z     vdW  Elec       q    Type
REMARK                         _______ _______ _______ _____ _____    ______ ____
ROOT
ATOM      1  N   UNL     1      30.010 -22.915 -17.072  0.00  0.00    +0.390 N 
ATOM      2  C   UNL     1      29.291 -22.741 -15.805  0.00  0.00    -0.021 C 
ATOM      3  C   UNL     1      29.777 -23.789 -14.789  0.00  0.00    +0.007 C 
ATOM      4  C   UNL     1      31.281 -23.867 -14.710  0.00  0.00    -0.030 C 
ATOM      5  C   UNL     1      32.074 -23.342 -15.746  0.00  0.00    -0.046 C 
ATOM      6  C   UNL     1      31.437 -22.616 -16.904  0.00  0.00    -0.054 C 
ATOM      7  C   UNL     1      33.469 -23.442 -15.665  0.00  0.00    +0.013 C 
ATOM      8  C   UNL     1      34.070 -24.081 -14.581  0.00  0.00    +0.122 C 
ATOM      9  C   UNL     1      31.893 -24.516 -13.630  0.00  0.00    -0.003 C 
ATOM     10  C   UNL     1      33.282 -24.620 -13.565  0.00  0.00    +0.020 C 
ATOM     11  H   UNL     1      29.615 -22.284 -17.769  0.00  0.00    -0.084 HD
ATOM     12  H   UNL     1      29.911 -23.884 -17.374  0.00  0.00    -0.084 HD
ENDROOT
BRANCH   8  13
ATOM     13  S   UNL     1      35.809 -24.205 -14.495  0.00  0.00    +0.060 S 
ATOM     14  O   UNL     1      36.358 -24.029 -15.834  0.00  0.00    -0.153 OA
ATOM     15  O   UNL     1      36.264 -23.338 -13.417  0.00  0.00    -0.153 OA
BRANCH  13  16
ATOM     16  N   UNL     1      36.039 -25.832 -14.021  0.00  0.00    -0.179 NA
ATOM     17  H   UNL     1      35.979 -26.396 -14.869  0.00  0.00    +0.149 HD
BRANCH  16  18
ATOM     18  C   UNL     1      37.278 -26.225 -13.334  0.00  0.00    +0.100 C 
BRANCH  18  19
ATOM     19  C   UNL     1      38.374 -26.459 -14.365  0.00  0.00    +0.122 C 
BRANCH  19  23
ATOM     20  F   UNL     1      39.568 -24.596 -15.203  0.00  0.00    -0.170 F 
ATOM     21  F   UNL     1      40.708 -26.136 -14.155  0.00  0.00    -0.170 F 
ATOM     22  F   UNL     1      39.394 -24.801 -13.039  0.00  0.00    -0.170 F 
ATOM     23  C   UNL     1      39.523 -25.491 -14.194  0.00  0.00    +0.399 C 
ENDBRANCH  19  23
ENDBRANCH  18  19
ENDBRANCH  16  18
ENDBRANCH  13  16
ENDBRANCH   8  13
BRANCH   2  25
ATOM     24  F   UNL     1      27.153 -21.972 -15.269  0.00  0.00    -0.237 F 
ATOM     25  C   UNL     1      27.789 -22.881 -16.044  0.00  0.00    +0.172 C 
ENDBRANCH   2  25
TORSDOF 6
ENDMDL
MODEL 7
REMARK VINA RESULT:      -8.6      6.610      9.121
REMARK  Name = 11349402
REMARK  6 active torsions:
REMARK  status: ('A' for Active; 'I' for Inactive)
REMARK    1  A    between atoms: C_2  and  C_25
REMARK    2  A    between atoms: C_8  and  S_13
REMARK    3  A    between atoms: S_13  and  N_16
REMARK    4  A    between atoms: N_16  and  C_18
REMARK    5  A    between atoms: C_18  and  C_19
REMARK    6  A    between atoms: C_19  and  C_23
REMARK                            x       y       z     vdW  Elec       q    Type
REMARK                         _______ _______ _______ _____ _____    ______ ____
ROOT
ATOM      1  N   UNL     1      35.657 -19.134 -22.853  0.00  0.00    +0.390 N 
ATOM      2  C   UNL     1      35.264 -19.276 -21.448  0.00  0.00    -0.021 C 
ATOM      3  C   UNL     1      35.448 -17.932 -20.723  0.00  0.00    +0.007 C 
ATOM      4  C   UNL     1      34.845 -16.777 -21.482  0.00  0.00    -0.030 C 
ATOM      5  C   UNL     1      34.551 -16.904 -22.851  0.00  0.00    -0.046 C 
ATOM      6  C   UNL     1      34.749 -18.221 -23.557  0.00  0.00    -0.054 C 
ATOM      7  C   UNL     1      34.011 -15.813 -23.545  0.00  0.00    +0.013 C 
ATOM      8  C   UNL     1      33.791 -14.600 -22.893  0.00  0.00    +0.122 C 
ATOM      9  C   UNL     1      34.630 -15.551 -20.838  0.00  0.00    -0.003 C 
ATOM     10  C   UNL     1      34.103 -14.468 -21.541  0.00  0.00    +0.020 C 
ATOM     11  H   UNL     1      35.627 -20.049 -23.303  0.00  0.00    -0.084 HD
ATOM     12  H   UNL     1      36.602 -18.751 -22.891  0.00  0.00    -0.084 HD
ENDROOT
BRANCH   8  13
ATOM     13  S   UNL     1      33.124 -13.246 -23.769  0.00  0.00    +0.060 S 
ATOM     14  O   UNL     1      34.133 -12.196 -23.850  0.00  0.00    -0.153 OA
ATOM     15  O   UNL     1      32.529 -13.759 -24.996  0.00  0.00    -0.153 OA
BRANCH  13  16
ATOM     16  N   UNL     1      31.870 -12.718 -22.734  0.00  0.00    -0.179 NA
ATOM     17  H   UNL     1      31.940 -13.273 -21.880  0.00  0.00    +0.149 HD
BRANCH  16  18
ATOM     18  C   UNL     1      31.805 -11.309 -22.321  0.00  0.00    +0.100 C 
BRANCH  18  19
ATOM     19  C   UNL     1      30.733 -11.144 -21.253  0.00  0.00    +0.122 C 
BRANCH  19  23
ATOM     20  F   UNL     1      32.283 -10.015 -19.866  0.00  0.00    -0.170 F 
ATOM     21  F   UNL     1      31.892 -12.121 -19.437  0.00  0.00    -0.170 F 
ATOM     22  F   UNL     1      30.380 -10.616 -18.985  0.00  0.00    -0.170 F 
ATOM     23  C   UNL     1      31.333 -10.973 -19.875  0.00  0.00    +0.399 C 
ENDBRANCH  19  23
ENDBRANCH  18  19
ENDBRANCH  16  18
ENDBRANCH  13  16
ENDBRANCH   8  13
BRANCH   2  25
ATOM     24  F   UNL     1      37.269 -19.801 -20.374  0.00  0.00    -0.237 F 
ATOM     25  C   UNL     1      36.109 -20.363 -20.786  0.00  0.00    +0.172 C 
ENDBRANCH   2  25
TORSDOF 6
ENDMDL
MODEL 8
REMARK VINA RESULT:      -8.6      6.538      9.129
REMARK  Name = 11349402
REMARK  6 active torsions:
REMARK  status: ('A' for Active; 'I' for Inactive)
REMARK    1  A    between atoms: C_2  and  C_25
REMARK    2  A    between atoms: C_8  and  S_13
REMARK    3  A    between atoms: S_13  and  N_16
REMARK    4  A    between atoms: N_16  and  C_18
REMARK    5  A    between atoms: C_18  and  C_19
REMARK    6  A    between atoms: C_19  and  C_23
REMARK                            x       y       z     vdW  Elec       q    Type
REMARK                         _______ _______ _______ _____ _____    ______ ____
ROOT
ATOM      1  N   UNL     1      35.187 -17.985 -20.499  0.00  0.00    +0.390 N 
ATOM      2  C   UNL     1      36.176 -18.660 -21.346  0.00  0.00    -0.021 C 
ATOM      3  C   UNL     1      35.610 -18.826 -22.766  0.00  0.00    +0.007 C 
ATOM      4  C   UNL     1      35.013 -17.551 -23.306  0.00  0.00    -0.030 C 
ATOM      5  C   UNL     1      34.663 -16.506 -22.431  0.00  0.00    -0.046 C 
ATOM      6  C   UNL     1      34.962 -16.610 -20.957  0.00  0.00    -0.054 C 
ATOM      7  C   UNL     1      34.091 -15.336 -22.949  0.00  0.00    +0.013 C 
ATOM      8  C   UNL     1      33.842 -15.216 -24.315  0.00  0.00    +0.122 C 
ATOM      9  C   UNL     1      34.750 -17.425 -24.676  0.00  0.00    -0.003 C 
ATOM     10  C   UNL     1      34.169 -16.261 -25.178  0.00  0.00    +0.020 C 
ATOM     11  H   UNL     1      35.527 -17.967 -19.537  0.00  0.00    -0.084 HD
ATOM     12  H   UNL     1      34.306 -18.498 -20.553  0.00  0.00    -0.084 HD
ENDROOT
BRANCH   8  13
ATOM     13  S   UNL     1      33.122 -13.757 -24.947  0.00  0.00    +0.060 S 
ATOM     14  O   UNL     1      34.152 -12.730 -25.044  0.00  0.00    -0.153 OA
ATOM     15  O   UNL     1      32.357 -14.115 -26.133  0.00  0.00    -0.153 OA
BRANCH  13  16
ATOM     16  N   UNL     1      32.030 -13.318 -23.706  0.00  0.00    -0.179 NA
ATOM     17  H   UNL     1      31.833 -14.166 -23.174  0.00  0.00    +0.149 HD
BRANCH  16  18
ATOM     18  C   UNL     1      32.406 -12.282 -22.733  0.00  0.00    +0.100 C 
BRANCH  18  19
ATOM     19  C   UNL     1      31.844 -12.646 -21.365  0.00  0.00    +0.122 C 
BRANCH  19  23
ATOM     20  F   UNL     1      31.933 -10.304 -21.040  0.00  0.00    -0.170 F 
ATOM     21  F   UNL     1      31.494 -11.548 -19.300  0.00  0.00    -0.170 F 
ATOM     22  F   UNL     1      29.992 -11.282 -20.858  0.00  0.00    -0.170 F 
ATOM     23  C   UNL     1      31.316 -11.433 -20.632  0.00  0.00    +0.399 C 
ENDBRANCH  19  23
ENDBRANCH  18  19
ENDBRANCH  16  18
ENDBRANCH  13  16
ENDBRANCH   8  13
BRANCH   2  25
ATOM     24  F   UNL     1      35.367 -20.651 -20.432  0.00  0.00    -0.237 F 
ATOM     25  C   UNL     1      36.524 -20.021 -20.744  0.00  0.00    +0.172 C 
ENDBRANCH   2  25
TORSDOF 6
ENDMDL
MODEL 9
REMARK VINA RESULT:      -8.5      4.433      5.812
REMARK  Name = 11349402
REMARK  6 active torsions:
REMARK  status: ('A' for Active; 'I' for Inactive)
REMARK    1  A    between atoms: C_2  and  C_25
REMARK    2  A    between atoms: C_8  and  S_13
REMARK    3  A    between atoms: S_13  and  N_16
REMARK    4  A    between atoms: N_16  and  C_18
REMARK    5  A    between atoms: C_18  and  C_19
REMARK    6  A    between atoms: C_19  and  C_23
REMARK                            x       y       z     vdW  Elec       q    Type
REMARK                         _______ _______ _______ _____ _____    ______ ____
ROOT
ATOM      1  N   UNL     1      32.739 -12.372 -23.611  0.00  0.00    +0.390 N 
ATOM      2  C   UNL     1      32.553 -11.976 -22.211  0.00  0.00    -0.021 C 
ATOM      3  C   UNL     1      32.059 -13.182 -21.395  0.00  0.00    +0.007 C 
ATOM      4  C   UNL     1      32.877 -14.425 -21.644  0.00  0.00    -0.030 C 
ATOM      5  C   UNL     1      33.689 -14.522 -22.789  0.00  0.00    -0.046 C 
ATOM      6  C   UNL     1      33.823 -13.354 -23.733  0.00  0.00    -0.054 C 
ATOM      7  C   UNL     1      34.426 -15.692 -23.014  0.00  0.00    +0.013 C 
ATOM      8  C   UNL     1      34.336 -16.765 -22.129  0.00  0.00    +0.122 C 
ATOM      9  C   UNL     1      32.786 -15.512 -20.765  0.00  0.00    -0.003 C 
ATOM     10  C   UNL     1      33.514 -16.676 -21.006  0.00  0.00    +0.020 C 
ATOM     11  H   UNL     1      32.970 -11.548 -24.164  0.00  0.00    -0.084 HD
ATOM     12  H   UNL     1      31.874 -12.795 -23.949  0.00  0.00    -0.084 HD
ENDROOT
BRANCH   8  13
ATOM     13  S   UNL     1      35.253 -18.220 -22.425  0.00  0.00    +0.060 S 
ATOM     14  O   UNL     1      35.376 -18.412 -23.865  0.00  0.00    -0.153 OA
ATOM     15  O   UNL     1      36.457 -18.162 -21.607  0.00  0.00    -0.153 OA
BRANCH  13  16
ATOM     16  N   UNL     1      34.227 -19.437 -21.799  0.00  0.00    -0.179 NA
ATOM     17  H   UNL     1      34.087 -20.117 -22.547  0.00  0.00    +0.149 HD
BRANCH  16  18
ATOM     18  C   UNL     1      34.633 -20.194 -20.606  0.00  0.00    +0.100 C 
BRANCH  18  19
ATOM     19  C   UNL     1      33.412 -20.871 -19.998  0.00  0.00    +0.122 C 
BRANCH  19  23
ATOM     20  F   UNL     1      33.952 -23.168 -19.826  0.00  0.00    -0.170 F 
ATOM     21  F   UNL     1      32.858 -22.261 -18.167  0.00  0.00    -0.170 F 
ATOM     22  F   UNL     1      34.963 -21.783 -18.479  0.00  0.00    -0.170 F 
ATOM     23  C   UNL     1      33.795 -22.034 -19.111  0.00  0.00    +0.399 C 
ENDBRANCH  19  23
ENDBRANCH  18  19
ENDBRANCH  16  18
ENDBRANCH  13  16
ENDBRANCH   8  13
BRANCH   2  25
ATOM     24  F   UNL     1      30.470 -11.258 -21.436  0.00  0.00    -0.237 F 
ATOM     25  C   UNL     1      31.548 -10.828 -22.133  0.00  0.00    +0.172 C 
ENDBRANCH   2  25
TORSDOF 6
ENDMDL
