MODEL 1
REMARK VINA RESULT:     -12.2      0.000      0.000
REMARK  Name = 24894149
REMARK  3 active torsions:
REMARK  status: ('A' for Active; 'I' for Inactive)
REMARK    1  A    between atoms: C_15  and  C_23
REMARK    2  A    between atoms: C_28  and  C_29
REMARK    3  A    between atoms: C_29  and  N_30
REMARK                            x       y       z     vdW  Elec       q    Type
REMARK                         _______ _______ _______ _____ _____    ______ ____
ROOT
ATOM      1  F   UNL     1      37.205 -21.594 -20.007  0.00  0.00    -0.204 F 
ATOM      2  O   UNL     1      33.338 -14.917 -25.723  0.00  0.00    -0.270 OA
ATOM      3  N   UNL     1      34.295 -15.586 -23.696  0.00  0.00    -0.276 N 
ATOM      4  N   UNL     1      33.505 -18.675 -21.004  0.00  0.00    -0.318 N 
ATOM      5  N   UNL     1      35.827 -17.987 -21.642  0.00  0.00    -0.242 NA
ATOM      6  N   UNL     1      37.662 -19.202 -20.959  0.00  0.00    -0.343 N 
ATOM      7  C   UNL     1      34.374 -17.806 -21.780  0.00  0.00    +0.145 C 
ATOM      8  C   UNL     1      34.019 -17.997 -23.276  0.00  0.00    +0.063 C 
ATOM      9  C   UNL     1      34.058 -16.349 -21.363  0.00  0.00    +0.063 C 
ATOM     10  C   UNL     1      34.638 -16.925 -24.172  0.00  0.00    +0.097 C 
ATOM     11  C   UNL     1      34.671 -15.311 -22.304  0.00  0.00    +0.097 C 
ATOM     12  C   UNL     1      34.020 -19.852 -20.495  0.00  0.00    +0.051 C 
ATOM     13  C   UNL     1      36.298 -19.051 -21.067  0.00  0.00    +0.125 C 
ATOM     14  C   UNL     1      35.397 -20.106 -20.508  0.00  0.00    +0.071 C 
ATOM     15  C   UNL     1      33.655 -14.691 -24.556  0.00  0.00    +0.249 C 
ATOM     16  C   UNL     1      33.159 -20.805 -19.929  0.00  0.00    +0.015 C 
ATOM     17  C   UNL     1      35.895 -21.312 -19.994  0.00  0.00    +0.144 C 
ATOM     18  C   UNL     1      33.657 -22.000 -19.411  0.00  0.00    +0.004 C 
ATOM     19  C   UNL     1      35.023 -22.255 -19.448  0.00  0.00    +0.030 C 
ATOM     20  H   UNL     1      32.565 -18.428 -20.843  0.00  0.00    +0.148 HD
ATOM     21  H   UNL     1      38.264 -18.514 -21.323  0.00  0.00    +0.144 HD
ATOM     22  H   UNL     1      38.036 -19.999 -20.517  0.00  0.00    +0.144 HD
ENDROOT
BRANCH  15  23
ATOM     23  C   UNL     1      33.323 -13.356 -24.043  0.00  0.00    +0.054 C 
ATOM     24  C   UNL     1      33.941 -12.229 -24.585  0.00  0.00    +0.004 C 
ATOM     25  C   UNL     1      32.390 -13.215 -23.016  0.00  0.00    +0.004 C 
ATOM     26  C   UNL     1      33.626 -10.960 -24.098  0.00  0.00    -0.006 C 
ATOM     27  C   UNL     1      32.075 -11.946 -22.530  0.00  0.00    -0.006 C 
ATOM     28  C   UNL     1      32.692 -10.819 -23.071  0.00  0.00    -0.044 C 
BRANCH  28  29
ATOM     29  C   UNL     1      32.355  -9.463 -22.550  0.00  0.00    -0.059 C 
BRANCH  29  30
ATOM     30  N   UNL     1      32.028  -9.479 -21.124  0.00  0.00    +0.383 N 
ATOM     31  H   UNL     1      31.096  -9.871 -20.993  0.00  0.00    -0.089 HD
ATOM     32  H   UNL     1      32.050  -8.526 -20.760  0.00  0.00    -0.089 HD
ATOM     33  H   UNL     1      32.710 -10.049 -20.625  0.00  0.00    -0.089 HD
ENDBRANCH  29  30
ENDBRANCH  28  29
ENDBRANCH  15  23
TORSDOF 3
ENDMDL
MODEL 2
REMARK VINA RESULT:     -10.8      3.936      9.347
REMARK  Name = 24894149
REMARK  3 active torsions:
REMARK  status: ('A' for Active; 'I' for Inactive)
REMARK    1  A    between atoms: C_15  and  C_23
REMARK    2  A    between atoms: C_28  and  C_29
REMARK    3  A    between atoms: C_29  and  N_30
REMARK                            x       y       z     vdW  Elec       q    Type
REMARK                         _______ _______ _______ _____ _____    ______ ____
ROOT
ATOM      1  F   UNL     1      34.855 -17.355 -25.842  0.00  0.00    -0.204 F 
ATOM      2  O   UNL     1      37.077 -22.003 -17.738  0.00  0.00    -0.270 OA
ATOM      3  N   UNL     1      35.547 -21.358 -19.387  0.00  0.00    -0.276 N 
ATOM      4  N   UNL     1      34.464 -17.689 -21.052  0.00  0.00    -0.318 N 
ATOM      5  N   UNL     1      34.750 -19.770 -22.416  0.00  0.00    -0.242 NA
ATOM      6  N   UNL     1      34.672 -19.709 -24.717  0.00  0.00    -0.343 N 
ATOM      7  C   UNL     1      34.790 -19.104 -21.104  0.00  0.00    +0.145 C 
ATOM      8  C   UNL     1      36.218 -19.283 -20.532  0.00  0.00    +0.063 C 
ATOM      9  C   UNL     1      33.778 -19.841 -20.193  0.00  0.00    +0.063 C 
ATOM     10  C   UNL     1      36.560 -20.744 -20.243  0.00  0.00    +0.097 C 
ATOM     11  C   UNL     1      34.176 -21.290 -19.906  0.00  0.00    +0.097 C 
ATOM     12  C   UNL     1      34.521 -16.947 -22.217  0.00  0.00    +0.051 C 
ATOM     13  C   UNL     1      34.698 -19.062 -23.502  0.00  0.00    +0.125 C 
ATOM     14  C   UNL     1      34.650 -17.568 -23.466  0.00  0.00    +0.071 C 
ATOM     15  C   UNL     1      35.929 -21.943 -18.177  0.00  0.00    +0.249 C 
ATOM     16  C   UNL     1      34.422 -15.549 -22.161  0.00  0.00    +0.015 C 
ATOM     17  C   UNL     1      34.714 -16.794 -24.633  0.00  0.00    +0.144 C 
ATOM     18  C   UNL     1      34.478 -14.781 -23.324  0.00  0.00    +0.004 C 
ATOM     19  C   UNL     1      34.630 -15.403 -24.558  0.00  0.00    +0.030 C 
ATOM     20  H   UNL     1      34.207 -17.265 -20.201  0.00  0.00    +0.148 HD
ATOM     21  H   UNL     1      34.704 -20.692 -24.753  0.00  0.00    +0.144 HD
ATOM     22  H   UNL     1      34.624 -19.188 -25.552  0.00  0.00    +0.144 HD
ENDROOT
BRANCH  15  23
ATOM     23  C   UNL     1      34.885 -22.548 -17.342  0.00  0.00    +0.054 C 
ATOM     24  C   UNL     1      35.165 -22.899 -16.021  0.00  0.00    +0.004 C 
ATOM     25  C   UNL     1      33.612 -22.771 -17.867  0.00  0.00    +0.004 C 
ATOM     26  C   UNL     1      34.173 -23.474 -15.227  0.00  0.00    -0.006 C 
ATOM     27  C   UNL     1      32.620 -23.345 -17.073  0.00  0.00    -0.006 C 
ATOM     28  C   UNL     1      32.900 -23.696 -15.752  0.00  0.00    -0.044 C 
BRANCH  28  29
ATOM     29  C   UNL     1      31.839 -24.310 -14.905  0.00  0.00    -0.059 C 
BRANCH  29  30
ATOM     30  N   UNL     1      32.391 -25.079 -13.789  0.00  0.00    +0.383 N 
ATOM     31  H   UNL     1      33.318 -24.724 -13.556  0.00  0.00    -0.089 HD
ATOM     32  H   UNL     1      32.461 -26.062 -14.054  0.00  0.00    -0.089 HD
ATOM     33  H   UNL     1      31.778 -24.990 -12.978  0.00  0.00    -0.089 HD
ENDBRANCH  29  30
ENDBRANCH  28  29
ENDBRANCH  15  23
TORSDOF 3
ENDMDL
MODEL 3
REMARK VINA RESULT:     -10.2      3.532      9.235
REMARK  Name = 24894149
REMARK  3 active torsions:
REMARK  status: ('A' for Active; 'I' for Inactive)
REMARK    1  A    between atoms: C_15  and  C_23
REMARK    2  A    between atoms: C_28  and  C_29
REMARK    3  A    between atoms: C_29  and  N_30
REMARK                            x       y       z     vdW  Elec       q    Type
REMARK                         _______ _______ _______ _____ _____    ______ ____
ROOT
ATOM      1  F   UNL     1      31.034  -7.851 -23.070  0.00  0.00    -0.204 F 
ATOM      2  O   UNL     1      33.764 -16.622 -25.867  0.00  0.00    -0.270 OA
ATOM      3  N   UNL     1      33.404 -15.010 -24.210  0.00  0.00    -0.276 N 
ATOM      4  N   UNL     1      34.587 -11.037 -23.734  0.00  0.00    -0.318 N 
ATOM      5  N   UNL     1      32.289 -11.851 -23.158  0.00  0.00    -0.242 NA
ATOM      6  N   UNL     1      30.616 -10.382 -22.565  0.00  0.00    -0.343 N 
ATOM      7  C   UNL     1      33.638 -12.137 -23.669  0.00  0.00    +0.145 C 
ATOM      8  C   UNL     1      33.485 -12.715 -25.098  0.00  0.00    +0.063 C 
ATOM      9  C   UNL     1      34.252 -13.217 -22.745  0.00  0.00    +0.063 C 
ATOM     10  C   UNL     1      32.762 -14.061 -25.117  0.00  0.00    +0.097 C 
ATOM     11  C   UNL     1      33.516 -14.556 -22.819  0.00  0.00    +0.097 C 
ATOM     12  C   UNL     1      34.108  -9.741 -23.704  0.00  0.00    +0.051 C 
ATOM     13  C   UNL     1      31.887 -10.623 -23.035  0.00  0.00    +0.125 C 
ATOM     14  C   UNL     1      32.773  -9.469 -23.378  0.00  0.00    +0.071 C 
ATOM     15  C   UNL     1      33.856 -16.237 -24.702  0.00  0.00    +0.249 C 
ATOM     16  C   UNL     1      34.972  -8.670 -23.978  0.00  0.00    +0.015 C 
ATOM     17  C   UNL     1      32.309  -8.145 -23.362  0.00  0.00    +0.144 C 
ATOM     18  C   UNL     1      34.510  -7.354 -23.955  0.00  0.00    +0.004 C 
ATOM     19  C   UNL     1      33.179  -7.093 -23.652  0.00  0.00    +0.030 C 
ATOM     20  H   UNL     1      35.553 -11.213 -23.798  0.00  0.00    +0.148 HD
ATOM     21  H   UNL     1      30.024 -11.135 -22.337  0.00  0.00    +0.144 HD
ATOM     22  H   UNL     1      30.298  -9.456 -22.457  0.00  0.00    +0.144 HD
ENDROOT
BRANCH  15  23
ATOM     23  C   UNL     1      34.498 -17.165 -23.763  0.00  0.00    +0.054 C 
ATOM     24  C   UNL     1      35.047 -16.684 -22.574  0.00  0.00    +0.004 C 
ATOM     25  C   UNL     1      34.557 -18.527 -24.058  0.00  0.00    +0.004 C 
ATOM     26  C   UNL     1      35.656 -17.567 -21.681  0.00  0.00    -0.006 C 
ATOM     27  C   UNL     1      35.166 -19.408 -23.166  0.00  0.00    -0.006 C 
ATOM     28  C   UNL     1      35.715 -18.928 -21.976  0.00  0.00    -0.044 C 
BRANCH  28  29
ATOM     29  C   UNL     1      36.366 -19.872 -21.023  0.00  0.00    -0.059 C 
BRANCH  29  30
ATOM     30  N   UNL     1      35.432 -20.388 -20.022  0.00  0.00    +0.383 N 
ATOM     31  H   UNL     1      35.794 -20.195 -19.088  0.00  0.00    -0.089 HD
ATOM     32  H   UNL     1      35.325 -21.394 -20.144  0.00  0.00    -0.089 HD
ATOM     33  H   UNL     1      34.526 -19.933 -20.137  0.00  0.00    -0.089 HD
ENDBRANCH  29  30
ENDBRANCH  28  29
ENDBRANCH  15  23
TORSDOF 3
ENDMDL
MODEL 4
REMARK VINA RESULT:      -9.9      3.672      9.084
REMARK  Name = 24894149
REMARK  3 active torsions:
REMARK  status: ('A' for Active; 'I' for Inactive)
REMARK    1  A    between atoms: C_15  and  C_23
REMARK    2  A    between atoms: C_28  and  C_29
REMARK    3  A    between atoms: C_29  and  N_30
REMARK                            x       y       z     vdW  Elec       q    Type
REMARK                         _______ _______ _______ _____ _____    ______ ____
ROOT
ATOM      1  F   UNL     1      34.328 -16.393 -25.876  0.00  0.00    -0.204 F 
ATOM      2  O   UNL     1      37.005 -21.755 -18.374  0.00  0.00    -0.270 OA
ATOM      3  N   UNL     1      35.378 -20.942 -19.845  0.00  0.00    -0.276 N 
ATOM      4  N   UNL     1      34.275 -17.123 -21.114  0.00  0.00    -0.318 N 
ATOM      5  N   UNL     1      34.407 -19.086 -22.664  0.00  0.00    -0.242 NA
ATOM      6  N   UNL     1      34.165 -18.829 -24.940  0.00  0.00    -0.343 N 
ATOM      7  C   UNL     1      34.559 -18.536 -21.309  0.00  0.00    +0.145 C 
ATOM      8  C   UNL     1      36.019 -18.791 -20.860  0.00  0.00    +0.063 C 
ATOM      9  C   UNL     1      33.596 -19.326 -20.389  0.00  0.00    +0.063 C 
ATOM     10  C   UNL     1      36.342 -20.278 -20.720  0.00  0.00    +0.097 C 
ATOM     11  C   UNL     1      33.976 -20.802 -20.253  0.00  0.00    +0.097 C 
ATOM     12  C   UNL     1      34.268 -16.287 -22.215  0.00  0.00    +0.051 C 
ATOM     13  C   UNL     1      34.295 -18.288 -23.681  0.00  0.00    +0.125 C 
ATOM     14  C   UNL     1      34.290 -16.802 -23.517  0.00  0.00    +0.071 C 
ATOM     15  C   UNL     1      35.830 -21.635 -18.720  0.00  0.00    +0.249 C 
ATOM     16  C   UNL     1      34.210 -14.896 -22.036  0.00  0.00    +0.015 C 
ATOM     17  C   UNL     1      34.290 -15.933 -24.617  0.00  0.00    +0.144 C 
ATOM     18  C   UNL     1      34.203 -14.034 -23.132  0.00  0.00    +0.004 C 
ATOM     19  C   UNL     1      34.248 -14.552 -24.421  0.00  0.00    +0.030 C 
ATOM     20  H   UNL     1      34.092 -16.768 -20.214  0.00  0.00    +0.148 HD
ATOM     21  H   UNL     1      34.167 -19.806 -25.060  0.00  0.00    +0.144 HD
ATOM     22  H   UNL     1      34.070 -18.238 -25.723  0.00  0.00    +0.144 HD
ENDROOT
BRANCH  15  23
ATOM     23  C   UNL     1      34.834 -22.287 -17.862  0.00  0.00    +0.054 C 
ATOM     24  C   UNL     1      33.537 -22.492 -18.333  0.00  0.00    +0.004 C 
ATOM     25  C   UNL     1      35.184 -22.703 -16.578  0.00  0.00    +0.004 C 
ATOM     26  C   UNL     1      32.590 -23.113 -17.518  0.00  0.00    -0.006 C 
ATOM     27  C   UNL     1      34.237 -23.324 -15.764  0.00  0.00    -0.006 C 
ATOM     28  C   UNL     1      32.940 -23.530 -16.234  0.00  0.00    -0.044 C 
BRANCH  28  29
ATOM     29  C   UNL     1      31.928 -24.193 -15.362  0.00  0.00    -0.059 C 
BRANCH  29  30
ATOM     30  N   UNL     1      31.401 -23.294 -14.335  0.00  0.00    +0.383 N 
ATOM     31  H   UNL     1      31.927 -23.421 -13.470  0.00  0.00    -0.089 HD
ATOM     32  H   UNL     1      30.418 -23.507 -14.169  0.00  0.00    -0.089 HD
ATOM     33  H   UNL     1      31.492 -22.328 -14.649  0.00  0.00    -0.089 HD
ENDBRANCH  29  30
ENDBRANCH  28  29
ENDBRANCH  15  23
TORSDOF 3
ENDMDL
