MODEL 1
REMARK VINA RESULT:      -6.8      0.000      0.000
REMARK  Name = 447227
REMARK  10 active torsions:
REMARK  status: ('A' for Active; 'I' for Inactive)
REMARK    1  A    between atoms: N_2  and  C_14
REMARK    2  A    between atoms: C_3  and  C_5
REMARK    3  A    between atoms: C_5  and  C_6
REMARK    4  A    between atoms: C_5  and  O_12
REMARK    5  A    between atoms: C_6  and  C_9
REMARK    6  A    between atoms: C_9  and  O_10
REMARK    7  A    between atoms: C_14  and  C_15
REMARK    8  A    between atoms: C_15  and  C_18
REMARK    9  A    between atoms: N_17  and  C_20
REMARK   10  A    between atoms: C_21  and  S_22
REMARK                            x       y       z     vdW  Elec       q    Type
REMARK                         _______ _______ _______ _____ _____    ______ ____
ROOT
ATOM      1  O   UNL     1      35.260 -23.215 -14.962  0.00  0.00    -0.272 OA
ATOM      2  N   UNL     1      37.222 -23.038 -16.188  0.00  0.00    -0.302 N 
ATOM      3  C   UNL     1      36.327 -23.687 -15.352  0.00  0.00    +0.249 C 
ATOM      4  H   UNL     1      38.051 -23.506 -16.442  0.00  0.00    +0.150 HD
ENDROOT
BRANCH   3   5
ATOM      5  C   UNL     1      36.813 -25.069 -14.923  0.00  0.00    +0.189 C 
BRANCH   5   6
ATOM      6  C   UNL     1      37.692 -25.068 -13.638  0.00  0.00    +0.060 C 
ATOM      7  C   UNL     1      39.187 -25.201 -13.989  0.00  0.00    +0.005 C 
ATOM      8  C   UNL     1      37.504 -23.714 -12.913  0.00  0.00    +0.005 C 
BRANCH   6   9
ATOM      9  C   UNL     1      37.277 -26.210 -12.676  0.00  0.00    +0.140 C 
BRANCH   9  10
ATOM     10  O   UNL     1      36.265 -25.777 -11.774  0.00  0.00    -0.382 OA
ATOM     11  H   UNL     1      35.437 -25.637 -12.260  0.00  0.00    +0.210 HD
ENDBRANCH   9  10
ENDBRANCH   6   9
ENDBRANCH   5   6
BRANCH   5  12
ATOM     12  O   UNL     1      35.646 -25.857 -14.706  0.00  0.00    -0.376 OA
ATOM     13  H   UNL     1      35.662 -26.628 -15.296  0.00  0.00    +0.211 HD
ENDBRANCH   5  12
ENDBRANCH   3   5
BRANCH   2  14
ATOM     14  C   UNL     1      36.996 -21.708 -16.705  0.00  0.00    +0.099 C 
BRANCH  14  15
ATOM     15  C   UNL     1      36.793 -21.703 -18.214  0.00  0.00    +0.107 C 
BRANCH  15  18
ATOM     16  O   UNL     1      34.674 -22.875 -18.241  0.00  0.00    -0.275 OA
ATOM     17  N   UNL     1      34.911 -20.925 -19.493  0.00  0.00    -0.282 N 
ATOM     18  C   UNL     1      35.348 -21.926 -18.633  0.00  0.00    +0.228 C 
ATOM     19  H   UNL     1      35.545 -20.213 -19.738  0.00  0.00    +0.155 HD
BRANCH  17  20
ATOM     20  C   UNL     1      33.652 -20.874 -20.017  0.00  0.00    +0.070 C 
ATOM     21  C   UNL     1      33.262 -19.909 -20.856  0.00  0.00    +0.043 C 
BRANCH  21  22
ATOM     22  S   UNL     1      34.326 -18.640 -21.350  0.00  0.00    -0.140 S 
ATOM     23  H   UNL     1      33.748 -17.931 -22.356  0.00  0.00    +0.107 HD
ENDBRANCH  21  22
ENDBRANCH  17  20
ENDBRANCH  15  18
ENDBRANCH  14  15
ENDBRANCH   2  14
TORSDOF 10
ENDMDL
MODEL 2
REMARK VINA RESULT:      -6.8      3.745      4.063
REMARK  Name = 447227
REMARK  10 active torsions:
REMARK  status: ('A' for Active; 'I' for Inactive)
REMARK    1  A    between atoms: N_2  and  C_14
REMARK    2  A    between atoms: C_3  and  C_5
REMARK    3  A    between atoms: C_5  and  C_6
REMARK    4  A    between atoms: C_5  and  O_12
REMARK    5  A    between atoms: C_6  and  C_9
REMARK    6  A    between atoms: C_9  and  O_10
REMARK    7  A    between atoms: C_14  and  C_15
REMARK    8  A    between atoms: C_15  and  C_18
REMARK    9  A    between atoms: N_17  and  C_20
REMARK   10  A    between atoms: C_21  and  S_22
REMARK                            x       y       z     vdW  Elec       q    Type
REMARK                         _______ _______ _______ _____ _____    ______ ____
ROOT
ATOM      1  O   UNL     1      35.942 -23.363 -13.190  0.00  0.00    -0.272 OA
ATOM      2  N   UNL     1      35.890 -23.743 -15.479  0.00  0.00    -0.302 N 
ATOM      3  C   UNL     1      36.503 -23.684 -14.237  0.00  0.00    +0.249 C 
ATOM      4  H   UNL     1      36.431 -24.012 -16.257  0.00  0.00    +0.150 HD
ENDROOT
BRANCH   3   5
ATOM      5  C   UNL     1      37.988 -24.035 -14.294  0.00  0.00    +0.189 C 
BRANCH   5   6
ATOM      6  C   UNL     1      38.314 -25.505 -13.894  0.00  0.00    +0.060 C 
ATOM      7  C   UNL     1      39.723 -25.908 -14.372  0.00  0.00    +0.005 C 
ATOM      8  C   UNL     1      38.299 -25.610 -12.350  0.00  0.00    +0.005 C 
BRANCH   6   9
ATOM      9  C   UNL     1      37.264 -26.487 -14.471  0.00  0.00    +0.140 C 
BRANCH   9  10
ATOM     10  O   UNL     1      37.361 -26.565 -15.889  0.00  0.00    -0.382 OA
ATOM     11  H   UNL     1      37.426 -27.495 -16.157  0.00  0.00    +0.210 HD
ENDBRANCH   9  10
ENDBRANCH   6   9
ENDBRANCH   5   6
BRANCH   5  12
ATOM     12  O   UNL     1      38.407 -23.798 -15.635  0.00  0.00    -0.376 OA
ATOM     13  H   UNL     1      37.715 -23.308 -16.108  0.00  0.00    +0.211 HD
ENDBRANCH   5  12
ENDBRANCH   3   5
BRANCH   2  14
ATOM     14  C   UNL     1      34.495 -23.428 -15.685  0.00  0.00    +0.099 C 
BRANCH  14  15
ATOM     15  C   UNL     1      34.163 -23.216 -17.156  0.00  0.00    +0.107 C 
BRANCH  15  18
ATOM     16  O   UNL     1      32.341 -22.224 -18.406  0.00  0.00    -0.275 OA
ATOM     17  N   UNL     1      31.895 -23.236 -16.356  0.00  0.00    -0.282 N 
ATOM     18  C   UNL     1      32.713 -22.823 -17.401  0.00  0.00    +0.228 C 
ATOM     19  H   UNL     1      32.310 -23.710 -15.599  0.00  0.00    +0.155 HD
BRANCH  17  20
ATOM     20  C   UNL     1      30.548 -23.021 -16.320  0.00  0.00    +0.070 C 
ATOM     21  C   UNL     1      29.712 -23.817 -15.645  0.00  0.00    +0.043 C 
BRANCH  21  22
ATOM     22  S   UNL     1      30.270 -25.190 -14.758  0.00  0.00    -0.140 S 
ATOM     23  H   UNL     1      29.219 -26.006 -14.476  0.00  0.00    +0.107 HD
ENDBRANCH  21  22
ENDBRANCH  17  20
ENDBRANCH  15  18
ENDBRANCH  14  15
ENDBRANCH   2  14
TORSDOF 10
ENDMDL
MODEL 3
REMARK VINA RESULT:      -6.7      3.799      4.395
REMARK  Name = 447227
REMARK  10 active torsions:
REMARK  status: ('A' for Active; 'I' for Inactive)
REMARK    1  A    between atoms: N_2  and  C_14
REMARK    2  A    between atoms: C_3  and  C_5
REMARK    3  A    between atoms: C_5  and  C_6
REMARK    4  A    between atoms: C_5  and  O_12
REMARK    5  A    between atoms: C_6  and  C_9
REMARK    6  A    between atoms: C_9  and  O_10
REMARK    7  A    between atoms: C_14  and  C_15
REMARK    8  A    between atoms: C_15  and  C_18
REMARK    9  A    between atoms: N_17  and  C_20
REMARK   10  A    between atoms: C_21  and  S_22
REMARK                            x       y       z     vdW  Elec       q    Type
REMARK                         _______ _______ _______ _____ _____    ______ ____
ROOT
ATOM      1  O   UNL     1      36.009 -26.532 -15.853  0.00  0.00    -0.272 OA
ATOM      2  N   UNL     1      35.295 -25.074 -14.194  0.00  0.00    -0.302 N 
ATOM      3  C   UNL     1      36.174 -25.981 -14.766  0.00  0.00    +0.249 C 
ATOM      4  H   UNL     1      35.522 -24.690 -13.316  0.00  0.00    +0.150 HD
ENDROOT
BRANCH   3   5
ATOM      5  C   UNL     1      37.388 -26.264 -13.883  0.00  0.00    +0.189 C 
BRANCH   5   6
ATOM      6  C   UNL     1      38.387 -25.076 -13.769  0.00  0.00    +0.060 C 
ATOM      7  C   UNL     1      38.311 -24.420 -12.376  0.00  0.00    +0.005 C 
ATOM      8  C   UNL     1      39.824 -25.622 -13.948  0.00  0.00    +0.005 C 
BRANCH   6   9
ATOM      9  C   UNL     1      38.119 -24.012 -14.863  0.00  0.00    +0.140 C 
BRANCH   9  10
ATOM     10  O   UNL     1      39.226 -23.900 -15.751  0.00  0.00    -0.382 OA
ATOM     11  H   UNL     1      38.910 -23.930 -16.667  0.00  0.00    +0.210 HD
ENDBRANCH   9  10
ENDBRANCH   6   9
ENDBRANCH   5   6
BRANCH   5  12
ATOM     12  O   UNL     1      36.880 -26.590 -12.592  0.00  0.00    -0.376 OA
ATOM     13  H   UNL     1      36.147 -27.220 -12.683  0.00  0.00    +0.211 HD
ENDBRANCH   5  12
ENDBRANCH   3   5
BRANCH   2  14
ATOM     14  C   UNL     1      34.061 -24.668 -14.827  0.00  0.00    +0.099 C 
BRANCH  14  15
ATOM     15  C   UNL     1      34.285 -23.609 -15.898  0.00  0.00    +0.107 C 
BRANCH  15  18
ATOM     16  O   UNL     1      33.063 -23.202 -17.950  0.00  0.00    -0.275 OA
ATOM     17  N   UNL     1      31.915 -23.195 -15.923  0.00  0.00    -0.282 N 
ATOM     18  C   UNL     1      33.043 -23.312 -16.727  0.00  0.00    +0.228 C 
ATOM     19  H   UNL     1      32.024 -23.303 -14.950  0.00  0.00    +0.155 HD
BRANCH  17  20
ATOM     20  C   UNL     1      30.666 -22.938 -16.405  0.00  0.00    +0.070 C 
ATOM     21  C   UNL     1      29.604 -23.685 -16.084  0.00  0.00    +0.043 C 
BRANCH  21  22
ATOM     22  S   UNL     1      29.728 -25.044 -15.025  0.00  0.00    -0.140 S 
ATOM     23  H   UNL     1      29.575 -24.632 -13.738  0.00  0.00    +0.107 HD
ENDBRANCH  21  22
ENDBRANCH  17  20
ENDBRANCH  15  18
ENDBRANCH  14  15
ENDBRANCH   2  14
TORSDOF 10
ENDMDL
MODEL 4
REMARK VINA RESULT:      -6.7      1.818      2.366
REMARK  Name = 447227
REMARK  10 active torsions:
REMARK  status: ('A' for Active; 'I' for Inactive)
REMARK    1  A    between atoms: N_2  and  C_14
REMARK    2  A    between atoms: C_3  and  C_5
REMARK    3  A    between atoms: C_5  and  C_6
REMARK    4  A    between atoms: C_5  and  O_12
REMARK    5  A    between atoms: C_6  and  C_9
REMARK    6  A    between atoms: C_9  and  O_10
REMARK    7  A    between atoms: C_14  and  C_15
REMARK    8  A    between atoms: C_15  and  C_18
REMARK    9  A    between atoms: N_17  and  C_20
REMARK   10  A    between atoms: C_21  and  S_22
REMARK                            x       y       z     vdW  Elec       q    Type
REMARK                         _______ _______ _______ _____ _____    ______ ____
ROOT
ATOM      1  O   UNL     1      36.035 -25.081 -15.603  0.00  0.00    -0.272 OA
ATOM      2  N   UNL     1      35.311 -22.880 -15.743  0.00  0.00    -0.302 N 
ATOM      3  C   UNL     1      36.077 -23.912 -15.223  0.00  0.00    +0.249 C 
ATOM      4  H   UNL     1      35.420 -21.977 -15.366  0.00  0.00    +0.150 HD
ENDROOT
BRANCH   3   5
ATOM      5  C   UNL     1      36.982 -23.457 -14.080  0.00  0.00    +0.189 C 
BRANCH   5   6
ATOM      6  C   UNL     1      36.541 -23.961 -12.674  0.00  0.00    +0.060 C 
ATOM      7  C   UNL     1      35.008 -24.092 -12.590  0.00  0.00    +0.005 C 
ATOM      8  C   UNL     1      37.141 -25.368 -12.445  0.00  0.00    +0.005 C 
BRANCH   6   9
ATOM      9  C   UNL     1      37.048 -23.015 -11.557  0.00  0.00    +0.140 C 
BRANCH   9  10
ATOM     10  O   UNL     1      38.449 -22.792 -11.672  0.00  0.00    -0.382 OA
ATOM     11  H   UNL     1      38.916 -23.641 -11.636  0.00  0.00    +0.210 HD
ENDBRANCH   9  10
ENDBRANCH   6   9
ENDBRANCH   5   6
BRANCH   5  12
ATOM     12  O   UNL     1      38.286 -23.949 -14.380  0.00  0.00    -0.376 OA
ATOM     13  H   UNL     1      38.259 -24.450 -15.211  0.00  0.00    +0.211 HD
ENDBRANCH   5  12
ENDBRANCH   3   5
BRANCH   2  14
ATOM     14  C   UNL     1      34.359 -23.069 -16.814  0.00  0.00    +0.099 C 
BRANCH  14  15
ATOM     15  C   UNL     1      34.861 -22.507 -18.137  0.00  0.00    +0.107 C 
BRANCH  15  18
ATOM     16  O   UNL     1      32.583 -22.206 -18.903  0.00  0.00    -0.275 OA
ATOM     17  N   UNL     1      34.277 -20.908 -19.837  0.00  0.00    -0.282 N 
ATOM     18  C   UNL     1      33.764 -21.881 -18.986  0.00  0.00    +0.228 C 
ATOM     19  H   UNL     1      35.246 -20.734 -19.813  0.00  0.00    +0.155 HD
BRANCH  17  20
ATOM     20  C   UNL     1      33.514 -20.182 -20.703  0.00  0.00    +0.070 C 
ATOM     21  C   UNL     1      34.009 -19.170 -21.422  0.00  0.00    +0.043 C 
BRANCH  21  22
ATOM     22  S   UNL     1      35.667 -18.696 -21.314  0.00  0.00    -0.140 S 
ATOM     23  H   UNL     1      35.936 -17.766 -22.269  0.00  0.00    +0.107 HD
ENDBRANCH  21  22
ENDBRANCH  17  20
ENDBRANCH  15  18
ENDBRANCH  14  15
ENDBRANCH   2  14
TORSDOF 10
ENDMDL
MODEL 5
REMARK VINA RESULT:      -6.7      7.989     11.242
REMARK  Name = 447227
REMARK  10 active torsions:
REMARK  status: ('A' for Active; 'I' for Inactive)
REMARK    1  A    between atoms: N_2  and  C_14
REMARK    2  A    between atoms: C_3  and  C_5
REMARK    3  A    between atoms: C_5  and  C_6
REMARK    4  A    between atoms: C_5  and  O_12
REMARK    5  A    between atoms: C_6  and  C_9
REMARK    6  A    between atoms: C_9  and  O_10
REMARK    7  A    between atoms: C_14  and  C_15
REMARK    8  A    between atoms: C_15  and  C_18
REMARK    9  A    between atoms: N_17  and  C_20
REMARK   10  A    between atoms: C_21  and  S_22
REMARK                            x       y       z     vdW  Elec       q    Type
REMARK                         _______ _______ _______ _____ _____    ______ ____
ROOT
ATOM      1  O   UNL     1      35.667 -16.066 -23.316  0.00  0.00    -0.272 OA
ATOM      2  N   UNL     1      33.486 -15.334 -23.010  0.00  0.00    -0.302 N 
ATOM      3  C   UNL     1      34.601 -16.098 -22.702  0.00  0.00    +0.249 C 
ATOM      4  H   UNL     1      32.680 -15.436 -22.454  0.00  0.00    +0.150 HD
ENDROOT
BRANCH   3   5
ATOM      5  C   UNL     1      34.371 -17.030 -21.515  0.00  0.00    +0.189 C 
BRANCH   5   6
ATOM      6  C   UNL     1      34.787 -18.508 -21.772  0.00  0.00    +0.060 C 
ATOM      7  C   UNL     1      33.895 -19.481 -20.974  0.00  0.00    +0.005 C 
ATOM      8  C   UNL     1      34.588 -18.823 -23.274  0.00  0.00    +0.005 C 
BRANCH   6   9
ATOM      9  C   UNL     1      36.274 -18.742 -21.406  0.00  0.00    +0.140 C 
BRANCH   9  10
ATOM     10  O   UNL     1      36.396 -19.361 -20.130  0.00  0.00    -0.382 OA
ATOM     11  H   UNL     1      37.284 -19.742 -20.039  0.00  0.00    +0.210 HD
ENDBRANCH   9  10
ENDBRANCH   6   9
ENDBRANCH   5   6
BRANCH   5  12
ATOM     12  O   UNL     1      35.129 -16.499 -20.432  0.00  0.00    -0.376 OA
ATOM     13  H   UNL     1      34.646 -16.636 -19.601  0.00  0.00    +0.211 HD
ENDBRANCH   5  12
ENDBRANCH   3   5
BRANCH   2  14
ATOM     14  C   UNL     1      33.452 -14.397 -24.109  0.00  0.00    +0.099 C 
BRANCH  14  15
ATOM     15  C   UNL     1      33.257 -12.963 -23.637  0.00  0.00    +0.107 C 
BRANCH  15  18
ATOM     16  O   UNL     1      33.767 -12.033 -25.815  0.00  0.00    -0.275 OA
ATOM     17  N   UNL     1      34.405 -10.866 -23.903  0.00  0.00    -0.282 N 
ATOM     18  C   UNL     1      33.828 -11.926 -24.593  0.00  0.00    +0.228 C 
ATOM     19  H   UNL     1      34.395 -10.891 -22.918  0.00  0.00    +0.155 HD
BRANCH  17  20
ATOM     20  C   UNL     1      34.987  -9.793 -24.512  0.00  0.00    +0.070 C 
ATOM     21  C   UNL     1      34.694  -8.532 -24.179  0.00  0.00    +0.043 C 
BRANCH  21  22
ATOM     22  S   UNL     1      33.549  -8.154 -22.941  0.00  0.00    -0.140 S 
ATOM     23  H   UNL     1      33.395  -6.805 -22.863  0.00  0.00    +0.107 HD
ENDBRANCH  21  22
ENDBRANCH  17  20
ENDBRANCH  15  18
ENDBRANCH  14  15
ENDBRANCH   2  14
TORSDOF 10
ENDMDL
MODEL 6
REMARK VINA RESULT:      -6.7      4.351      5.177
REMARK  Name = 447227
REMARK  10 active torsions:
REMARK  status: ('A' for Active; 'I' for Inactive)
REMARK    1  A    between atoms: N_2  and  C_14
REMARK    2  A    between atoms: C_3  and  C_5
REMARK    3  A    between atoms: C_5  and  C_6
REMARK    4  A    between atoms: C_5  and  O_12
REMARK    5  A    between atoms: C_6  and  C_9
REMARK    6  A    between atoms: C_9  and  O_10
REMARK    7  A    between atoms: C_14  and  C_15
REMARK    8  A    between atoms: C_15  and  C_18
REMARK    9  A    between atoms: N_17  and  C_20
REMARK   10  A    between atoms: C_21  and  S_22
REMARK                            x       y       z     vdW  Elec       q    Type
REMARK                         _______ _______ _______ _____ _____    ______ ____
ROOT
ATOM      1  O   UNL     1      35.725 -24.827 -15.712  0.00  0.00    -0.272 OA
ATOM      2  N   UNL     1      34.747 -23.330 -14.233  0.00  0.00    -0.302 N 
ATOM      3  C   UNL     1      35.818 -23.984 -14.821  0.00  0.00    +0.249 C 
ATOM      4  H   UNL     1      34.932 -22.670 -13.525  0.00  0.00    +0.150 HD
ENDROOT
BRANCH   3   5
ATOM      5  C   UNL     1      37.162 -23.573 -14.225  0.00  0.00    +0.189 C 
BRANCH   5   6
ATOM      6  C   UNL     1      37.869 -24.692 -13.406  0.00  0.00    +0.060 C 
ATOM      7  C   UNL     1      38.454 -24.133 -12.094  0.00  0.00    +0.005 C 
ATOM      8  C   UNL     1      36.819 -25.763 -13.026  0.00  0.00    +0.005 C 
BRANCH   6   9
ATOM      9  C   UNL     1      38.991 -25.367 -14.233  0.00  0.00    +0.140 C 
BRANCH   9  10
ATOM     10  O   UNL     1      38.448 -26.135 -15.302  0.00  0.00    -0.382 OA
ATOM     11  H   UNL     1      38.957 -25.968 -16.111  0.00  0.00    +0.210 HD
ENDBRANCH   9  10
ENDBRANCH   6   9
ENDBRANCH   5   6
BRANCH   5  12
ATOM     12  O   UNL     1      37.987 -23.186 -15.321  0.00  0.00    -0.376 OA
ATOM     13  H   UNL     1      37.477 -22.625 -15.928  0.00  0.00    +0.211 HD
ENDBRANCH   5  12
ENDBRANCH   3   5
BRANCH   2  14
ATOM     14  C   UNL     1      33.373 -23.570 -14.610  0.00  0.00    +0.099 C 
BRANCH  14  15
ATOM     15  C   UNL     1      32.748 -24.706 -13.812  0.00  0.00    +0.107 C 
BRANCH  15  18
ATOM     16  O   UNL     1      30.710 -24.092 -12.656  0.00  0.00    -0.275 OA
ATOM     17  N   UNL     1      30.570 -25.066 -14.767  0.00  0.00    -0.282 N 
ATOM     18  C   UNL     1      31.240 -24.577 -13.651  0.00  0.00    +0.228 C 
ATOM     19  H   UNL     1      31.105 -25.433 -15.507  0.00  0.00    +0.155 HD
BRANCH  17  20
ATOM     20  C   UNL     1      29.212 -25.066 -14.893  0.00  0.00    +0.070 C 
ATOM     21  C   UNL     1      28.556 -24.143 -15.605  0.00  0.00    +0.043 C 
BRANCH  21  22
ATOM     22  S   UNL     1      29.380 -22.868 -16.430  0.00  0.00    -0.140 S 
ATOM     23  H   UNL     1      28.537 -22.289 -17.326  0.00  0.00    +0.107 HD
ENDBRANCH  21  22
ENDBRANCH  17  20
ENDBRANCH  15  18
ENDBRANCH  14  15
ENDBRANCH   2  14
TORSDOF 10
ENDMDL
MODEL 7
REMARK VINA RESULT:      -6.7      4.148      4.532
REMARK  Name = 447227
REMARK  10 active torsions:
REMARK  status: ('A' for Active; 'I' for Inactive)
REMARK    1  A    between atoms: N_2  and  C_14
REMARK    2  A    between atoms: C_3  and  C_5
REMARK    3  A    between atoms: C_5  and  C_6
REMARK    4  A    between atoms: C_5  and  O_12
REMARK    5  A    between atoms: C_6  and  C_9
REMARK    6  A    between atoms: C_9  and  O_10
REMARK    7  A    between atoms: C_14  and  C_15
REMARK    8  A    between atoms: C_15  and  C_18
REMARK    9  A    between atoms: N_17  and  C_20
REMARK   10  A    between atoms: C_21  and  S_22
REMARK                            x       y       z     vdW  Elec       q    Type
REMARK                         _______ _______ _______ _____ _____    ______ ____
ROOT
ATOM      1  O   UNL     1      35.611 -25.392 -15.349  0.00  0.00    -0.272 OA
ATOM      2  N   UNL     1      34.356 -23.454 -15.112  0.00  0.00    -0.302 N 
ATOM      3  C   UNL     1      35.035 -24.567 -14.641  0.00  0.00    +0.249 C 
ATOM      4  H   UNL     1      33.928 -22.854 -14.459  0.00  0.00    +0.150 HD
ENDROOT
BRANCH   3   5
ATOM      5  C   UNL     1      34.979 -24.694 -13.120  0.00  0.00    +0.189 C 
BRANCH   5   6
ATOM      6  C   UNL     1      36.350 -24.494 -12.410  0.00  0.00    +0.060 C 
ATOM      7  C   UNL     1      37.214 -25.767 -12.506  0.00  0.00    +0.005 C 
ATOM      8  C   UNL     1      37.116 -23.358 -13.128  0.00  0.00    +0.005 C 
BRANCH   6   9
ATOM      9  C   UNL     1      36.158 -24.103 -10.923  0.00  0.00    +0.140 C 
BRANCH   9  10
ATOM     10  O   UNL     1      35.279 -25.009 -10.265  0.00  0.00    -0.382 OA
ATOM     11  H   UNL     1      34.373 -24.663 -10.299  0.00  0.00    +0.210 HD
ENDBRANCH   9  10
ENDBRANCH   6   9
ENDBRANCH   5   6
BRANCH   5  12
ATOM     12  O   UNL     1      34.056 -23.707 -12.668  0.00  0.00    -0.376 OA
ATOM     13  H   UNL     1      34.289 -23.435 -11.766  0.00  0.00    +0.211 HD
ENDBRANCH   5  12
ENDBRANCH   3   5
BRANCH   2  14
ATOM     14  C   UNL     1      34.246 -23.135 -16.517  0.00  0.00    +0.099 C 
BRANCH  14  15
ATOM     15  C   UNL     1      32.809 -23.210 -17.015  0.00  0.00    +0.107 C 
BRANCH  15  18
ATOM     16  O   UNL     1      31.745 -22.457 -14.973  0.00  0.00    -0.275 OA
ATOM     17  N   UNL     1      30.908 -24.336 -16.065  0.00  0.00    -0.282 N 
ATOM     18  C   UNL     1      31.781 -23.268 -15.894  0.00  0.00    +0.228 C 
ATOM     19  H   UNL     1      31.036 -24.922 -16.847  0.00  0.00    +0.155 HD
BRANCH  17  20
ATOM     20  C   UNL     1      29.883 -24.620 -15.211  0.00  0.00    +0.070 C 
ATOM     21  C   UNL     1      28.621 -24.252 -15.456  0.00  0.00    +0.043 C 
BRANCH  21  22
ATOM     22  S   UNL     1      28.181 -23.383 -16.883  0.00  0.00    -0.140 S 
ATOM     23  H   UNL     1      29.054 -22.358 -17.077  0.00  0.00    +0.107 HD
ENDBRANCH  21  22
ENDBRANCH  17  20
ENDBRANCH  15  18
ENDBRANCH  14  15
ENDBRANCH   2  14
TORSDOF 10
ENDMDL
MODEL 8
REMARK VINA RESULT:      -6.7      7.935     10.860
REMARK  Name = 447227
REMARK  10 active torsions:
REMARK  status: ('A' for Active; 'I' for Inactive)
REMARK    1  A    between atoms: N_2  and  C_14
REMARK    2  A    between atoms: C_3  and  C_5
REMARK    3  A    between atoms: C_5  and  C_6
REMARK    4  A    between atoms: C_5  and  O_12
REMARK    5  A    between atoms: C_6  and  C_9
REMARK    6  A    between atoms: C_9  and  O_10
REMARK    7  A    between atoms: C_14  and  C_15
REMARK    8  A    between atoms: C_15  and  C_18
REMARK    9  A    between atoms: N_17  and  C_20
REMARK   10  A    between atoms: C_21  and  S_22
REMARK                            x       y       z     vdW  Elec       q    Type
REMARK                         _______ _______ _______ _____ _____    ______ ____
ROOT
ATOM      1  O   UNL     1      35.609 -16.030 -23.241  0.00  0.00    -0.272 OA
ATOM      2  N   UNL     1      33.377 -15.453 -22.968  0.00  0.00    -0.302 N 
ATOM      3  C   UNL     1      34.540 -16.132 -22.640  0.00  0.00    +0.249 C 
ATOM      4  H   UNL     1      32.573 -15.608 -22.421  0.00  0.00    +0.150 HD
ENDROOT
BRANCH   3   5
ATOM      5  C   UNL     1      34.362 -17.068 -21.447  0.00  0.00    +0.189 C 
BRANCH   5   6
ATOM      6  C   UNL     1      34.798 -18.539 -21.716  0.00  0.00    +0.060 C 
ATOM      7  C   UNL     1      33.940 -19.528 -20.903  0.00  0.00    +0.005 C 
ATOM      8  C   UNL     1      34.574 -18.853 -23.215  0.00  0.00    +0.005 C 
BRANCH   6   9
ATOM      9  C   UNL     1      36.296 -18.748 -21.382  0.00  0.00    +0.140 C 
BRANCH   9  10
ATOM     10  O   UNL     1      36.454 -19.401 -20.127  0.00  0.00    -0.382 OA
ATOM     11  H   UNL     1      36.859 -20.272 -20.265  0.00  0.00    +0.210 HD
ENDBRANCH   9  10
ENDBRANCH   6   9
ENDBRANCH   5   6
BRANCH   5  12
ATOM     12  O   UNL     1      35.142 -16.523 -20.387  0.00  0.00    -0.376 OA
ATOM     13  H   UNL     1      36.075 -16.756 -20.519  0.00  0.00    +0.211 HD
ENDBRANCH   5  12
ENDBRANCH   3   5
BRANCH   2  14
ATOM     14  C   UNL     1      33.290 -14.530 -24.076  0.00  0.00    +0.099 C 
BRANCH  14  15
ATOM     15  C   UNL     1      33.627 -13.103 -23.666  0.00  0.00    +0.107 C 
BRANCH  15  18
ATOM     16  O   UNL     1      31.942 -13.125 -21.926  0.00  0.00    -0.275 OA
ATOM     17  N   UNL     1      32.504 -11.104 -22.940  0.00  0.00    -0.282 N 
ATOM     18  C   UNL     1      32.594 -12.477 -22.741  0.00  0.00    +0.228 C 
ATOM     19  H   UNL     1      33.080 -10.695 -23.626  0.00  0.00    +0.155 HD
BRANCH  17  20
ATOM     20  C   UNL     1      31.661 -10.292 -22.240  0.00  0.00    +0.070 C 
ATOM     21  C   UNL     1      31.873  -8.979 -22.110  0.00  0.00    +0.043 C 
BRANCH  21  22
ATOM     22  S   UNL     1      33.237  -8.196 -22.825  0.00  0.00    -0.140 S 
ATOM     23  H   UNL     1      32.951  -7.874 -24.115  0.00  0.00    +0.107 HD
ENDBRANCH  21  22
ENDBRANCH  17  20
ENDBRANCH  15  18
ENDBRANCH  14  15
ENDBRANCH   2  14
TORSDOF 10
ENDMDL
MODEL 9
REMARK VINA RESULT:      -6.6      4.159      4.636
REMARK  Name = 447227
REMARK  10 active torsions:
REMARK  status: ('A' for Active; 'I' for Inactive)
REMARK    1  A    between atoms: N_2  and  C_14
REMARK    2  A    between atoms: C_3  and  C_5
REMARK    3  A    between atoms: C_5  and  C_6
REMARK    4  A    between atoms: C_5  and  O_12
REMARK    5  A    between atoms: C_6  and  C_9
REMARK    6  A    between atoms: C_9  and  O_10
REMARK    7  A    between atoms: C_14  and  C_15
REMARK    8  A    between atoms: C_15  and  C_18
REMARK    9  A    between atoms: N_17  and  C_20
REMARK   10  A    between atoms: C_21  and  S_22
REMARK                            x       y       z     vdW  Elec       q    Type
REMARK                         _______ _______ _______ _____ _____    ______ ____
ROOT
ATOM      1  O   UNL     1      35.191 -24.913 -15.818  0.00  0.00    -0.272 OA
ATOM      2  N   UNL     1      34.814 -24.126 -13.667  0.00  0.00    -0.302 N 
ATOM      3  C   UNL     1      35.610 -24.468 -14.750  0.00  0.00    +0.249 C 
ATOM      4  H   UNL     1      35.250 -23.778 -12.856  0.00  0.00    +0.150 HD
ENDROOT
BRANCH   3   5
ATOM      5  C   UNL     1      37.098 -24.263 -14.478  0.00  0.00    +0.189 C 
BRANCH   5   6
ATOM      6  C   UNL     1      37.840 -25.538 -13.981  0.00  0.00    +0.060 C 
ATOM      7  C   UNL     1      39.330 -25.501 -14.375  0.00  0.00    +0.005 C 
ATOM      8  C   UNL     1      37.769 -25.579 -12.436  0.00  0.00    +0.005 C 
BRANCH   6   9
ATOM      9  C   UNL     1      37.182 -26.823 -14.544  0.00  0.00    +0.140 C 
BRANCH   9  10
ATOM     10  O   UNL     1      37.369 -26.919 -15.952  0.00  0.00    -0.382 OA
ATOM     11  H   UNL     1      37.564 -26.040 -16.313  0.00  0.00    +0.210 HD
ENDBRANCH   9  10
ENDBRANCH   6   9
ENDBRANCH   5   6
BRANCH   5  12
ATOM     12  O   UNL     1      37.674 -23.820 -15.704  0.00  0.00    -0.376 OA
ATOM     13  H   UNL     1      37.029 -23.929 -16.422  0.00  0.00    +0.211 HD
ENDBRANCH   5  12
ENDBRANCH   3   5
BRANCH   2  14
ATOM     14  C   UNL     1      33.375 -24.258 -13.674  0.00  0.00    +0.099 C 
BRANCH  14  15
ATOM     15  C   UNL     1      32.697 -23.126 -14.434  0.00  0.00    +0.107 C 
BRANCH  15  18
ATOM     16  O   UNL     1      32.190 -23.442 -16.781  0.00  0.00    -0.275 OA
ATOM     17  N   UNL     1      30.697 -24.236 -15.179  0.00  0.00    -0.282 N 
ATOM     18  C   UNL     1      31.857 -23.603 -15.610  0.00  0.00    +0.228 C 
ATOM     19  H   UNL     1      30.538 -24.305 -14.210  0.00  0.00    +0.155 HD
BRANCH  17  20
ATOM     20  C   UNL     1      29.767 -24.767 -16.024  0.00  0.00    +0.070 C 
ATOM     21  C   UNL     1      28.652 -24.115 -16.365  0.00  0.00    +0.043 C 
BRANCH  21  22
ATOM     22  S   UNL     1      28.295 -22.535 -15.764  0.00  0.00    -0.140 S 
ATOM     23  H   UNL     1      27.935 -22.619 -14.455  0.00  0.00    +0.107 HD
ENDBRANCH  21  22
ENDBRANCH  17  20
ENDBRANCH  15  18
ENDBRANCH  14  15
ENDBRANCH   2  14
TORSDOF 10
ENDMDL
