MODEL 1
REMARK VINA RESULT:      -7.2      0.000      0.000
REMARK  Name = 46937125
REMARK  5 active torsions:
REMARK  status: ('A' for Active; 'I' for Inactive)
REMARK    1  A    between atoms: C_4  and  C_11
REMARK    2  A    between atoms: C_6  and  O_16
REMARK    3  A    between atoms: CA_9  and  C_19
REMARK    4  A    between atoms: C_11  and  C_15
REMARK    5  A    between atoms: C_19  and  O_20
REMARK                            x       y       z     vdW  Elec       q    Type
REMARK                         _______ _______ _______ _____ _____    ______ ____
ROOT
ATOM      1  N   UNL     1      31.354 -10.092 -21.928  0.00  0.00    -0.326 N 
ATOM      2  C   UNL     1      32.611  -9.092 -23.652  0.00  0.00    +0.044 C 
ATOM      3  C   UNL     1      32.872 -10.584 -23.498  0.00  0.00    +0.003 C 
ATOM      4  C   UNL     1      31.534  -8.792 -22.557  0.00  0.00    +0.099 C 
ATOM      5  C   UNL     1      33.940  -8.335 -23.555  0.00  0.00    +0.006 C 
ATOM      6  C   UNL     1      33.903 -11.221 -24.366  0.00  0.00    +0.135 C 
ATOM      7  C   UNL     1      34.971  -8.904 -24.538  0.00  0.00    +0.003 C 
ATOM      8  C   UNL     1      35.202 -10.406 -24.312  0.00  0.00    +0.034 C 
ATOM      9  CA  UNL     1      32.123 -11.068 -22.500  0.00  0.00    +0.116 C 
ATOM     10  H   UNL     1      30.744 -10.252 -21.173  0.00  0.00    +0.147 HD
ENDROOT
BRANCH   4  11
ATOM     11  C   UNL     1      31.884  -7.779 -21.523  0.00  0.00    +0.034 C 
ATOM     12  C   UNL     1      31.682  -6.452 -21.570  0.00  0.00    -0.025 C 
ATOM     13  C   UNL     1      31.057  -5.670 -22.682  0.00  0.00    +0.031 C 
BRANCH  11  15
ATOM     14  O   UNL     1      31.905  -8.704 -19.319  0.00  0.00    -0.283 OA
ATOM     15  C   UNL     1      32.537  -8.289 -20.284  0.00  0.00    +0.231 C 
ENDBRANCH  11  15
ENDBRANCH   4  11
BRANCH   6  16
ATOM     16  O   UNL     1      33.408 -11.244 -25.703  0.00  0.00    -0.349 OA
ATOM     17  C   UNL     1      33.548 -12.532 -26.284  0.00  0.00    +0.174 C 
ENDBRANCH   6  16
BRANCH   9  19
ATOM     18  OXT UNL     1      32.238 -12.772 -20.847  0.00  0.00    -0.244 OA
ATOM     19  C   UNL     1      32.093 -12.439 -22.016  0.00  0.00    +0.351 C 
BRANCH  19  20
ATOM     20  O   UNL     1      31.880 -13.290 -23.046  0.00  0.00    -0.476 OA
ATOM     21  H   UNL     1      31.072 -13.260 -23.519  0.00  0.00    +0.295 HD
ENDBRANCH  19  20
ENDBRANCH   9  19
TORSDOF 5
ENDMDL
MODEL 2
REMARK VINA RESULT:      -7.0     15.493     17.006
REMARK  Name = 46937125
REMARK  5 active torsions:
REMARK  status: ('A' for Active; 'I' for Inactive)
REMARK    1  A    between atoms: C_4  and  C_11
REMARK    2  A    between atoms: C_6  and  O_16
REMARK    3  A    between atoms: CA_9  and  C_19
REMARK    4  A    between atoms: C_11  and  C_15
REMARK    5  A    between atoms: C_19  and  O_20
REMARK                            x       y       z     vdW  Elec       q    Type
REMARK                         _______ _______ _______ _____ _____    ______ ____
ROOT
ATOM      1  N   UNL     1      33.807 -24.775 -13.216  0.00  0.00    -0.326 N 
ATOM      2  C   UNL     1      34.863 -24.190 -15.239  0.00  0.00    +0.044 C 
ATOM      3  C   UNL     1      35.826 -24.316 -14.067  0.00  0.00    +0.003 C 
ATOM      4  C   UNL     1      33.472 -24.538 -14.612  0.00  0.00    +0.099 C 
ATOM      5  C   UNL     1      35.019 -22.804 -15.875  0.00  0.00    +0.006 C 
ATOM      6  C   UNL     1      37.266 -24.000 -14.290  0.00  0.00    +0.135 C 
ATOM      7  C   UNL     1      36.486 -22.521 -16.224  0.00  0.00    +0.003 C 
ATOM      8  C   UNL     1      37.397 -22.642 -14.993  0.00  0.00    +0.034 C 
ATOM      9  CA  UNL     1      35.145 -24.645 -12.963  0.00  0.00    +0.116 C 
ATOM     10  H   UNL     1      33.142 -25.004 -12.528  0.00  0.00    +0.147 HD
ENDROOT
BRANCH   4  11
ATOM     11  C   UNL     1      32.410 -23.498 -14.703  0.00  0.00    +0.034 C 
ATOM     12  C   UNL     1      31.857 -22.983 -15.814  0.00  0.00    -0.025 C 
ATOM     13  C   UNL     1      32.183 -23.329 -17.232  0.00  0.00    +0.031 C 
BRANCH  11  15
ATOM     14  O   UNL     1      31.074 -23.557 -12.723  0.00  0.00    -0.283 OA
ATOM     15  C   UNL     1      31.891 -22.960 -13.414  0.00  0.00    +0.231 C 
ENDBRANCH  11  15
ENDBRANCH   4  11
BRANCH   6  16
ATOM     16  O   UNL     1      37.824 -25.021 -15.114  0.00  0.00    -0.349 OA
ATOM     17  C   UNL     1      38.833 -25.746 -14.426  0.00  0.00    +0.174 C 
ENDBRANCH   6  16
BRANCH   9  19
ATOM     18  OXT UNL     1      35.378 -24.179 -10.645  0.00  0.00    -0.244 OA
ATOM     19  C   UNL     1      35.687 -24.839 -11.628  0.00  0.00    +0.351 C 
BRANCH  19  20
ATOM     20  O   UNL     1      36.579 -25.856 -11.633  0.00  0.00    -0.476 OA
ATOM     21  H   UNL     1      37.096 -26.023 -12.396  0.00  0.00    +0.295 HD
ENDBRANCH  19  20
ENDBRANCH   9  19
TORSDOF 5
ENDMDL
MODEL 3
REMARK VINA RESULT:      -7.0      5.873      8.872
REMARK  Name = 46937125
REMARK  5 active torsions:
REMARK  status: ('A' for Active; 'I' for Inactive)
REMARK    1  A    between atoms: C_4  and  C_11
REMARK    2  A    between atoms: C_6  and  O_16
REMARK    3  A    between atoms: CA_9  and  C_19
REMARK    4  A    between atoms: C_11  and  C_15
REMARK    5  A    between atoms: C_19  and  O_20
REMARK                            x       y       z     vdW  Elec       q    Type
REMARK                         _______ _______ _______ _____ _____    ______ ____
ROOT
ATOM      1  N   UNL     1      34.443 -18.250 -23.587  0.00  0.00    -0.326 N 
ATOM      2  C   UNL     1      33.941 -17.021 -21.641  0.00  0.00    +0.044 C 
ATOM      3  C   UNL     1      33.914 -16.183 -22.911  0.00  0.00    +0.003 C 
ATOM      4  C   UNL     1      34.291 -18.457 -22.155  0.00  0.00    +0.099 C 
ATOM      5  C   UNL     1      34.905 -16.382 -20.634  0.00  0.00    +0.006 C 
ATOM      6  C   UNL     1      33.656 -14.719 -22.794  0.00  0.00    +0.135 C 
ATOM      7  C   UNL     1      34.566 -14.902 -20.412  0.00  0.00    +0.003 C 
ATOM      8  C   UNL     1      34.580 -14.112 -21.730  0.00  0.00    +0.034 C 
ATOM      9  CA  UNL     1      34.212 -16.955 -23.962  0.00  0.00    +0.116 C 
ATOM     10  H   UNL     1      34.685 -18.965 -24.218  0.00  0.00    +0.147 HD
ENDROOT
BRANCH   4  11
ATOM     11  C   UNL     1      35.522 -19.091 -21.607  0.00  0.00    +0.034 C 
ATOM     12  C   UNL     1      35.605 -20.077 -20.697  0.00  0.00    -0.025 C 
ATOM     13  C   UNL     1      34.473 -20.772 -20.011  0.00  0.00    +0.031 C 
BRANCH  11  15
ATOM     14  O   UNL     1      37.904 -18.901 -21.646  0.00  0.00    -0.283 OA
ATOM     15  C   UNL     1      36.822 -18.577 -22.123  0.00  0.00    +0.231 C 
ENDBRANCH  11  15
ENDBRANCH   4  11
BRANCH   6  16
ATOM     16  O   UNL     1      32.296 -14.535 -22.408  0.00  0.00    -0.349 OA
ATOM     17  C   UNL     1      31.998 -13.162 -22.204  0.00  0.00    +0.174 C 
ENDBRANCH   6  16
BRANCH   9  19
ATOM     18  OXT UNL     1      33.443 -15.945 -25.971  0.00  0.00    -0.244 OA
ATOM     19  C   UNL     1      34.316 -16.538 -25.351  0.00  0.00    +0.351 C 
BRANCH  19  20
ATOM     20  O   UNL     1      35.517 -16.902 -25.857  0.00  0.00    -0.476 OA
ATOM     21  H   UNL     1      35.851 -17.763 -25.698  0.00  0.00    +0.295 HD
ENDBRANCH  19  20
ENDBRANCH   9  19
TORSDOF 5
ENDMDL
MODEL 4
REMARK VINA RESULT:      -6.7      5.656      8.466
REMARK  Name = 46937125
REMARK  5 active torsions:
REMARK  status: ('A' for Active; 'I' for Inactive)
REMARK    1  A    between atoms: C_4  and  C_11
REMARK    2  A    between atoms: C_6  and  O_16
REMARK    3  A    between atoms: CA_9  and  C_19
REMARK    4  A    between atoms: C_11  and  C_15
REMARK    5  A    between atoms: C_19  and  O_20
REMARK                            x       y       z     vdW  Elec       q    Type
REMARK                         _______ _______ _______ _____ _____    ______ ____
ROOT
ATOM      1  N   UNL     1      34.443 -16.906 -20.503  0.00  0.00    -0.326 N 
ATOM      2  C   UNL     1      35.410 -16.861 -22.650  0.00  0.00    +0.044 C 
ATOM      3  C   UNL     1      34.143 -16.026 -22.539  0.00  0.00    +0.003 C 
ATOM      4  C   UNL     1      35.598 -17.439 -21.209  0.00  0.00    +0.099 C 
ATOM      5  C   UNL     1      35.252 -17.868 -23.795  0.00  0.00    +0.006 C 
ATOM      6  C   UNL     1      33.622 -15.352 -23.763  0.00  0.00    +0.135 C 
ATOM      7  C   UNL     1      34.839 -17.164 -25.094  0.00  0.00    +0.003 C 
ATOM      8  C   UNL     1      33.542 -16.361 -24.916  0.00  0.00    +0.034 C 
ATOM      9  CA  UNL     1      33.661 -16.111 -21.293  0.00  0.00    +0.116 C 
ATOM     10  H   UNL     1      34.247 -17.097 -19.558  0.00  0.00    +0.147 HD
ENDROOT
BRANCH   4  11
ATOM     11  C   UNL     1      35.628 -18.922 -21.073  0.00  0.00    +0.034 C 
ATOM     12  C   UNL     1      34.582 -19.765 -21.034  0.00  0.00    -0.025 C 
ATOM     13  C   UNL     1      33.131 -19.412 -21.113  0.00  0.00    +0.031 C 
BRANCH  11  15
ATOM     14  O   UNL     1      37.992 -19.031 -21.402  0.00  0.00    -0.283 OA
ATOM     15  C   UNL     1      36.972 -19.555 -20.967  0.00  0.00    +0.231 C 
ENDBRANCH  11  15
ENDBRANCH   4  11
BRANCH   6  16
ATOM     16  O   UNL     1      34.521 -14.300 -24.109  0.00  0.00    -0.349 OA
ATOM     17  C   UNL     1      33.877 -13.036 -24.067  0.00  0.00    +0.174 C 
ENDBRANCH   6  16
BRANCH   9  19
ATOM     18  OXT UNL     1      32.318 -14.281 -20.588  0.00  0.00    -0.244 OA
ATOM     19  C   UNL     1      32.455 -15.482 -20.779  0.00  0.00    +0.351 C 
BRANCH  19  20
ATOM     20  O   UNL     1      31.507 -16.419 -20.543  0.00  0.00    -0.476 OA
ATOM     21  H   UNL     1      31.758 -17.286 -20.292  0.00  0.00    +0.295 HD
ENDBRANCH  19  20
ENDBRANCH   9  19
TORSDOF 5
ENDMDL
MODEL 5
REMARK VINA RESULT:      -6.7     13.901     16.054
REMARK  Name = 46937125
REMARK  5 active torsions:
REMARK  status: ('A' for Active; 'I' for Inactive)
REMARK    1  A    between atoms: C_4  and  C_11
REMARK    2  A    between atoms: C_6  and  O_16
REMARK    3  A    between atoms: CA_9  and  C_19
REMARK    4  A    between atoms: C_11  and  C_15
REMARK    5  A    between atoms: C_19  and  O_20
REMARK                            x       y       z     vdW  Elec       q    Type
REMARK                         _______ _______ _______ _____ _____    ______ ____
ROOT
ATOM      1  N   UNL     1      34.724 -23.648 -16.584  0.00  0.00    -0.326 N 
ATOM      2  C   UNL     1      33.201 -24.117 -14.849  0.00  0.00    +0.044 C 
ATOM      3  C   UNL     1      32.538 -23.578 -16.109  0.00  0.00    +0.003 C 
ATOM      4  C   UNL     1      34.719 -24.172 -15.227  0.00  0.00    +0.099 C 
ATOM      5  C   UNL     1      32.807 -23.240 -13.656  0.00  0.00    +0.006 C 
ATOM      6  C   UNL     1      31.066 -23.342 -16.095  0.00  0.00    +0.135 C 
ATOM      7  C   UNL     1      31.282 -23.096 -13.559  0.00  0.00    +0.003 C 
ATOM      8  C   UNL     1      30.683 -22.525 -14.853  0.00  0.00    +0.034 C 
ATOM      9  CA  UNL     1      33.471 -23.337 -17.037  0.00  0.00    +0.116 C 
ATOM     10  H   UNL     1      35.541 -23.531 -17.120  0.00  0.00    +0.147 HD
ENDROOT
BRANCH   4  11
ATOM     11  C   UNL     1      35.656 -23.382 -14.381  0.00  0.00    +0.034 C 
ATOM     12  C   UNL     1      36.036 -23.636 -13.118  0.00  0.00    -0.025 C 
ATOM     13  C   UNL     1      35.601 -24.776 -12.253  0.00  0.00    +0.031 C 
BRANCH  11  15
ATOM     14  O   UNL     1      37.240 -22.197 -15.721  0.00  0.00    -0.283 OA
ATOM     15  C   UNL     1      36.248 -22.164 -15.002  0.00  0.00    +0.231 C 
ENDBRANCH  11  15
ENDBRANCH   4  11
BRANCH   6  16
ATOM     16  O   UNL     1      30.412 -24.608 -16.055  0.00  0.00    -0.349 OA
ATOM     17  C   UNL     1      29.000 -24.461 -16.079  0.00  0.00    +0.174 C 
ENDBRANCH   6  16
BRANCH   9  19
ATOM     18  OXT UNL     1      32.626 -21.778 -18.620  0.00  0.00    -0.244 OA
ATOM     19  C   UNL     1      33.259 -22.795 -18.370  0.00  0.00    +0.351 C 
BRANCH  19  20
ATOM     20  O   UNL     1      33.865 -23.580 -19.291  0.00  0.00    -0.476 OA
ATOM     21  H   UNL     1      34.734 -23.893 -19.140  0.00  0.00    +0.295 HD
ENDBRANCH  19  20
ENDBRANCH   9  19
TORSDOF 5
ENDMDL
MODEL 6
REMARK VINA RESULT:      -6.6      3.190      6.144
REMARK  Name = 46937125
REMARK  5 active torsions:
REMARK  status: ('A' for Active; 'I' for Inactive)
REMARK    1  A    between atoms: C_4  and  C_11
REMARK    2  A    between atoms: C_6  and  O_16
REMARK    3  A    between atoms: CA_9  and  C_19
REMARK    4  A    between atoms: C_11  and  C_15
REMARK    5  A    between atoms: C_19  and  O_20
REMARK                            x       y       z     vdW  Elec       q    Type
REMARK                         _______ _______ _______ _____ _____    ______ ____
ROOT
ATOM      1  N   UNL     1      33.466 -13.626 -21.662  0.00  0.00    -0.326 N 
ATOM      2  C   UNL     1      34.288 -14.601 -23.643  0.00  0.00    +0.044 C 
ATOM      3  C   UNL     1      33.424 -13.372 -23.886  0.00  0.00    +0.003 C 
ATOM      4  C   UNL     1      34.311 -14.733 -22.083  0.00  0.00    +0.099 C 
ATOM      5  C   UNL     1      33.721 -15.782 -24.438  0.00  0.00    +0.006 C 
ATOM      6  C   UNL     1      33.137 -12.968 -25.292  0.00  0.00    +0.135 C 
ATOM      7  C   UNL     1      33.541 -15.414 -25.917  0.00  0.00    +0.003 C 
ATOM      8  C   UNL     1      32.641 -14.182 -26.089  0.00  0.00    +0.034 C 
ATOM      9  CA  UNL     1      32.999 -12.886 -22.714  0.00  0.00    +0.116 C 
ATOM     10  H   UNL     1      33.254 -13.430 -20.722  0.00  0.00    +0.147 HD
ENDROOT
BRANCH   4  11
ATOM     11  C   UNL     1      33.798 -16.004 -21.504  0.00  0.00    +0.034 C 
ATOM     12  C   UNL     1      34.405 -17.203 -21.483  0.00  0.00    -0.025 C 
ATOM     13  C   UNL     1      35.747 -17.548 -22.046  0.00  0.00    +0.031 C 
BRANCH  11  15
ATOM     14  O   UNL     1      32.228 -15.345 -19.827  0.00  0.00    -0.283 OA
ATOM     15  C   UNL     1      32.452 -15.951 -20.868  0.00  0.00    +0.231 C 
ENDBRANCH  11  15
ENDBRANCH   4  11
BRANCH   6  16
ATOM     16  O   UNL     1      34.345 -12.478 -25.870  0.00  0.00    -0.349 OA
ATOM     17  C   UNL     1      34.554 -11.111 -25.548  0.00  0.00    +0.174 C 
ENDBRANCH   6  16
BRANCH   9  19
ATOM     18  OXT UNL     1      32.391 -10.593 -22.859  0.00  0.00    -0.244 OA
ATOM     19  C   UNL     1      32.133 -11.736 -22.507  0.00  0.00    +0.351 C 
BRANCH  19  20
ATOM     20  O   UNL     1      31.002 -12.116 -21.869  0.00  0.00    -0.476 OA
ATOM     21  H   UNL     1      30.206 -11.643 -22.006  0.00  0.00    +0.295 HD
ENDBRANCH  19  20
ENDBRANCH   9  19
TORSDOF 5
ENDMDL
MODEL 7
REMARK VINA RESULT:      -6.5      2.540      5.764
REMARK  Name = 46937125
REMARK  5 active torsions:
REMARK  status: ('A' for Active; 'I' for Inactive)
REMARK    1  A    between atoms: C_4  and  C_11
REMARK    2  A    between atoms: C_6  and  O_16
REMARK    3  A    between atoms: CA_9  and  C_19
REMARK    4  A    between atoms: C_11  and  C_15
REMARK    5  A    between atoms: C_19  and  O_20
REMARK                            x       y       z     vdW  Elec       q    Type
REMARK                         _______ _______ _______ _____ _____    ______ ____
ROOT
ATOM      1  N   UNL     1      34.214 -12.114 -24.470  0.00  0.00    -0.326 N 
ATOM      2  C   UNL     1      32.230 -12.205 -23.203  0.00  0.00    +0.044 C 
ATOM      3  C   UNL     1      32.874 -10.826 -23.223  0.00  0.00    +0.003 C 
ATOM      4  C   UNL     1      33.180 -13.068 -24.099  0.00  0.00    +0.099 C 
ATOM      5  C   UNL     1      32.040 -12.651 -21.749  0.00  0.00    +0.006 C 
ATOM      6  C   UNL     1      32.253  -9.736 -22.417  0.00  0.00    +0.135 C 
ATOM      7  C   UNL     1      31.287 -11.587 -20.940  0.00  0.00    +0.003 C 
ATOM      8  C   UNL     1      32.003 -10.228 -20.985  0.00  0.00    +0.034 C 
ATOM      9  CA  UNL     1      33.991 -10.865 -23.959  0.00  0.00    +0.116 C 
ATOM     10  H   UNL     1      34.990 -12.343 -25.030  0.00  0.00    +0.147 HD
ENDROOT
BRANCH   4  11
ATOM     11  C   UNL     1      33.804 -14.264 -23.467  0.00  0.00    +0.034 C 
ATOM     12  C   UNL     1      34.006 -15.473 -24.018  0.00  0.00    -0.025 C 
ATOM     13  C   UNL     1      33.645 -15.909 -25.402  0.00  0.00    +0.031 C 
BRANCH  11  15
ATOM     14  O   UNL     1      34.649 -15.053 -21.376  0.00  0.00    -0.283 OA
ATOM     15  C   UNL     1      34.262 -14.110 -22.058  0.00  0.00    +0.231 C 
ENDBRANCH  11  15
ENDBRANCH   4  11
BRANCH   6  16
ATOM     16  O   UNL     1      31.012  -9.384 -23.025  0.00  0.00    -0.349 OA
ATOM     17  C   UNL     1      31.066  -8.084 -23.594  0.00  0.00    +0.174 C 
ENDBRANCH   6  16
BRANCH   9  19
ATOM     18  OXT UNL     1      34.903  -8.697 -23.618  0.00  0.00    -0.244 OA
ATOM     19  C   UNL     1      34.910  -9.767 -24.212  0.00  0.00    +0.351 C 
BRANCH  19  20
ATOM     20  O   UNL     1      35.775 -10.103 -25.197  0.00  0.00    -0.476 OA
ATOM     21  H   UNL     1      36.118  -9.442 -25.765  0.00  0.00    +0.295 HD
ENDBRANCH  19  20
ENDBRANCH   9  19
TORSDOF 5
ENDMDL
MODEL 8
REMARK VINA RESULT:      -6.4      4.797      7.452
REMARK  Name = 46937125
REMARK  5 active torsions:
REMARK  status: ('A' for Active; 'I' for Inactive)
REMARK    1  A    between atoms: C_4  and  C_11
REMARK    2  A    between atoms: C_6  and  O_16
REMARK    3  A    between atoms: CA_9  and  C_19
REMARK    4  A    between atoms: C_11  and  C_15
REMARK    5  A    between atoms: C_19  and  O_20
REMARK                            x       y       z     vdW  Elec       q    Type
REMARK                         _______ _______ _______ _____ _____    ______ ____
ROOT
ATOM      1  N   UNL     1      34.676 -16.129 -24.919  0.00  0.00    -0.326 N 
ATOM      2  C   UNL     1      34.340 -15.212 -22.775  0.00  0.00    +0.044 C 
ATOM      3  C   UNL     1      34.311 -16.733 -22.794  0.00  0.00    +0.003 C 
ATOM      4  C   UNL     1      34.618 -14.829 -24.267  0.00  0.00    +0.099 C 
ATOM      5  C   UNL     1      33.043 -14.690 -22.146  0.00  0.00    +0.006 C 
ATOM      6  C   UNL     1      34.015 -17.458 -21.525  0.00  0.00    +0.135 C 
ATOM      7  C   UNL     1      32.795 -15.339 -20.778  0.00  0.00    +0.003 C 
ATOM      8  C   UNL     1      32.755 -16.871 -20.875  0.00  0.00    +0.034 C 
ATOM      9  CA  UNL     1      34.506 -17.167 -24.045  0.00  0.00    +0.116 C 
ATOM     10  H   UNL     1      34.822 -16.248 -25.884  0.00  0.00    +0.147 HD
ENDROOT
BRANCH   4  11
ATOM     11  C   UNL     1      33.606 -13.973 -24.945  0.00  0.00    +0.034 C 
ATOM     12  C   UNL     1      33.388 -12.659 -24.767  0.00  0.00    -0.025 C 
ATOM     13  C   UNL     1      34.111 -11.740 -23.835  0.00  0.00    +0.031 C 
BRANCH  11  15
ATOM     14  O   UNL     1      33.139 -15.079 -27.011  0.00  0.00    -0.283 OA
ATOM     15  C   UNL     1      32.726 -14.644 -25.942  0.00  0.00    +0.231 C 
ENDBRANCH  11  15
ENDBRANCH   4  11
BRANCH   6  16
ATOM     16  O   UNL     1      35.127 -17.293 -20.648  0.00  0.00    -0.349 OA
ATOM     17  C   UNL     1      36.052 -18.362 -20.780  0.00  0.00    +0.174 C 
ENDBRANCH   6  16
BRANCH   9  19
ATOM     18  OXT UNL     1      35.189 -19.443 -23.987  0.00  0.00    -0.244 OA
ATOM     19  C   UNL     1      34.527 -18.550 -24.497  0.00  0.00    +0.351 C 
BRANCH  19  20
ATOM     20  O   UNL     1      33.706 -18.702 -25.562  0.00  0.00    -0.476 OA
ATOM     21  H   UNL     1      33.065 -18.047 -25.757  0.00  0.00    +0.295 HD
ENDBRANCH  19  20
ENDBRANCH   9  19
TORSDOF 5
ENDMDL
MODEL 9
REMARK VINA RESULT:      -6.4     13.864     15.888
REMARK  Name = 46937125
REMARK  5 active torsions:
REMARK  status: ('A' for Active; 'I' for Inactive)
REMARK    1  A    between atoms: C_4  and  C_11
REMARK    2  A    between atoms: C_6  and  O_16
REMARK    3  A    between atoms: CA_9  and  C_19
REMARK    4  A    between atoms: C_11  and  C_15
REMARK    5  A    between atoms: C_19  and  O_20
REMARK                            x       y       z     vdW  Elec       q    Type
REMARK                         _______ _______ _______ _____ _____    ______ ____
ROOT
ATOM      1  N   UNL     1      31.746 -22.895 -16.759  0.00  0.00    -0.326 N 
ATOM      2  C   UNL     1      33.103 -23.209 -14.859  0.00  0.00    +0.044 C 
ATOM      3  C   UNL     1      33.885 -23.182 -16.164  0.00  0.00    +0.003 C 
ATOM      4  C   UNL     1      31.622 -22.985 -15.312  0.00  0.00    +0.099 C 
ATOM      5  C   UNL     1      33.417 -24.509 -14.109  0.00  0.00    +0.006 C 
ATOM      6  C   UNL     1      35.356 -23.419 -16.119  0.00  0.00    +0.135 C 
ATOM      7  C   UNL     1      34.931 -24.698 -13.946  0.00  0.00    +0.003 C 
ATOM      8  C   UNL     1      35.654 -24.684 -15.302  0.00  0.00    +0.034 C 
ATOM      9  CA  UNL     1      33.041 -23.004 -17.187  0.00  0.00    +0.116 C 
ATOM     10  H   UNL     1      30.981 -22.769 -17.365  0.00  0.00    +0.147 HD
ENDROOT
BRANCH   4  11
ATOM     11  C   UNL     1      30.637 -24.045 -14.959  0.00  0.00    +0.034 C 
ATOM     12  C   UNL     1      30.180 -24.367 -13.737  0.00  0.00    -0.025 C 
ATOM     13  C   UNL     1      30.557 -23.739 -12.434  0.00  0.00    +0.031 C 
BRANCH  11  15
ATOM     14  O   UNL     1      28.977 -24.653 -16.566  0.00  0.00    -0.283 OA
ATOM     15  C   UNL     1      30.089 -24.847 -16.087  0.00  0.00    +0.231 C 
ENDBRANCH  11  15
ENDBRANCH   4  11
BRANCH   6  16
ATOM     16  O   UNL     1      35.971 -22.293 -15.498  0.00  0.00    -0.349 OA
ATOM     17  C   UNL     1      37.208 -21.972 -16.115  0.00  0.00    +0.174 C 
ENDBRANCH   6  16
BRANCH   9  19
ATOM     18  OXT UNL     1      33.927 -23.840 -19.228  0.00  0.00    -0.244 OA
ATOM     19  C   UNL     1      33.381 -22.943 -18.600  0.00  0.00    +0.351 C 
BRANCH  19  20
ATOM     20  O   UNL     1      33.004 -21.750 -19.116  0.00  0.00    -0.476 OA
ATOM     21  H   UNL     1      32.230 -21.690 -19.640  0.00  0.00    +0.295 HD
ENDBRANCH  19  20
ENDBRANCH   9  19
TORSDOF 5
ENDMDL
