MODEL 1
REMARK VINA RESULT:     -10.8      0.000      0.000
REMARK  Name = 2403
REMARK  6 active torsions:
REMARK  status: ('A' for Active; 'I' for Inactive)
REMARK    1  A    between atoms: C_4  and  C_20
REMARK    2  A    between atoms: C_5  and  C_10
REMARK    3  A    between atoms: N_19  and  C_28
REMARK    4  A    between atoms: C_28  and  C_29
REMARK    5  A    between atoms: C_29  and  C_30
REMARK    6  A    between atoms: C_30  and  N_31
REMARK                            x       y       z     vdW  Elec       q    Type
REMARK                         _______ _______ _______ _____ _____    ______ ____
ROOT
ATOM      1  O   UNL     1      32.945 -12.568 -27.256  0.00  0.00    -0.270 OA
ATOM      2  O   UNL     1      33.616 -16.885 -25.892  0.00  0.00    -0.270 OA
ATOM      3  N   UNL     1      33.279 -14.846 -26.950  0.00  0.00    -0.248 N 
ATOM      4  C   UNL     1      33.199 -13.551 -25.072  0.00  0.00    +0.059 C 
ATOM      5  C   UNL     1      33.385 -14.822 -24.671  0.00  0.00    +0.059 C 
ATOM      6  C   UNL     1      33.124 -13.550 -26.556  0.00  0.00    +0.252 C 
ATOM      7  C   UNL     1      33.443 -15.678 -25.883  0.00  0.00    +0.252 C 
ATOM      8  H   UNL     1      33.274 -15.142 -27.888  0.00  0.00    +0.158 HD
ENDROOT
BRANCH   5  10
ATOM      9  N   UNL     1      33.221 -15.642 -21.172  0.00  0.00    -0.284 N 
ATOM     10  C   UNL     1      33.534 -15.346 -23.349  0.00  0.00    +0.021 C 
ATOM     11  C   UNL     1      34.421 -16.367 -22.907  0.00  0.00    +0.015 C 
ATOM     12  C   UNL     1      34.203 -16.534 -21.538  0.00  0.00    +0.052 C 
ATOM     13  C   UNL     1      32.809 -14.920 -22.259  0.00  0.00    +0.066 C 
ATOM     14  C   UNL     1      35.390 -17.169 -23.542  0.00  0.00    +0.001 C 
ATOM     15  C   UNL     1      34.910 -17.466 -20.769  0.00  0.00    +0.015 C 
ATOM     16  C   UNL     1      32.686 -15.481 -19.836  0.00  0.00    +0.117 C 
ATOM     17  C   UNL     1      36.103 -18.105 -22.786  0.00  0.00    +0.000 C 
ATOM     18  C   UNL     1      35.866 -18.250 -21.421  0.00  0.00    +0.001 C 
ENDBRANCH   5  10
BRANCH   4  20
ATOM     19  N   UNL     1      32.315 -10.941 -22.754  0.00  0.00    -0.286 N 
ATOM     20  C   UNL     1      33.062 -12.361 -24.292  0.00  0.00    +0.021 C 
ATOM     21  C   UNL     1      33.797 -11.145 -24.410  0.00  0.00    +0.015 C 
ATOM     22  C   UNL     1      33.308 -10.273 -23.433  0.00  0.00    +0.052 C 
ATOM     23  C   UNL     1      32.158 -12.202 -23.264  0.00  0.00    +0.066 C 
ATOM     24  C   UNL     1      34.834 -10.704 -25.255  0.00  0.00    +0.001 C 
ATOM     25  C   UNL     1      33.808  -8.977 -23.260  0.00  0.00    +0.015 C 
ATOM     26  C   UNL     1      35.343  -9.410 -25.094  0.00  0.00    +0.000 C 
ATOM     27  C   UNL     1      34.836  -8.562 -24.111  0.00  0.00    +0.001 C 
BRANCH  19  28
ATOM     28  C   UNL     1      31.540 -10.405 -21.655  0.00  0.00    +0.093 C 
BRANCH  28  29
ATOM     29  C   UNL     1      31.527 -11.343 -20.449  0.00  0.00    -0.002 C 
BRANCH  29  30
ATOM     30  C   UNL     1      31.587 -10.555 -19.142  0.00  0.00    -0.084 C 
BRANCH  30  31
ATOM     31  N   UNL     1      32.468  -9.402 -19.284  0.00  0.00    +0.380 N 
ATOM     32  H   UNL     1      33.414  -9.721 -19.491  0.00  0.00    -0.089 HD
ATOM     33  H   UNL     1      32.472  -8.868 -18.414  0.00  0.00    -0.089 HD
ATOM     34  H   UNL     1      32.133  -8.810 -20.044  0.00  0.00    -0.089 HD
ENDBRANCH  30  31
ENDBRANCH  29  30
ENDBRANCH  28  29
ENDBRANCH  19  28
ENDBRANCH   4  20
TORSDOF 6
ENDMDL
MODEL 2
REMARK VINA RESULT:     -10.5      8.956     13.205
REMARK  Name = 2403
REMARK  6 active torsions:
REMARK  status: ('A' for Active; 'I' for Inactive)
REMARK    1  A    between atoms: C_4  and  C_20
REMARK    2  A    between atoms: C_5  and  C_10
REMARK    3  A    between atoms: N_19  and  C_28
REMARK    4  A    between atoms: C_28  and  C_29
REMARK    5  A    between atoms: C_29  and  C_30
REMARK    6  A    between atoms: C_30  and  N_31
REMARK                            x       y       z     vdW  Elec       q    Type
REMARK                         _______ _______ _______ _____ _____    ______ ____
ROOT
ATOM      1  O   UNL     1      30.760 -22.691 -16.214  0.00  0.00    -0.270 OA
ATOM      2  O   UNL     1      32.270 -25.367 -12.821  0.00  0.00    -0.270 OA
ATOM      3  N   UNL     1      31.150 -24.047 -14.368  0.00  0.00    -0.248 N 
ATOM      4  C   UNL     1      32.944 -23.566 -15.695  0.00  0.00    +0.059 C 
ATOM      5  C   UNL     1      33.389 -24.344 -14.692  0.00  0.00    +0.059 C 
ATOM      6  C   UNL     1      31.486 -23.360 -15.498  0.00  0.00    +0.252 C 
ATOM      7  C   UNL     1      32.232 -24.669 -13.819  0.00  0.00    +0.252 C 
ATOM      8  H   UNL     1      30.240 -24.088 -13.997  0.00  0.00    +0.158 HD
ENDROOT
BRANCH   5  10
ATOM      9  N   UNL     1      36.577 -26.012 -14.664  0.00  0.00    -0.284 N 
ATOM     10  C   UNL     1      34.707 -24.837 -14.439  0.00  0.00    +0.021 C 
ATOM     11  C   UNL     1      35.598 -24.459 -13.396  0.00  0.00    +0.015 C 
ATOM     12  C   UNL     1      36.763 -25.211 -13.560  0.00  0.00    +0.052 C 
ATOM     13  C   UNL     1      35.338 -25.793 -15.202  0.00  0.00    +0.066 C 
ATOM     14  C   UNL     1      35.525 -23.547 -12.324  0.00  0.00    +0.001 C 
ATOM     15  C   UNL     1      37.864 -25.096 -12.703  0.00  0.00    +0.015 C 
ATOM     16  C   UNL     1      37.542 -26.953 -15.193  0.00  0.00    +0.117 C 
ATOM     17  C   UNL     1      36.618 -23.421 -11.459  0.00  0.00    +0.000 C 
ATOM     18  C   UNL     1      37.768 -24.184 -11.647  0.00  0.00    +0.001 C 
ENDBRANCH   5  10
BRANCH   4  20
ATOM     19  N   UNL     1      34.118 -22.193 -18.811  0.00  0.00    -0.286 N 
ATOM     20  C   UNL     1      33.665 -22.980 -16.782  0.00  0.00    +0.021 C 
ATOM     21  C   UNL     1      35.012 -22.513 -16.791  0.00  0.00    +0.015 C 
ATOM     22  C   UNL     1      35.269 -22.025 -18.075  0.00  0.00    +0.052 C 
ATOM     23  C   UNL     1      33.144 -22.768 -18.040  0.00  0.00    +0.066 C 
ATOM     24  C   UNL     1      36.037 -22.459 -15.826  0.00  0.00    +0.001 C 
ATOM     25  C   UNL     1      36.506 -21.484 -18.443  0.00  0.00    +0.015 C 
ATOM     26  C   UNL     1      37.280 -21.920 -16.180  0.00  0.00    +0.000 C 
ATOM     27  C   UNL     1      37.509 -21.441 -17.469  0.00  0.00    +0.001 C 
BRANCH  19  28
ATOM     28  C   UNL     1      33.945 -21.820 -20.198  0.00  0.00    +0.093 C 
BRANCH  28  29
ATOM     29  C   UNL     1      33.262 -20.460 -20.347  0.00  0.00    -0.002 C 
BRANCH  29  30
ATOM     30  C   UNL     1      34.007 -19.579 -21.347  0.00  0.00    -0.084 C 
BRANCH  30  31
ATOM     31  N   UNL     1      35.245 -19.079 -20.760  0.00  0.00    +0.380 N 
ATOM     32  H   UNL     1      35.032 -18.311 -20.123  0.00  0.00    -0.089 HD
ATOM     33  H   UNL     1      35.862 -18.746 -21.501  0.00  0.00    -0.089 HD
ATOM     34  H   UNL     1      35.705 -19.831 -20.246  0.00  0.00    -0.089 HD
ENDBRANCH  30  31
ENDBRANCH  29  30
ENDBRANCH  28  29
ENDBRANCH  19  28
ENDBRANCH   4  20
TORSDOF 6
ENDMDL
MODEL 3
REMARK VINA RESULT:      -9.9      2.790      7.184
REMARK  Name = 2403
REMARK  6 active torsions:
REMARK  status: ('A' for Active; 'I' for Inactive)
REMARK    1  A    between atoms: C_4  and  C_20
REMARK    2  A    between atoms: C_5  and  C_10
REMARK    3  A    between atoms: N_19  and  C_28
REMARK    4  A    between atoms: C_28  and  C_29
REMARK    5  A    between atoms: C_29  and  C_30
REMARK    6  A    between atoms: C_30  and  N_31
REMARK                            x       y       z     vdW  Elec       q    Type
REMARK                         _______ _______ _______ _____ _____    ______ ____
ROOT
ATOM      1  O   UNL     1      32.869 -14.488 -21.337  0.00  0.00    -0.270 OA
ATOM      2  O   UNL     1      31.046 -10.831 -19.273  0.00  0.00    -0.270 OA
ATOM      3  N   UNL     1      31.911 -12.869 -19.974  0.00  0.00    -0.248 N 
ATOM      4  C   UNL     1      32.442 -12.245 -22.104  0.00  0.00    +0.059 C 
ATOM      5  C   UNL     1      31.896 -11.173 -21.501  0.00  0.00    +0.059 C 
ATOM      6  C   UNL     1      32.456 -13.360 -21.124  0.00  0.00    +0.252 C 
ATOM      7  C   UNL     1      31.548 -11.562 -20.110  0.00  0.00    +0.252 C 
ATOM      8  H   UNL     1      31.797 -13.393 -19.149  0.00  0.00    +0.158 HD
ENDROOT
BRANCH   5  10
ATOM      9  N   UNL     1      31.033  -8.226 -23.376  0.00  0.00    -0.284 N 
ATOM     10  C   UNL     1      31.672  -9.857 -22.013  0.00  0.00    +0.021 C 
ATOM     11  C   UNL     1      32.005  -8.614 -21.405  0.00  0.00    +0.015 C 
ATOM     12  C   UNL     1      31.592  -7.607 -22.281  0.00  0.00    +0.052 C 
ATOM     13  C   UNL     1      31.077  -9.586 -23.223  0.00  0.00    +0.066 C 
ATOM     14  C   UNL     1      32.618  -8.247 -20.190  0.00  0.00    +0.001 C 
ATOM     15  C   UNL     1      31.763  -6.246 -22.001  0.00  0.00    +0.015 C 
ATOM     16  C   UNL     1      30.474  -7.552 -24.528  0.00  0.00    +0.117 C 
ATOM     17  C   UNL     1      32.794  -6.890 -19.897  0.00  0.00    +0.000 C 
ATOM     18  C   UNL     1      32.374  -5.907 -20.790  0.00  0.00    +0.001 C 
ENDBRANCH   5  10
BRANCH   4  20
ATOM     19  N   UNL     1      33.248 -13.236 -25.471  0.00  0.00    -0.286 N 
ATOM     20  C   UNL     1      32.926 -12.389 -23.442  0.00  0.00    +0.021 C 
ATOM     21  C   UNL     1      33.804 -11.521 -24.156  0.00  0.00    +0.015 C 
ATOM     22  C   UNL     1      33.988 -12.076 -25.424  0.00  0.00    +0.052 C 
ATOM     23  C   UNL     1      32.603 -13.433 -24.280  0.00  0.00    +0.066 C 
ATOM     24  C   UNL     1      34.459 -10.314 -23.841  0.00  0.00    +0.001 C 
ATOM     25  C   UNL     1      34.798 -11.481 -26.399  0.00  0.00    +0.015 C 
ATOM     26  C   UNL     1      35.273  -9.708 -24.806  0.00  0.00    +0.000 C 
ATOM     27  C   UNL     1      35.439 -10.285 -26.064  0.00  0.00    +0.001 C 
BRANCH  19  28
ATOM     28  C   UNL     1      33.152 -14.127 -26.608  0.00  0.00    +0.093 C 
BRANCH  28  29
ATOM     29  C   UNL     1      33.072 -15.593 -26.183  0.00  0.00    -0.002 C 
BRANCH  29  30
ATOM     30  C   UNL     1      34.341 -16.021 -25.448  0.00  0.00    -0.084 C 
BRANCH  30  31
ATOM     31  N   UNL     1      34.265 -17.430 -25.083  0.00  0.00    +0.380 N 
ATOM     32  H   UNL     1      33.289 -17.724 -25.062  0.00  0.00    -0.089 HD
ATOM     33  H   UNL     1      34.682 -17.566 -24.162  0.00  0.00    -0.089 HD
ATOM     34  H   UNL     1      34.774 -17.987 -25.771  0.00  0.00    -0.089 HD
ENDBRANCH  30  31
ENDBRANCH  29  30
ENDBRANCH  28  29
ENDBRANCH  19  28
ENDBRANCH   4  20
TORSDOF 6
ENDMDL
MODEL 4
REMARK VINA RESULT:      -9.6      8.996     13.218
REMARK  Name = 2403
REMARK  6 active torsions:
REMARK  status: ('A' for Active; 'I' for Inactive)
REMARK    1  A    between atoms: C_4  and  C_20
REMARK    2  A    between atoms: C_5  and  C_10
REMARK    3  A    between atoms: N_19  and  C_28
REMARK    4  A    between atoms: C_28  and  C_29
REMARK    5  A    between atoms: C_29  and  C_30
REMARK    6  A    between atoms: C_30  and  N_31
REMARK                            x       y       z     vdW  Elec       q    Type
REMARK                         _______ _______ _______ _____ _____    ______ ____
ROOT
ATOM      1  O   UNL     1      30.805 -23.172 -16.930  0.00  0.00    -0.270 OA
ATOM      2  O   UNL     1      31.583 -25.068 -12.838  0.00  0.00    -0.270 OA
ATOM      3  N   UNL     1      30.807 -24.174 -14.835  0.00  0.00    -0.248 N 
ATOM      4  C   UNL     1      32.836 -23.608 -15.711  0.00  0.00    +0.059 C 
ATOM      5  C   UNL     1      33.064 -24.155 -14.503  0.00  0.00    +0.059 C 
ATOM      6  C   UNL     1      31.369 -23.609 -15.941  0.00  0.00    +0.252 C 
ATOM      7  C   UNL     1      31.751 -24.533 -13.920  0.00  0.00    +0.252 C 
ATOM      8  H   UNL     1      29.839 -24.306 -14.713  0.00  0.00    +0.158 HD
ENDROOT
BRANCH   5  10
ATOM      9  N   UNL     1      35.909 -24.270 -12.303  0.00  0.00    -0.284 N 
ATOM     10  C   UNL     1      34.303 -24.393 -13.831  0.00  0.00    +0.021 C 
ATOM     11  C   UNL     1      35.371 -25.241 -14.238  0.00  0.00    +0.015 C 
ATOM     12  C   UNL     1      36.365 -25.146 -13.262  0.00  0.00    +0.052 C 
ATOM     13  C   UNL     1      34.664 -23.809 -12.638  0.00  0.00    +0.066 C 
ATOM     14  C   UNL     1      35.588 -26.085 -15.346  0.00  0.00    +0.001 C 
ATOM     15  C   UNL     1      37.569 -25.854 -13.338  0.00  0.00    +0.015 C 
ATOM     16  C   UNL     1      36.627 -23.882 -11.108  0.00  0.00    +0.117 C 
ATOM     17  C   UNL     1      36.788 -26.799 -15.435  0.00  0.00    +0.000 C 
ATOM     18  C   UNL     1      37.762 -26.684 -14.447  0.00  0.00    +0.001 C 
ENDBRANCH   5  10
BRANCH   4  20
ATOM     19  N   UNL     1      34.620 -22.385 -18.591  0.00  0.00    -0.286 N 
ATOM     20  C   UNL     1      33.765 -23.074 -16.659  0.00  0.00    +0.021 C 
ATOM     21  C   UNL     1      35.092 -22.610 -16.421  0.00  0.00    +0.015 C 
ATOM     22  C   UNL     1      35.604 -22.184 -17.649  0.00  0.00    +0.052 C 
ATOM     23  C   UNL     1      33.506 -22.922 -18.003  0.00  0.00    +0.066 C 
ATOM     24  C   UNL     1      35.905 -22.511 -15.275  0.00  0.00    +0.001 C 
ATOM     25  C   UNL     1      36.895 -21.661 -17.788  0.00  0.00    +0.015 C 
ATOM     26  C   UNL     1      37.199 -21.990 -15.400  0.00  0.00    +0.000 C 
ATOM     27  C   UNL     1      37.684 -21.573 -16.638  0.00  0.00    +0.001 C 
BRANCH  19  28
ATOM     28  C   UNL     1      34.729 -22.078 -20.001  0.00  0.00    +0.093 C 
BRANCH  28  29
ATOM     29  C   UNL     1      34.905 -20.581 -20.251  0.00  0.00    -0.002 C 
BRANCH  29  30
ATOM     30  C   UNL     1      33.605 -19.950 -20.743  0.00  0.00    -0.084 C 
BRANCH  30  31
ATOM     31  N   UNL     1      33.858 -18.619 -21.283  0.00  0.00    +0.380 N 
ATOM     32  H   UNL     1      34.792 -18.314 -21.010  0.00  0.00    -0.089 HD
ATOM     33  H   UNL     1      33.166 -17.966 -20.915  0.00  0.00    -0.089 HD
ATOM     34  H   UNL     1      33.792 -18.648 -22.301  0.00  0.00    -0.089 HD
ENDBRANCH  30  31
ENDBRANCH  29  30
ENDBRANCH  28  29
ENDBRANCH  19  28
ENDBRANCH   4  20
TORSDOF 6
ENDMDL
MODEL 5
REMARK VINA RESULT:      -9.3     10.189     14.745
REMARK  Name = 2403
REMARK  6 active torsions:
REMARK  status: ('A' for Active; 'I' for Inactive)
REMARK    1  A    between atoms: C_4  and  C_20
REMARK    2  A    between atoms: C_5  and  C_10
REMARK    3  A    between atoms: N_19  and  C_28
REMARK    4  A    between atoms: C_28  and  C_29
REMARK    5  A    between atoms: C_29  and  C_30
REMARK    6  A    between atoms: C_30  and  N_31
REMARK                            x       y       z     vdW  Elec       q    Type
REMARK                         _______ _______ _______ _____ _____    ______ ____
ROOT
ATOM      1  O   UNL     1      31.911 -25.319 -13.100  0.00  0.00    -0.270 OA
ATOM      2  O   UNL     1      30.826 -22.810 -16.771  0.00  0.00    -0.270 OA
ATOM      3  N   UNL     1      30.987 -24.088 -14.840  0.00  0.00    -0.248 N 
ATOM      4  C   UNL     1      33.257 -24.315 -14.827  0.00  0.00    +0.059 C 
ATOM      5  C   UNL     1      32.937 -23.586 -15.912  0.00  0.00    +0.059 C 
ATOM      6  C   UNL     1      31.997 -24.653 -14.119  0.00  0.00    +0.252 C 
ATOM      7  C   UNL     1      31.461 -23.426 -15.933  0.00  0.00    +0.252 C 
ATOM      8  H   UNL     1      30.034 -24.150 -14.600  0.00  0.00    +0.158 HD
ENDROOT
BRANCH   5  10
ATOM      9  N   UNL     1      34.503 -22.270 -18.872  0.00  0.00    -0.284 N 
ATOM     10  C   UNL     1      33.790 -23.010 -16.904  0.00  0.00    +0.021 C 
ATOM     11  C   UNL     1      35.110 -22.505 -16.738  0.00  0.00    +0.015 C 
ATOM     12  C   UNL     1      35.533 -22.047 -17.988  0.00  0.00    +0.052 C 
ATOM     13  C   UNL     1      33.444 -22.852 -18.227  0.00  0.00    +0.066 C 
ATOM     14  C   UNL     1      35.988 -22.393 -15.642  0.00  0.00    +0.001 C 
ATOM     15  C   UNL     1      36.796 -21.480 -18.196  0.00  0.00    +0.015 C 
ATOM     16  C   UNL     1      34.518 -21.942 -20.282  0.00  0.00    +0.117 C 
ATOM     17  C   UNL     1      37.253 -21.828 -15.836  0.00  0.00    +0.000 C 
ATOM     18  C   UNL     1      37.650 -21.380 -17.094  0.00  0.00    +0.001 C 
ENDBRANCH   5  10
BRANCH   4  20
ATOM     19  N   UNL     1      36.514 -25.773 -14.338  0.00  0.00    -0.286 N 
ATOM     20  C   UNL     1      34.540 -24.752 -14.370  0.00  0.00    +0.021 C 
ATOM     21  C   UNL     1      35.181 -24.450 -13.133  0.00  0.00    +0.015 C 
ATOM     22  C   UNL     1      36.416 -25.103 -13.140  0.00  0.00    +0.052 C 
ATOM     23  C   UNL     1      35.387 -25.568 -15.088  0.00  0.00    +0.066 C 
ATOM     24  C   UNL     1      34.826 -23.681 -12.007  0.00  0.00    +0.001 C 
ATOM     25  C   UNL     1      37.318 -25.024 -12.072  0.00  0.00    +0.015 C 
ATOM     26  C   UNL     1      35.718 -23.593 -10.931  0.00  0.00    +0.000 C 
ATOM     27  C   UNL     1      36.944 -24.256 -10.966  0.00  0.00    +0.001 C 
BRANCH  19  28
ATOM     28  C   UNL     1      37.638 -26.581 -14.761  0.00  0.00    +0.093 C 
BRANCH  28  29
ATOM     29  C   UNL     1      38.786 -25.730 -15.302  0.00  0.00    -0.002 C 
BRANCH  29  30
ATOM     30  C   UNL     1      39.884 -25.559 -14.255  0.00  0.00    -0.084 C 
BRANCH  30  31
ATOM     31  N   UNL     1      40.749 -26.732 -14.231  0.00  0.00    +0.380 N 
ATOM     32  H   UNL     1      41.708 -26.451 -14.438  0.00  0.00    -0.089 HD
ATOM     33  H   UNL     1      40.432 -27.403 -14.932  0.00  0.00    -0.089 HD
ATOM     34  H   UNL     1      40.712 -27.164 -13.307  0.00  0.00    -0.089 HD
ENDBRANCH  30  31
ENDBRANCH  29  30
ENDBRANCH  28  29
ENDBRANCH  19  28
ENDBRANCH   4  20
TORSDOF 6
ENDMDL
MODEL 6
REMARK VINA RESULT:      -9.3      3.093      5.895
REMARK  Name = 2403
REMARK  6 active torsions:
REMARK  status: ('A' for Active; 'I' for Inactive)
REMARK    1  A    between atoms: C_4  and  C_20
REMARK    2  A    between atoms: C_5  and  C_10
REMARK    3  A    between atoms: N_19  and  C_28
REMARK    4  A    between atoms: C_28  and  C_29
REMARK    5  A    between atoms: C_29  and  C_30
REMARK    6  A    between atoms: C_30  and  N_31
REMARK                            x       y       z     vdW  Elec       q    Type
REMARK                         _______ _______ _______ _____ _____    ______ ____
ROOT
ATOM      1  O   UNL     1      31.052 -11.265 -19.470  0.00  0.00    -0.270 OA
ATOM      2  O   UNL     1      32.843 -14.703 -21.904  0.00  0.00    -0.270 OA
ATOM      3  N   UNL     1      31.888 -13.230 -20.385  0.00  0.00    -0.248 N 
ATOM      4  C   UNL     1      31.945 -11.370 -21.705  0.00  0.00    +0.059 C 
ATOM      5  C   UNL     1      32.482 -12.378 -22.416  0.00  0.00    +0.059 C 
ATOM      6  C   UNL     1      31.556 -11.907 -20.376  0.00  0.00    +0.252 C 
ATOM      7  C   UNL     1      32.448 -13.599 -21.571  0.00  0.00    +0.252 C 
ATOM      8  H   UNL     1      31.739 -13.842 -19.628  0.00  0.00    +0.158 HD
ENDROOT
BRANCH   5  10
ATOM      9  N   UNL     1      33.357 -13.001 -25.850  0.00  0.00    -0.284 N 
ATOM     10  C   UNL     1      32.995 -12.377 -23.751  0.00  0.00    +0.021 C 
ATOM     11  C   UNL     1      33.889 -11.443 -24.345  0.00  0.00    +0.015 C 
ATOM     12  C   UNL     1      34.099 -11.858 -25.661  0.00  0.00    +0.052 C 
ATOM     13  C   UNL     1      32.686 -13.324 -24.701  0.00  0.00    +0.066 C 
ATOM     14  C   UNL     1      34.542 -10.281 -23.887  0.00  0.00    +0.001 C 
ATOM     15  C   UNL     1      34.933 -11.166 -26.547  0.00  0.00    +0.015 C 
ATOM     16  C   UNL     1      33.284 -13.764 -27.078  0.00  0.00    +0.117 C 
ATOM     17  C   UNL     1      35.378  -9.579 -24.762  0.00  0.00    +0.000 C 
ATOM     18  C   UNL     1      35.570 -10.016 -26.071  0.00  0.00    +0.001 C 
ENDBRANCH   5  10
BRANCH   4  20
ATOM     19  N   UNL     1      31.231  -8.201 -23.259  0.00  0.00    -0.286 N 
ATOM     20  C   UNL     1      31.763  -9.998 -22.065  0.00  0.00    +0.021 C 
ATOM     21  C   UNL     1      32.050  -8.840 -21.284  0.00  0.00    +0.015 C 
ATOM     22  C   UNL     1      31.707  -7.728 -22.057  0.00  0.00    +0.052 C 
ATOM     23  C   UNL     1      31.260  -9.569 -23.274  0.00  0.00    +0.066 C 
ATOM     24  C   UNL     1      32.569  -8.633 -19.991  0.00  0.00    +0.001 C 
ATOM     25  C   UNL     1      31.858  -6.414 -21.598  0.00  0.00    +0.015 C 
ATOM     26  C   UNL     1      32.726  -7.324 -19.519  0.00  0.00    +0.000 C 
ATOM     27  C   UNL     1      32.376  -6.234 -20.313  0.00  0.00    +0.001 C 
BRANCH  19  28
ATOM     28  C   UNL     1      30.761  -7.384 -24.358  0.00  0.00    +0.093 C 
BRANCH  28  29
ATOM     29  C   UNL     1      31.755  -6.280 -24.719  0.00  0.00    -0.002 C 
BRANCH  29  30
ATOM     30  C   UNL     1      31.029  -4.987 -25.086  0.00  0.00    -0.084 C 
BRANCH  30  31
ATOM     31  N   UNL     1      30.721  -4.220 -23.885  0.00  0.00    +0.380 N 
ATOM     32  H   UNL     1      31.530  -4.223 -23.264  0.00  0.00    -0.089 HD
ATOM     33  H   UNL     1      29.924  -4.641 -23.407  0.00  0.00    -0.089 HD
ATOM     34  H   UNL     1      30.494  -3.259 -24.145  0.00  0.00    -0.089 HD
ENDBRANCH  30  31
ENDBRANCH  29  30
ENDBRANCH  28  29
ENDBRANCH  19  28
ENDBRANCH   4  20
TORSDOF 6
ENDMDL
MODEL 7
REMARK VINA RESULT:      -9.2      1.231      2.779
REMARK  Name = 2403
REMARK  6 active torsions:
REMARK  status: ('A' for Active; 'I' for Inactive)
REMARK    1  A    between atoms: C_4  and  C_20
REMARK    2  A    between atoms: C_5  and  C_10
REMARK    3  A    between atoms: N_19  and  C_28
REMARK    4  A    between atoms: C_28  and  C_29
REMARK    5  A    between atoms: C_29  and  C_30
REMARK    6  A    between atoms: C_30  and  N_31
REMARK                            x       y       z     vdW  Elec       q    Type
REMARK                         _______ _______ _______ _____ _____    ______ ____
ROOT
ATOM      1  O   UNL     1      33.184 -12.307 -27.430  0.00  0.00    -0.270 OA
ATOM      2  O   UNL     1      33.255 -16.612 -25.877  0.00  0.00    -0.270 OA
ATOM      3  N   UNL     1      33.183 -14.593 -27.023  0.00  0.00    -0.248 N 
ATOM      4  C   UNL     1      33.387 -13.221 -25.211  0.00  0.00    +0.059 C 
ATOM      5  C   UNL     1      33.397 -14.486 -24.753  0.00  0.00    +0.059 C 
ATOM      6  C   UNL     1      33.245 -13.273 -26.688  0.00  0.00    +0.252 C 
ATOM      7  C   UNL     1      33.269 -15.394 -25.922  0.00  0.00    +0.252 C 
ATOM      8  H   UNL     1      33.090 -14.926 -27.944  0.00  0.00    +0.158 HD
ENDROOT
BRANCH   5  10
ATOM      9  N   UNL     1      33.211 -15.167 -21.226  0.00  0.00    -0.284 N 
ATOM     10  C   UNL     1      33.526 -14.968 -23.414  0.00  0.00    +0.021 C 
ATOM     11  C   UNL     1      34.360 -16.018 -22.938  0.00  0.00    +0.015 C 
ATOM     12  C   UNL     1      34.143 -16.122 -21.562  0.00  0.00    +0.052 C 
ATOM     13  C   UNL     1      32.832 -14.464 -22.337  0.00  0.00    +0.066 C 
ATOM     14  C   UNL     1      35.282 -16.893 -23.547  0.00  0.00    +0.001 C 
ATOM     15  C   UNL     1      34.804 -17.062 -20.762  0.00  0.00    +0.015 C 
ATOM     16  C   UNL     1      32.694 -14.928 -19.895  0.00  0.00    +0.117 C 
ATOM     17  C   UNL     1      35.949 -17.837 -22.759  0.00  0.00    +0.000 C 
ATOM     18  C   UNL     1      35.713 -17.919 -21.389  0.00  0.00    +0.001 C 
ENDBRANCH   5  10
BRANCH   4  20
ATOM     19  N   UNL     1      34.168  -9.978 -23.852  0.00  0.00    -0.286 N 
ATOM     20  C   UNL     1      33.469 -11.990 -24.487  0.00  0.00    +0.021 C 
ATOM     21  C   UNL     1      32.650 -11.552 -23.405  0.00  0.00    +0.015 C 
ATOM     22  C   UNL     1      33.110 -10.289 -23.027  0.00  0.00    +0.052 C 
ATOM     23  C   UNL     1      34.392 -10.998 -24.737  0.00  0.00    +0.066 C 
ATOM     24  C   UNL     1      31.559 -12.113 -22.712  0.00  0.00    +0.001 C 
ATOM     25  C   UNL     1      32.531  -9.555 -21.986  0.00  0.00    +0.015 C 
ATOM     26  C   UNL     1      30.970 -11.390 -21.668  0.00  0.00    +0.000 C 
ATOM     27  C   UNL     1      31.450 -10.131 -21.312  0.00  0.00    +0.001 C 
BRANCH  19  28
ATOM     28  C   UNL     1      34.940  -8.755 -23.807  0.00  0.00    +0.093 C 
BRANCH  28  29
ATOM     29  C   UNL     1      34.368  -7.680 -24.730  0.00  0.00    -0.002 C 
BRANCH  29  30
ATOM     30  C   UNL     1      33.586  -6.635 -23.938  0.00  0.00    -0.084 C 
BRANCH  30  31
ATOM     31  N   UNL     1      32.159  -6.756 -24.208  0.00  0.00    +0.380 N 
ATOM     32  H   UNL     1      31.910  -6.157 -24.995  0.00  0.00    -0.089 HD
ATOM     33  H   UNL     1      31.631  -6.471 -23.382  0.00  0.00    -0.089 HD
ATOM     34  H   UNL     1      31.937  -7.726 -24.435  0.00  0.00    -0.089 HD
ENDBRANCH  30  31
ENDBRANCH  29  30
ENDBRANCH  28  29
ENDBRANCH  19  28
ENDBRANCH   4  20
TORSDOF 6
ENDMDL
MODEL 8
REMARK VINA RESULT:      -9.1      3.301      5.821
REMARK  Name = 2403
REMARK  6 active torsions:
REMARK  status: ('A' for Active; 'I' for Inactive)
REMARK    1  A    between atoms: C_4  and  C_20
REMARK    2  A    between atoms: C_5  and  C_10
REMARK    3  A    between atoms: N_19  and  C_28
REMARK    4  A    between atoms: C_28  and  C_29
REMARK    5  A    between atoms: C_29  and  C_30
REMARK    6  A    between atoms: C_30  and  N_31
REMARK                            x       y       z     vdW  Elec       q    Type
REMARK                         _______ _______ _______ _____ _____    ______ ____
ROOT
ATOM      1  O   UNL     1      30.772 -11.139 -19.838  0.00  0.00    -0.270 OA
ATOM      2  O   UNL     1      33.104 -14.294 -22.196  0.00  0.00    -0.270 OA
ATOM      3  N   UNL     1      31.854 -12.985 -20.741  0.00  0.00    -0.248 N 
ATOM      4  C   UNL     1      31.966 -11.039 -21.927  0.00  0.00    +0.059 C 
ATOM      5  C   UNL     1      32.661 -11.964 -22.615  0.00  0.00    +0.059 C 
ATOM      6  C   UNL     1      31.437 -11.688 -20.701  0.00  0.00    +0.252 C 
ATOM      7  C   UNL     1      32.595 -13.240 -21.857  0.00  0.00    +0.252 C 
ATOM      8  H   UNL     1      31.645 -13.655 -20.050  0.00  0.00    +0.158 HD
ENDROOT
BRANCH   5  10
ATOM      9  N   UNL     1      34.695 -11.046 -25.437  0.00  0.00    -0.284 N 
ATOM     10  C   UNL     1      33.350 -11.843 -23.862  0.00  0.00    +0.021 C 
ATOM     11  C   UNL     1      33.262 -12.697 -24.997  0.00  0.00    +0.015 C 
ATOM     12  C   UNL     1      34.116 -12.175 -25.970  0.00  0.00    +0.052 C 
ATOM     13  C   UNL     1      34.238 -10.836 -24.164  0.00  0.00    +0.066 C 
ATOM     14  C   UNL     1      32.536 -13.869 -25.290  0.00  0.00    +0.001 C 
ATOM     15  C   UNL     1      34.281 -12.768 -27.227  0.00  0.00    +0.015 C 
ATOM     16  C   UNL     1      35.651 -10.193 -26.111  0.00  0.00    +0.117 C 
ATOM     17  C   UNL     1      32.692 -14.473 -26.542  0.00  0.00    +0.000 C 
ATOM     18  C   UNL     1      33.551 -13.929 -27.495  0.00  0.00    +0.001 C 
ENDBRANCH   5  10
BRANCH   4  20
ATOM     19  N   UNL     1      31.141  -7.829 -23.336  0.00  0.00    -0.286 N 
ATOM     20  C   UNL     1      31.743  -9.659 -22.227  0.00  0.00    +0.021 C 
ATOM     21  C   UNL     1      32.020  -8.526 -21.407  0.00  0.00    +0.015 C 
ATOM     22  C   UNL     1      31.633  -7.393 -22.126  0.00  0.00    +0.052 C 
ATOM     23  C   UNL     1      31.203  -9.195 -23.407  0.00  0.00    +0.066 C 
ATOM     24  C   UNL     1      32.564  -8.359 -20.118  0.00  0.00    +0.001 C 
ATOM     25  C   UNL     1      31.763  -6.095 -21.618  0.00  0.00    +0.015 C 
ATOM     26  C   UNL     1      32.700  -7.067 -19.597  0.00  0.00    +0.000 C 
ATOM     27  C   UNL     1      32.306  -5.954 -20.338  0.00  0.00    +0.001 C 
BRANCH  19  28
ATOM     28  C   UNL     1      30.628  -6.981 -24.391  0.00  0.00    +0.093 C 
BRANCH  28  29
ATOM     29  C   UNL     1      31.672  -5.979 -24.882  0.00  0.00    -0.002 C 
BRANCH  29  30
ATOM     30  C   UNL     1      31.106  -4.561 -24.897  0.00  0.00    -0.084 C 
BRANCH  30  31
ATOM     31  N   UNL     1      32.031  -3.652 -25.564  0.00  0.00    +0.380 N 
ATOM     32  H   UNL     1      31.598  -3.289 -26.413  0.00  0.00    -0.089 HD
ATOM     33  H   UNL     1      32.886  -4.154 -25.805  0.00  0.00    -0.089 HD
ATOM     34  H   UNL     1      32.257  -2.878 -24.938  0.00  0.00    -0.089 HD
ENDBRANCH  30  31
ENDBRANCH  29  30
ENDBRANCH  28  29
ENDBRANCH  19  28
ENDBRANCH   4  20
TORSDOF 6
ENDMDL
MODEL 9
REMARK VINA RESULT:      -8.9      9.731     14.322
REMARK  Name = 2403
REMARK  6 active torsions:
REMARK  status: ('A' for Active; 'I' for Inactive)
REMARK    1  A    between atoms: C_4  and  C_20
REMARK    2  A    between atoms: C_5  and  C_10
REMARK    3  A    between atoms: N_19  and  C_28
REMARK    4  A    between atoms: C_28  and  C_29
REMARK    5  A    between atoms: C_29  and  C_30
REMARK    6  A    between atoms: C_30  and  N_31
REMARK                            x       y       z     vdW  Elec       q    Type
REMARK                         _______ _______ _______ _____ _____    ______ ____
ROOT
ATOM      1  O   UNL     1      31.355 -25.030 -13.807  0.00  0.00    -0.270 OA
ATOM      2  O   UNL     1      31.669 -22.601 -17.674  0.00  0.00    -0.270 OA
ATOM      3  N   UNL     1      31.121 -23.842 -15.790  0.00  0.00    -0.248 N 
ATOM      4  C   UNL     1      33.233 -24.043 -14.947  0.00  0.00    +0.059 C 
ATOM      5  C   UNL     1      33.327 -23.338 -16.090  0.00  0.00    +0.059 C 
ATOM      6  C   UNL     1      31.802 -24.382 -14.739  0.00  0.00    +0.252 C 
ATOM      7  C   UNL     1      31.958 -23.195 -16.650  0.00  0.00    +0.252 C 
ATOM      8  H   UNL     1      30.147 -23.909 -15.910  0.00  0.00    +0.158 HD
ENDROOT
BRANCH   5  10
ATOM      9  N   UNL     1      36.570 -22.088 -17.021  0.00  0.00    -0.284 N 
ATOM     10  C   UNL     1      34.479 -22.771 -16.717  0.00  0.00    +0.021 C 
ATOM     11  C   UNL     1      34.578 -22.204 -18.019  0.00  0.00    +0.015 C 
ATOM     12  C   UNL     1      35.899 -21.784 -18.184  0.00  0.00    +0.052 C 
ATOM     13  C   UNL     1      35.720 -22.685 -16.128  0.00  0.00    +0.066 C 
ATOM     14  C   UNL     1      33.667 -22.008 -19.076  0.00  0.00    +0.001 C 
ATOM     15  C   UNL     1      36.357 -21.175 -19.358  0.00  0.00    +0.015 C 
ATOM     16  C   UNL     1      37.969 -21.824 -16.762  0.00  0.00    +0.117 C 
ATOM     17  C   UNL     1      34.111 -21.402 -20.256  0.00  0.00    +0.000 C 
ATOM     18  C   UNL     1      35.436 -20.991 -20.393  0.00  0.00    +0.001 C 
ENDBRANCH   5  10
BRANCH   4  20
ATOM     19  N   UNL     1      35.464 -24.650 -12.186  0.00  0.00    -0.286 N 
ATOM     20  C   UNL     1      34.263 -24.458 -14.047  0.00  0.00    +0.021 C 
ATOM     21  C   UNL     1      35.356 -25.335 -14.307  0.00  0.00    +0.015 C 
ATOM     22  C   UNL     1      36.092 -25.438 -13.125  0.00  0.00    +0.052 C 
ATOM     23  C   UNL     1      34.359 -24.054 -12.733  0.00  0.00    +0.066 C 
ATOM     24  C   UNL     1      35.788 -26.054 -15.440  0.00  0.00    +0.001 C 
ATOM     25  C   UNL     1      37.244 -26.226 -13.018  0.00  0.00    +0.015 C 
ATOM     26  C   UNL     1      36.938 -26.846 -15.348  0.00  0.00    +0.000 C 
ATOM     27  C   UNL     1      37.653 -26.929 -14.154  0.00  0.00    +0.001 C 
BRANCH  19  28
ATOM     28  C   UNL     1      35.894 -24.467 -10.817  0.00  0.00    +0.093 C 
BRANCH  28  29
ATOM     29  C   UNL     1      36.564 -23.111 -10.600  0.00  0.00    -0.002 C 
BRANCH  29  30
ATOM     30  C   UNL     1      37.493 -22.766 -11.761  0.00  0.00    -0.084 C 
BRANCH  30  31
ATOM     31  N   UNL     1      38.737 -23.520 -11.656  0.00  0.00    +0.380 N 
ATOM     32  H   UNL     1      38.527 -24.517 -11.618  0.00  0.00    -0.089 HD
ATOM     33  H   UNL     1      39.232 -23.243 -10.808  0.00  0.00    -0.089 HD
ATOM     34  H   UNL     1      39.322 -23.325 -12.470  0.00  0.00    -0.089 HD
ENDBRANCH  30  31
ENDBRANCH  29  30
ENDBRANCH  28  29
ENDBRANCH  19  28
ENDBRANCH   4  20
TORSDOF 6
ENDMDL
