MODEL 1
REMARK VINA RESULT:      -7.6      0.000      0.000
REMARK  Name = 6852129
REMARK  3 active torsions:
REMARK  status: ('A' for Active; 'I' for Inactive)
REMARK    1  A    between atoms: C_5  and  S_10
REMARK    2  A    between atoms: C_8  and  O_16
REMARK    3  A    between atoms: S_10  and  N_13
REMARK                            x       y       z     vdW  Elec       q    Type
REMARK                         _______ _______ _______ _____ _____    ______ ____
ROOT
ATOM      1  S   UNL     1      35.969 -23.907 -14.371  0.00  0.00    -0.033 S 
ATOM      2  N   UNL     1      33.859 -24.204 -12.919  0.00  0.00    -0.380 NA
ATOM      3  C   UNL     1      34.442 -23.632 -15.123  0.00  0.00    +0.062 C 
ATOM      4  C   UNL     1      33.427 -23.841 -14.186  0.00  0.00    +0.122 C 
ATOM      5  C   UNL     1      35.170 -24.269 -12.903  0.00  0.00    +0.282 C 
ATOM      6  C   UNL     1      34.164 -23.260 -16.449  0.00  0.00    +0.045 C 
ATOM      7  C   UNL     1      32.085 -23.670 -14.592  0.00  0.00    +0.089 C 
ATOM      8  C   UNL     1      32.828 -23.098 -16.824  0.00  0.00    +0.130 C 
ATOM      9  C   UNL     1      31.800 -23.300 -15.909  0.00  0.00    +0.018 C 
ENDROOT
BRANCH   5  10
ATOM     10  S   UNL     1      36.141 -24.687 -11.523  0.00  0.00    +0.091 S 
ATOM     11  O   UNL     1      37.074 -23.579 -11.316  0.00  0.00    -0.150 OA
ATOM     12  O   UNL     1      35.197 -25.052 -10.468  0.00  0.00    -0.150 OA
BRANCH  10  13
ATOM     13  N   UNL     1      37.083 -26.083 -11.894  0.00  0.00    -0.201 NA
ATOM     14  H   UNL     1      38.057 -25.810 -12.029  0.00  0.00    +0.144 HD
ATOM     15  H   UNL     1      36.730 -26.515 -12.748  0.00  0.00    +0.144 HD
ENDBRANCH  10  13
ENDBRANCH   5  10
BRANCH   8  16
ATOM     16  O   UNL     1      32.530 -22.738 -18.104  0.00  0.00    -0.506 OA
ATOM     17  H   UNL     1      31.885 -23.216 -18.587  0.00  0.00    +0.292 HD
ENDBRANCH   8  16
TORSDOF 3
ENDMDL
MODEL 2
REMARK VINA RESULT:      -7.3      2.249      3.121
REMARK  Name = 6852129
REMARK  3 active torsions:
REMARK  status: ('A' for Active; 'I' for Inactive)
REMARK    1  A    between atoms: C_5  and  S_10
REMARK    2  A    between atoms: C_8  and  O_16
REMARK    3  A    between atoms: S_10  and  N_13
REMARK                            x       y       z     vdW  Elec       q    Type
REMARK                         _______ _______ _______ _____ _____    ______ ____
ROOT
ATOM      1  S   UNL     1      35.412 -24.068 -13.765  0.00  0.00    -0.033 S 
ATOM      2  N   UNL     1      37.698 -23.041 -14.373  0.00  0.00    -0.380 NA
ATOM      3  C   UNL     1      35.558 -23.311 -15.308  0.00  0.00    +0.062 C 
ATOM      4  C   UNL     1      36.857 -22.818 -15.454  0.00  0.00    +0.122 C 
ATOM      5  C   UNL     1      37.046 -23.685 -13.434  0.00  0.00    +0.282 C 
ATOM      6  C   UNL     1      34.590 -23.165 -16.314  0.00  0.00    +0.045 C 
ATOM      7  C   UNL     1      37.198 -22.154 -16.652  0.00  0.00    +0.089 C 
ATOM      8  C   UNL     1      34.954 -22.504 -17.490  0.00  0.00    +0.130 C 
ATOM      9  C   UNL     1      36.240 -22.004 -17.659  0.00  0.00    +0.018 C 
ENDROOT
BRANCH   5  10
ATOM     10  S   UNL     1      37.708 -24.174 -11.903  0.00  0.00    +0.091 S 
ATOM     11  O   UNL     1      37.968 -25.611 -11.998  0.00  0.00    -0.150 OA
ATOM     12  O   UNL     1      38.809 -23.251 -11.633  0.00  0.00    -0.150 OA
BRANCH  10  13
ATOM     13  N   UNL     1      36.519 -23.952 -10.674  0.00  0.00    -0.201 NA
ATOM     14  H   UNL     1      36.872 -24.319  -9.789  0.00  0.00    +0.144 HD
ATOM     15  H   UNL     1      35.667 -24.448 -10.932  0.00  0.00    +0.144 HD
ENDBRANCH  10  13
ENDBRANCH   5  10
BRANCH   8  16
ATOM     16  O   UNL     1      34.033 -22.346 -18.483  0.00  0.00    -0.506 OA
ATOM     17  H   UNL     1      34.283 -22.470 -19.378  0.00  0.00    +0.292 HD
ENDBRANCH   8  16
TORSDOF 3
ENDMDL
MODEL 3
REMARK VINA RESULT:      -7.3      6.041      7.876
REMARK  Name = 6852129
REMARK  3 active torsions:
REMARK  status: ('A' for Active; 'I' for Inactive)
REMARK    1  A    between atoms: C_5  and  S_10
REMARK    2  A    between atoms: C_8  and  O_16
REMARK    3  A    between atoms: S_10  and  N_13
REMARK                            x       y       z     vdW  Elec       q    Type
REMARK                         _______ _______ _______ _____ _____    ______ ____
ROOT
ATOM      1  S   UNL     1      33.166 -20.554 -20.309  0.00  0.00    -0.033 S 
ATOM      2  N   UNL     1      35.557 -21.260 -19.652  0.00  0.00    -0.380 NA
ATOM      3  C   UNL     1      34.472 -19.643 -20.969  0.00  0.00    +0.062 C 
ATOM      4  C   UNL     1      35.679 -20.170 -20.501  0.00  0.00    +0.122 C 
ATOM      5  C   UNL     1      34.288 -21.545 -19.481  0.00  0.00    +0.282 C 
ATOM      6  C   UNL     1      34.429 -18.540 -21.838  0.00  0.00    +0.045 C 
ATOM      7  C   UNL     1      36.887 -19.570 -20.920  0.00  0.00    +0.089 C 
ATOM      8  C   UNL     1      35.639 -17.965 -22.236  0.00  0.00    +0.130 C 
ATOM      9  C   UNL     1      36.853 -18.472 -21.785  0.00  0.00    +0.018 C 
ENDROOT
BRANCH   5  10
ATOM     10  S   UNL     1      33.670 -22.836 -18.494  0.00  0.00    +0.091 S 
ATOM     11  O   UNL     1      32.325 -22.437 -18.076  0.00  0.00    -0.150 OA
ATOM     12  O   UNL     1      33.858 -24.058 -19.274  0.00  0.00    -0.150 OA
BRANCH  10  13
ATOM     13  N   UNL     1      34.628 -22.968 -17.067  0.00  0.00    -0.201 NA
ATOM     14  H   UNL     1      34.034 -23.238 -16.283  0.00  0.00    +0.144 HD
ATOM     15  H   UNL     1      35.067 -22.069 -16.867  0.00  0.00    +0.144 HD
ENDBRANCH  10  13
ENDBRANCH   5  10
BRANCH   8  16
ATOM     16  O   UNL     1      35.626 -16.893 -23.078  0.00  0.00    -0.506 OA
ATOM     17  H   UNL     1      35.923 -16.988 -23.962  0.00  0.00    +0.292 HD
ENDBRANCH   8  16
TORSDOF 3
ENDMDL
MODEL 4
REMARK VINA RESULT:      -7.2      1.615      1.943
REMARK  Name = 6852129
REMARK  3 active torsions:
REMARK  status: ('A' for Active; 'I' for Inactive)
REMARK    1  A    between atoms: C_5  and  S_10
REMARK    2  A    between atoms: C_8  and  O_16
REMARK    3  A    between atoms: S_10  and  N_13
REMARK                            x       y       z     vdW  Elec       q    Type
REMARK                         _______ _______ _______ _____ _____    ______ ____
ROOT
ATOM      1  S   UNL     1      34.200 -23.490 -15.175  0.00  0.00    -0.033 S 
ATOM      2  N   UNL     1      32.840 -24.191 -13.099  0.00  0.00    -0.380 NA
ATOM      3  C   UNL     1      32.483 -23.378 -15.276  0.00  0.00    +0.062 C 
ATOM      4  C   UNL     1      31.925 -23.799 -14.065  0.00  0.00    +0.122 C 
ATOM      5  C   UNL     1      34.058 -24.072 -13.573  0.00  0.00    +0.282 C 
ATOM      6  C   UNL     1      31.687 -22.950 -16.352  0.00  0.00    +0.045 C 
ATOM      7  C   UNL     1      30.520 -23.788 -13.928  0.00  0.00    +0.089 C 
ATOM      8  C   UNL     1      30.299 -22.951 -16.188  0.00  0.00    +0.130 C 
ATOM      9  C   UNL     1      29.721 -23.364 -14.993  0.00  0.00    +0.018 C 
ENDROOT
BRANCH   5  10
ATOM     10  S   UNL     1      35.517 -24.451 -12.707  0.00  0.00    +0.091 S 
ATOM     11  O   UNL     1      36.378 -23.271 -12.797  0.00  0.00    -0.150 OA
ATOM     12  O   UNL     1      35.087 -24.941 -11.398  0.00  0.00    -0.150 OA
BRANCH  10  13
ATOM     13  N   UNL     1      36.335 -25.739 -13.510  0.00  0.00    -0.201 NA
ATOM     14  H   UNL     1      36.692 -25.408 -14.406  0.00  0.00    +0.144 HD
ATOM     15  H   UNL     1      35.685 -26.510 -13.666  0.00  0.00    +0.144 HD
ENDBRANCH  10  13
ENDBRANCH   5  10
BRANCH   8  16
ATOM     16  O   UNL     1      29.503 -22.541 -17.217  0.00  0.00    -0.506 OA
ATOM     17  H   UNL     1      29.246 -21.642 -17.280  0.00  0.00    +0.292 HD
ENDBRANCH   8  16
TORSDOF 3
ENDMDL
MODEL 5
REMARK VINA RESULT:      -7.2      4.019      5.733
REMARK  Name = 6852129
REMARK  3 active torsions:
REMARK  status: ('A' for Active; 'I' for Inactive)
REMARK    1  A    between atoms: C_5  and  S_10
REMARK    2  A    between atoms: C_8  and  O_16
REMARK    3  A    between atoms: S_10  and  N_13
REMARK                            x       y       z     vdW  Elec       q    Type
REMARK                         _______ _______ _______ _____ _____    ______ ____
ROOT
ATOM      1  S   UNL     1      33.938 -23.495 -16.268  0.00  0.00    -0.033 S 
ATOM      2  N   UNL     1      31.865 -22.717 -17.588  0.00  0.00    -0.380 NA
ATOM      3  C   UNL     1      32.406 -23.624 -15.488  0.00  0.00    +0.062 C 
ATOM      4  C   UNL     1      31.412 -23.157 -16.353  0.00  0.00    +0.122 C 
ATOM      5  C   UNL     1      33.169 -22.847 -17.651  0.00  0.00    +0.282 C 
ATOM      6  C   UNL     1      32.106 -24.104 -14.203  0.00  0.00    +0.045 C 
ATOM      7  C   UNL     1      30.070 -23.172 -15.913  0.00  0.00    +0.089 C 
ATOM      8  C   UNL     1      30.770 -24.107 -13.793  0.00  0.00    +0.130 C 
ATOM      9  C   UNL     1      29.764 -23.648 -14.635  0.00  0.00    +0.018 C 
ENDROOT
BRANCH   5  10
ATOM     10  S   UNL     1      34.160 -22.420 -19.015  0.00  0.00    +0.091 S 
ATOM     11  O   UNL     1      34.242 -23.610 -19.862  0.00  0.00    -0.150 OA
ATOM     12  O   UNL     1      33.590 -21.183 -19.548  0.00  0.00    -0.150 OA
BRANCH  10  13
ATOM     13  N   UNL     1      35.758 -22.072 -18.468  0.00  0.00    -0.201 NA
ATOM     14  H   UNL     1      36.271 -22.945 -18.343  0.00  0.00    +0.144 HD
ATOM     15  H   UNL     1      35.713 -21.574 -17.580  0.00  0.00    +0.144 HD
ENDBRANCH  10  13
ENDBRANCH   5  10
BRANCH   8  16
ATOM     16  O   UNL     1      30.452 -24.566 -12.549  0.00  0.00    -0.506 OA
ATOM     17  H   UNL     1      30.799 -25.383 -12.248  0.00  0.00    +0.292 HD
ENDBRANCH   8  16
TORSDOF 3
ENDMDL
MODEL 6
REMARK VINA RESULT:      -7.0      2.552      3.039
REMARK  Name = 6852129
REMARK  3 active torsions:
REMARK  status: ('A' for Active; 'I' for Inactive)
REMARK    1  A    between atoms: C_5  and  S_10
REMARK    2  A    between atoms: C_8  and  O_16
REMARK    3  A    between atoms: S_10  and  N_13
REMARK                            x       y       z     vdW  Elec       q    Type
REMARK                         _______ _______ _______ _____ _____    ______ ____
ROOT
ATOM      1  S   UNL     1      34.970 -24.003 -13.609  0.00  0.00    -0.033 S 
ATOM      2  N   UNL     1      35.468 -23.800 -16.131  0.00  0.00    -0.380 NA
ATOM      3  C   UNL     1      33.649 -23.627 -14.651  0.00  0.00    +0.062 C 
ATOM      4  C   UNL     1      34.112 -23.559 -15.969  0.00  0.00    +0.122 C 
ATOM      5  C   UNL     1      36.015 -24.041 -14.963  0.00  0.00    +0.282 C 
ATOM      6  C   UNL     1      32.301 -23.408 -14.325  0.00  0.00    +0.045 C 
ATOM      7  C   UNL     1      33.189 -23.260 -16.995  0.00  0.00    +0.089 C 
ATOM      8  C   UNL     1      31.409 -23.114 -15.360  0.00  0.00    +0.130 C 
ATOM      9  C   UNL     1      31.845 -23.041 -16.678  0.00  0.00    +0.018 C 
ENDROOT
BRANCH   5  10
ATOM     10  S   UNL     1      37.695 -24.396 -14.692  0.00  0.00    +0.091 S 
ATOM     11  O   UNL     1      38.036 -23.838 -13.382  0.00  0.00    -0.150 OA
ATOM     12  O   UNL     1      37.843 -25.830 -14.934  0.00  0.00    -0.150 OA
BRANCH  10  13
ATOM     13  N   UNL     1      38.647 -23.562 -15.863  0.00  0.00    -0.201 NA
ATOM     14  H   UNL     1      38.036 -23.016 -16.471  0.00  0.00    +0.144 HD
ATOM     15  H   UNL     1      39.168 -24.237 -16.422  0.00  0.00    +0.144 HD
ENDBRANCH  10  13
ENDBRANCH   5  10
BRANCH   8  16
ATOM     16  O   UNL     1      30.095 -22.896 -15.071  0.00  0.00    -0.506 OA
ATOM     17  H   UNL     1      29.810 -22.044 -14.802  0.00  0.00    +0.292 HD
ENDBRANCH   8  16
TORSDOF 3
ENDMDL
MODEL 7
REMARK VINA RESULT:      -6.8      1.917      2.641
REMARK  Name = 6852129
REMARK  3 active torsions:
REMARK  status: ('A' for Active; 'I' for Inactive)
REMARK    1  A    between atoms: C_5  and  S_10
REMARK    2  A    between atoms: C_8  and  O_16
REMARK    3  A    between atoms: S_10  and  N_13
REMARK                            x       y       z     vdW  Elec       q    Type
REMARK                         _______ _______ _______ _____ _____    ______ ____
ROOT
ATOM      1  S   UNL     1      33.722 -23.893 -14.884  0.00  0.00    -0.033 S 
ATOM      2  N   UNL     1      36.106 -22.956 -15.183  0.00  0.00    -0.380 NA
ATOM      3  C   UNL     1      34.118 -23.203 -16.414  0.00  0.00    +0.062 C 
ATOM      4  C   UNL     1      35.441 -22.753 -16.383  0.00  0.00    +0.122 C 
ATOM      5  C   UNL     1      35.302 -23.544 -14.328  0.00  0.00    +0.282 C 
ATOM      6  C   UNL     1      33.314 -23.070 -17.557  0.00  0.00    +0.045 C 
ATOM      7  C   UNL     1      35.977 -22.148 -17.541  0.00  0.00    +0.089 C 
ATOM      8  C   UNL     1      33.869 -22.467 -18.689  0.00  0.00    +0.130 C 
ATOM      9  C   UNL     1      35.182 -22.011 -18.684  0.00  0.00    +0.018 C 
ENDROOT
BRANCH   5  10
ATOM     10  S   UNL     1      35.715 -23.990 -12.699  0.00  0.00    +0.091 S 
ATOM     11  O   UNL     1      36.831 -23.131 -12.300  0.00  0.00    -0.150 OA
ATOM     12  O   UNL     1      34.462 -23.953 -11.948  0.00  0.00    -0.150 OA
BRANCH  10  13
ATOM     13  N   UNL     1      36.293 -25.614 -12.685  0.00  0.00    -0.201 NA
ATOM     14  H   UNL     1      36.039 -26.072 -13.561  0.00  0.00    +0.144 HD
ATOM     15  H   UNL     1      35.873 -26.118 -11.904  0.00  0.00    +0.144 HD
ENDBRANCH  10  13
ENDBRANCH   5  10
BRANCH   8  16
ATOM     16  O   UNL     1      33.110 -22.324 -19.812  0.00  0.00    -0.506 OA
ATOM     17  H   UNL     1      33.516 -22.097 -20.626  0.00  0.00    +0.292 HD
ENDBRANCH   8  16
TORSDOF 3
ENDMDL
MODEL 8
REMARK VINA RESULT:      -6.8      3.043      6.012
REMARK  Name = 6852129
REMARK  3 active torsions:
REMARK  status: ('A' for Active; 'I' for Inactive)
REMARK    1  A    between atoms: C_5  and  S_10
REMARK    2  A    between atoms: C_8  and  O_16
REMARK    3  A    between atoms: S_10  and  N_13
REMARK                            x       y       z     vdW  Elec       q    Type
REMARK                         _______ _______ _______ _____ _____    ______ ____
ROOT
ATOM      1  S   UNL     1      32.992 -23.574 -16.357  0.00  0.00    -0.033 S 
ATOM      2  N   UNL     1      35.447 -22.903 -16.771  0.00  0.00    -0.380 NA
ATOM      3  C   UNL     1      34.102 -23.785 -15.055  0.00  0.00    +0.062 C 
ATOM      4  C   UNL     1      35.373 -23.370 -15.467  0.00  0.00    +0.122 C 
ATOM      5  C   UNL     1      34.262 -22.966 -17.329  0.00  0.00    +0.282 C 
ATOM      6  C   UNL     1      33.865 -24.282 -13.763  0.00  0.00    +0.045 C 
ATOM      7  C   UNL     1      36.443 -23.457 -14.549  0.00  0.00    +0.089 C 
ATOM      8  C   UNL     1      34.942 -24.357 -12.876  0.00  0.00    +0.130 C 
ATOM      9  C   UNL     1      36.215 -23.951 -13.262  0.00  0.00    +0.018 C 
ENDROOT
BRANCH   5  10
ATOM     10  S   UNL     1      33.888 -22.484 -18.957  0.00  0.00    +0.091 S 
ATOM     11  O   UNL     1      34.076 -23.666 -19.799  0.00  0.00    -0.150 OA
ATOM     12  O   UNL     1      32.578 -21.838 -18.890  0.00  0.00    -0.150 OA
BRANCH  10  13
ATOM     13  N   UNL     1      35.033 -21.303 -19.475  0.00  0.00    -0.201 NA
ATOM     14  H   UNL     1      35.443 -21.594 -20.363  0.00  0.00    +0.144 HD
ATOM     15  H   UNL     1      35.768 -21.212 -18.775  0.00  0.00    +0.144 HD
ENDBRANCH  10  13
ENDBRANCH   5  10
BRANCH   8  16
ATOM     16  O   UNL     1      34.740 -24.837 -11.616  0.00  0.00    -0.506 OA
ATOM     17  H   UNL     1      34.889 -24.284 -10.875  0.00  0.00    +0.292 HD
ENDBRANCH   8  16
TORSDOF 3
ENDMDL
MODEL 9
REMARK VINA RESULT:      -6.8      3.376      4.359
REMARK  Name = 6852129
REMARK  3 active torsions:
REMARK  status: ('A' for Active; 'I' for Inactive)
REMARK    1  A    between atoms: C_5  and  S_10
REMARK    2  A    between atoms: C_8  and  O_16
REMARK    3  A    between atoms: S_10  and  N_13
REMARK                            x       y       z     vdW  Elec       q    Type
REMARK                         _______ _______ _______ _____ _____    ______ ____
ROOT
ATOM      1  S   UNL     1      38.131 -24.613 -12.724  0.00  0.00    -0.033 S 
ATOM      2  N   UNL     1      37.717 -25.044 -15.232  0.00  0.00    -0.380 NA
ATOM      3  C   UNL     1      36.533 -24.359 -13.321  0.00  0.00    +0.062 C 
ATOM      4  C   UNL     1      36.506 -24.641 -14.690  0.00  0.00    +0.122 C 
ATOM      5  C   UNL     1      38.635 -25.064 -14.295  0.00  0.00    +0.282 C 
ATOM      6  C   UNL     1      35.387 -23.939 -12.626  0.00  0.00    +0.045 C 
ATOM      7  C   UNL     1      35.287 -24.497 -15.386  0.00  0.00    +0.089 C 
ATOM      8  C   UNL     1      34.193 -23.805 -13.340  0.00  0.00    +0.130 C 
ATOM      9  C   UNL     1      34.141 -24.080 -14.702  0.00  0.00    +0.018 C 
ENDROOT
BRANCH   5  10
ATOM     10  S   UNL     1      40.300 -25.510 -14.524  0.00  0.00    +0.091 S 
ATOM     11  O   UNL     1      41.089 -24.289 -14.352  0.00  0.00    -0.150 OA
ATOM     12  O   UNL     1      40.529 -26.655 -13.646  0.00  0.00    -0.150 OA
BRANCH  10  13
ATOM     13  N   UNL     1      40.527 -26.037 -16.150  0.00  0.00    -0.201 NA
ATOM     14  H   UNL     1      41.142 -26.852 -16.160  0.00  0.00    +0.144 HD
ATOM     15  H   UNL     1      40.950 -25.286 -16.696  0.00  0.00    +0.144 HD
ENDBRANCH  10  13
ENDBRANCH   5  10
BRANCH   8  16
ATOM     16  O   UNL     1      33.066 -23.398 -12.691  0.00  0.00    -0.506 OA
ATOM     17  H   UNL     1      32.362 -24.001 -12.551  0.00  0.00    +0.292 HD
ENDBRANCH   8  16
TORSDOF 3
ENDMDL
