MODEL 1
REMARK VINA RESULT:      -8.3      0.000      0.000
REMARK  Name = 45070
REMARK  2 active torsions:
REMARK  status: ('A' for Active; 'I' for Inactive)
REMARK    1  A    between atoms: N_1  and  C_13
REMARK    2  A    between atoms: C_13  and  C_14
REMARK                            x       y       z     vdW  Elec       q    Type
REMARK                         _______ _______ _______ _____ _____    ______ ____
ROOT
ATOM      1  N   UNL     1      34.842 -17.657 -23.360  0.00  0.00    -0.267 N 
ATOM      2  N   UNL     1      34.716 -15.629 -21.956  0.00  0.00    -0.228 NA
ATOM      3  N   UNL     1      34.136 -17.315 -25.630  0.00  0.00    -0.233 NA
ATOM      4  N   UNL     1      33.884 -14.224 -23.568  0.00  0.00    -0.239 NA
ATOM      5  C   UNL     1      34.591 -16.342 -23.037  0.00  0.00    +0.151 C 
ATOM      6  C   UNL     1      34.062 -15.470 -24.100  0.00  0.00    +0.140 C 
ATOM      7  C   UNL     1      34.600 -18.055 -24.665  0.00  0.00    +0.223 C 
ATOM      8  C   UNL     1      33.852 -15.972 -25.338  0.00  0.00    +0.143 C 
ATOM      9  C   UNL     1      34.275 -14.371 -22.335  0.00  0.00    +0.252 C 
ATOM     10  N   UNL     1      33.356 -15.135 -26.312  0.00  0.00    -0.342 N 
ATOM     11  H   UNL     1      33.195 -15.478 -27.220  0.00  0.00    +0.144 HD
ATOM     12  H   UNL     1      33.163 -14.193 -26.100  0.00  0.00    +0.144 HD
ENDROOT
BRANCH   1  13
ATOM     13  C   UNL     1      35.410 -18.574 -22.385  0.00  0.00    +0.120 C 
BRANCH  13  14
ATOM     14  C   UNL     1      34.295 -19.206 -21.610  0.00  0.00    -0.013 C 
ATOM     15  C   UNL     1      34.387 -20.148 -20.653  0.00  0.00    -0.046 C 
ATOM     16  C   UNL     1      33.225 -20.743 -19.910  0.00  0.00    +0.026 C 
ATOM     17  C   UNL     1      35.730 -20.702 -20.254  0.00  0.00    +0.026 C 
ENDBRANCH  13  14
ENDBRANCH   1  13
TORSDOF 2
ENDMDL
MODEL 2
REMARK VINA RESULT:      -8.2      3.287      6.373
REMARK  Name = 45070
REMARK  2 active torsions:
REMARK  status: ('A' for Active; 'I' for Inactive)
REMARK    1  A    between atoms: N_1  and  C_13
REMARK    2  A    between atoms: C_13  and  C_14
REMARK                            x       y       z     vdW  Elec       q    Type
REMARK                         _______ _______ _______ _____ _____    ______ ____
ROOT
ATOM      1  N   UNL     1      34.716 -19.503 -20.962  0.00  0.00    -0.267 N 
ATOM      2  N   UNL     1      36.702 -20.444 -19.836  0.00  0.00    -0.228 NA
ATOM      3  N   UNL     1      32.653 -20.571 -20.352  0.00  0.00    -0.233 NA
ATOM      4  N   UNL     1      35.604 -22.067 -18.642  0.00  0.00    -0.239 NA
ATOM      5  C   UNL     1      35.441 -20.334 -20.137  0.00  0.00    +0.151 C 
ATOM      6  C   UNL     1      34.700 -21.360 -19.384  0.00  0.00    +0.140 C 
ATOM      7  C   UNL     1      33.343 -19.679 -21.003  0.00  0.00    +0.223 C 
ATOM      8  C   UNL     1      33.358 -21.448 -19.512  0.00  0.00    +0.143 C 
ATOM      9  C   UNL     1      36.738 -21.500 -18.937  0.00  0.00    +0.252 C 
ATOM     10  N   UNL     1      32.690 -22.417 -18.797  0.00  0.00    -0.342 N 
ATOM     11  H   UNL     1      31.712 -22.500 -18.874  0.00  0.00    +0.144 HD
ATOM     12  H   UNL     1      33.190 -23.026 -18.207  0.00  0.00    +0.144 HD
ENDROOT
BRANCH   1  13
ATOM     13  C   UNL     1      35.362 -18.432 -21.704  0.00  0.00    +0.120 C 
BRANCH  13  14
ATOM     14  C   UNL     1      34.999 -17.123 -21.076  0.00  0.00    -0.013 C 
ATOM     15  C   UNL     1      34.695 -15.967 -21.695  0.00  0.00    -0.046 C 
ATOM     16  C   UNL     1      34.338 -14.682 -21.003  0.00  0.00    +0.026 C 
ATOM     17  C   UNL     1      34.706 -15.881 -23.199  0.00  0.00    +0.026 C 
ENDBRANCH  13  14
ENDBRANCH   1  13
TORSDOF 2
ENDMDL
MODEL 3
REMARK VINA RESULT:      -7.9      1.124      2.681
REMARK  Name = 45070
REMARK  2 active torsions:
REMARK  status: ('A' for Active; 'I' for Inactive)
REMARK    1  A    between atoms: N_1  and  C_13
REMARK    2  A    between atoms: C_13  and  C_14
REMARK                            x       y       z     vdW  Elec       q    Type
REMARK                         _______ _______ _______ _____ _____    ______ ____
ROOT
ATOM      1  N   UNL     1      34.745 -16.604 -23.551  0.00  0.00    -0.267 N 
ATOM      2  N   UNL     1      33.734 -16.457 -25.799  0.00  0.00    -0.228 NA
ATOM      3  N   UNL     1      34.422 -14.641 -22.207  0.00  0.00    -0.233 NA
ATOM      4  N   UNL     1      32.901 -14.329 -25.592  0.00  0.00    -0.239 NA
ATOM      5  C   UNL     1      34.058 -16.048 -24.607  0.00  0.00    +0.151 C 
ATOM      6  C   UNL     1      33.535 -14.682 -24.435  0.00  0.00    +0.140 C 
ATOM      7  C   UNL     1      34.871 -15.848 -22.398  0.00  0.00    +0.223 C 
ATOM      8  C   UNL     1      33.730 -14.032 -23.266  0.00  0.00    +0.143 C 
ATOM      9  C   UNL     1      33.043 -15.384 -26.341  0.00  0.00    +0.252 C 
ATOM     10  N   UNL     1      33.231 -12.756 -23.131  0.00  0.00    -0.342 N 
ATOM     11  H   UNL     1      33.360 -12.263 -22.289  0.00  0.00    +0.144 HD
ATOM     12  H   UNL     1      32.743 -12.337 -23.877  0.00  0.00    +0.144 HD
ENDROOT
BRANCH   1  13
ATOM     13  C   UNL     1      35.253 -17.965 -23.620  0.00  0.00    +0.120 C 
BRANCH  13  14
ATOM     14  C   UNL     1      34.471 -18.820 -22.671  0.00  0.00    -0.013 C 
ATOM     15  C   UNL     1      34.874 -19.323 -21.489  0.00  0.00    -0.046 C 
ATOM     16  C   UNL     1      34.037 -20.178 -20.582  0.00  0.00    +0.026 C 
ATOM     17  C   UNL     1      36.268 -19.056 -20.982  0.00  0.00    +0.026 C 
ENDBRANCH  13  14
ENDBRANCH   1  13
TORSDOF 2
ENDMDL
MODEL 4
REMARK VINA RESULT:      -7.9      1.082      2.571
REMARK  Name = 45070
REMARK  2 active torsions:
REMARK  status: ('A' for Active; 'I' for Inactive)
REMARK    1  A    between atoms: N_1  and  C_13
REMARK    2  A    between atoms: C_13  and  C_14
REMARK                            x       y       z     vdW  Elec       q    Type
REMARK                         _______ _______ _______ _____ _____    ______ ____
ROOT
ATOM      1  N   UNL     1      35.150 -17.345 -21.903  0.00  0.00    -0.267 N 
ATOM      2  N   UNL     1      34.944 -17.782 -24.325  0.00  0.00    -0.228 NA
ATOM      3  N   UNL     1      34.407 -15.159 -21.242  0.00  0.00    -0.233 NA
ATOM      4  N   UNL     1      34.099 -15.731 -24.909  0.00  0.00    -0.239 NA
ATOM      5  C   UNL     1      34.856 -17.093 -23.225  0.00  0.00    +0.151 C 
ATOM      6  C   UNL     1      34.311 -15.766 -23.560  0.00  0.00    +0.140 C 
ATOM      7  C   UNL     1      34.889 -16.341 -20.986  0.00  0.00    +0.223 C 
ATOM      8  C   UNL     1      34.109 -14.857 -22.580  0.00  0.00    +0.143 C 
ATOM      9  C   UNL     1      34.478 -16.913 -25.300  0.00  0.00    +0.252 C 
ATOM     10  N   UNL     1      33.599 -13.624 -22.921  0.00  0.00    -0.342 N 
ATOM     11  H   UNL     1      33.444 -12.946 -22.225  0.00  0.00    +0.144 HD
ATOM     12  H   UNL     1      33.389 -13.421 -23.862  0.00  0.00    +0.144 HD
ENDROOT
BRANCH   1  13
ATOM     13  C   UNL     1      35.646 -18.644 -21.479  0.00  0.00    +0.120 C 
BRANCH  13  14
ATOM     14  C   UNL     1      34.503 -19.441 -20.930  0.00  0.00    -0.013 C 
ATOM     15  C   UNL     1      34.562 -20.543 -20.158  0.00  0.00    -0.046 C 
ATOM     16  C   UNL     1      33.372 -21.298 -19.638  0.00  0.00    +0.026 C 
ATOM     17  C   UNL     1      35.892 -21.124 -19.758  0.00  0.00    +0.026 C 
ENDBRANCH  13  14
ENDBRANCH   1  13
TORSDOF 2
ENDMDL
MODEL 5
REMARK VINA RESULT:      -7.8      3.845      6.893
REMARK  Name = 45070
REMARK  2 active torsions:
REMARK  status: ('A' for Active; 'I' for Inactive)
REMARK    1  A    between atoms: N_1  and  C_13
REMARK    2  A    between atoms: C_13  and  C_14
REMARK                            x       y       z     vdW  Elec       q    Type
REMARK                         _______ _______ _______ _____ _____    ______ ____
ROOT
ATOM      1  N   UNL     1      34.752 -20.296 -20.378  0.00  0.00    -0.267 N 
ATOM      2  N   UNL     1      36.732 -20.805 -18.992  0.00  0.00    -0.228 NA
ATOM      3  N   UNL     1      32.814 -21.600 -19.822  0.00  0.00    -0.233 NA
ATOM      4  N   UNL     1      35.765 -22.449 -17.716  0.00  0.00    -0.239 NA
ATOM      5  C   UNL     1      35.504 -20.919 -19.407  0.00  0.00    +0.151 C 
ATOM      6  C   UNL     1      34.848 -21.966 -18.605  0.00  0.00    +0.140 C 
ATOM      7  C   UNL     1      33.429 -20.683 -20.511  0.00  0.00    +0.223 C 
ATOM      8  C   UNL     1      33.550 -22.270 -18.833  0.00  0.00    +0.143 C 
ATOM      9  C   UNL     1      36.830 -21.748 -17.980  0.00  0.00    +0.252 C 
ATOM     10  N   UNL     1      32.961 -23.253 -18.070  0.00  0.00    -0.342 N 
ATOM     11  H   UNL     1      32.018 -23.492 -18.217  0.00  0.00    +0.144 HD
ATOM     12  H   UNL     1      33.483 -23.717 -17.375  0.00  0.00    +0.144 HD
ENDROOT
BRANCH   1  13
ATOM     13  C   UNL     1      35.308 -19.219 -21.181  0.00  0.00    +0.120 C 
BRANCH  13  14
ATOM     14  C   UNL     1      34.820 -19.366 -22.589  0.00  0.00    -0.013 C 
ATOM     15  C   UNL     1      34.805 -18.432 -23.559  0.00  0.00    -0.046 C 
ATOM     16  C   UNL     1      34.299 -18.644 -24.957  0.00  0.00    +0.026 C 
ATOM     17  C   UNL     1      35.309 -17.039 -23.284  0.00  0.00    +0.026 C 
ENDBRANCH  13  14
ENDBRANCH   1  13
TORSDOF 2
ENDMDL
MODEL 6
REMARK VINA RESULT:      -7.5      2.376      6.358
REMARK  Name = 45070
REMARK  2 active torsions:
REMARK  status: ('A' for Active; 'I' for Inactive)
REMARK    1  A    between atoms: N_1  and  C_13
REMARK    2  A    between atoms: C_13  and  C_14
REMARK                            x       y       z     vdW  Elec       q    Type
REMARK                         _______ _______ _______ _____ _____    ______ ____
ROOT
ATOM      1  N   UNL     1      33.961 -14.527 -23.842  0.00  0.00    -0.267 N 
ATOM      2  N   UNL     1      34.150 -16.459 -25.369  0.00  0.00    -0.228 NA
ATOM      3  N   UNL     1      34.545 -15.024 -21.567  0.00  0.00    -0.233 NA
ATOM      4  N   UNL     1      34.820 -17.992 -23.799  0.00  0.00    -0.239 NA
ATOM      5  C   UNL     1      34.207 -15.824 -24.235  0.00  0.00    +0.151 C 
ATOM      6  C   UNL     1      34.640 -16.778 -23.200  0.00  0.00    +0.140 C 
ATOM      7  C   UNL     1      34.162 -14.211 -22.509  0.00  0.00    +0.223 C 
ATOM      8  C   UNL     1      34.791 -16.359 -21.923  0.00  0.00    +0.143 C 
ATOM      9  C   UNL     1      34.527 -17.753 -25.045  0.00  0.00    +0.252 C 
ATOM     10  N   UNL     1      35.196 -17.272 -20.975  0.00  0.00    -0.342 N 
ATOM     11  H   UNL     1      35.313 -16.990 -20.039  0.00  0.00    +0.144 HD
ATOM     12  H   UNL     1      35.370 -18.206 -21.233  0.00  0.00    +0.144 HD
ENDROOT
BRANCH   1  13
ATOM     13  C   UNL     1      33.576 -13.511 -24.809  0.00  0.00    +0.120 C 
BRANCH  13  14
ATOM     14  C   UNL     1      33.543 -12.180 -24.122  0.00  0.00    -0.013 C 
ATOM     15  C   UNL     1      34.092 -11.023 -24.539  0.00  0.00    -0.046 C 
ATOM     16  C   UNL     1      34.023  -9.718 -23.800  0.00  0.00    +0.026 C 
ATOM     17  C   UNL     1      34.859 -10.966 -25.834  0.00  0.00    +0.026 C 
ENDBRANCH  13  14
ENDBRANCH   1  13
TORSDOF 2
ENDMDL
MODEL 7
REMARK VINA RESULT:      -7.5      2.968      6.607
REMARK  Name = 45070
REMARK  2 active torsions:
REMARK  status: ('A' for Active; 'I' for Inactive)
REMARK    1  A    between atoms: N_1  and  C_13
REMARK    2  A    between atoms: C_13  and  C_14
REMARK                            x       y       z     vdW  Elec       q    Type
REMARK                         _______ _______ _______ _____ _____    ______ ____
ROOT
ATOM      1  N   UNL     1      33.525 -13.713 -23.547  0.00  0.00    -0.267 N 
ATOM      2  N   UNL     1      32.653 -14.215 -25.803  0.00  0.00    -0.228 NA
ATOM      3  N   UNL     1      34.974 -15.411 -22.664  0.00  0.00    -0.233 NA
ATOM      4  N   UNL     1      33.672 -16.255 -26.049  0.00  0.00    -0.239 NA
ATOM      5  C   UNL     1      33.329 -14.423 -24.712  0.00  0.00    +0.151 C 
ATOM      6  C   UNL     1      34.003 -15.726 -24.834  0.00  0.00    +0.140 C 
ATOM      7  C   UNL     1      34.360 -14.266 -22.591  0.00  0.00    +0.223 C 
ATOM      8  C   UNL     1      34.787 -16.173 -23.828  0.00  0.00    +0.143 C 
ATOM      9  C   UNL     1      32.896 -15.347 -26.566  0.00  0.00    +0.252 C 
ATOM     10  N   UNL     1      35.406 -17.396 -23.968  0.00  0.00    -0.342 N 
ATOM     11  H   UNL     1      35.981 -17.742 -23.249  0.00  0.00    +0.144 HD
ATOM     12  H   UNL     1      35.273 -17.923 -24.789  0.00  0.00    +0.144 HD
ENDROOT
BRANCH   1  13
ATOM     13  C   UNL     1      32.935 -12.396 -23.364  0.00  0.00    +0.120 C 
BRANCH  13  14
ATOM     14  C   UNL     1      33.866 -11.368 -23.930  0.00  0.00    -0.013 C 
ATOM     15  C   UNL     1      33.828 -10.034 -23.750  0.00  0.00    -0.046 C 
ATOM     16  C   UNL     1      34.796  -9.053 -24.348  0.00  0.00    +0.026 C 
ATOM     17  C   UNL     1      32.751  -9.408 -22.903  0.00  0.00    +0.026 C 
ENDBRANCH  13  14
ENDBRANCH   1  13
TORSDOF 2
ENDMDL
MODEL 8
REMARK VINA RESULT:      -7.4      6.820      9.883
REMARK  Name = 45070
REMARK  2 active torsions:
REMARK  status: ('A' for Active; 'I' for Inactive)
REMARK    1  A    between atoms: N_1  and  C_13
REMARK    2  A    between atoms: C_13  and  C_14
REMARK                            x       y       z     vdW  Elec       q    Type
REMARK                         _______ _______ _______ _____ _____    ______ ____
ROOT
ATOM      1  N   UNL     1      33.517 -23.096 -17.224  0.00  0.00    -0.267 N 
ATOM      2  N   UNL     1      35.487 -23.829 -15.927  0.00  0.00    -0.228 NA
ATOM      3  N   UNL     1      31.459 -23.159 -15.988  0.00  0.00    -0.233 NA
ATOM      4  N   UNL     1      34.376 -24.311 -13.979  0.00  0.00    -0.239 NA
ATOM      5  C   UNL     1      34.232 -23.564 -16.144  0.00  0.00    +0.151 C 
ATOM      6  C   UNL     1      33.484 -23.859 -14.909  0.00  0.00    +0.140 C 
ATOM      7  C   UNL     1      32.154 -22.913 -17.061  0.00  0.00    +0.223 C 
ATOM      8  C   UNL     1      32.148 -23.653 -14.869  0.00  0.00    +0.143 C 
ATOM      9  C   UNL     1      35.511 -24.273 -14.614  0.00  0.00    +0.252 C 
ATOM     10  N   UNL     1      31.474 -23.937 -13.703  0.00  0.00    -0.342 N 
ATOM     11  H   UNL     1      30.501 -23.796 -13.650  0.00  0.00    +0.144 HD
ATOM     12  H   UNL     1      31.964 -24.281 -12.921  0.00  0.00    +0.144 HD
ENDROOT
BRANCH   1  13
ATOM     13  C   UNL     1      34.184 -22.735 -18.465  0.00  0.00    +0.120 C 
BRANCH  13  14
ATOM     14  C   UNL     1      33.331 -21.749 -19.202  0.00  0.00    -0.013 C 
ATOM     15  C   UNL     1      33.734 -20.766 -20.030  0.00  0.00    -0.046 C 
ATOM     16  C   UNL     1      32.824 -19.806 -20.740  0.00  0.00    +0.026 C 
ATOM     17  C   UNL     1      35.200 -20.550 -20.300  0.00  0.00    +0.026 C 
ENDBRANCH  13  14
ENDBRANCH   1  13
TORSDOF 2
ENDMDL
MODEL 9
REMARK VINA RESULT:      -7.4      2.632      6.023
REMARK  Name = 45070
REMARK  2 active torsions:
REMARK  status: ('A' for Active; 'I' for Inactive)
REMARK    1  A    between atoms: N_1  and  C_13
REMARK    2  A    between atoms: C_13  and  C_14
REMARK                            x       y       z     vdW  Elec       q    Type
REMARK                         _______ _______ _______ _____ _____    ______ ____
ROOT
ATOM      1  N   UNL     1      33.416 -14.630 -22.004  0.00  0.00    -0.267 N 
ATOM      2  N   UNL     1      33.671 -15.525 -24.292  0.00  0.00    -0.228 NA
ATOM      3  N   UNL     1      34.558 -15.911 -20.324  0.00  0.00    -0.233 NA
ATOM      4  N   UNL     1      34.959 -17.342 -23.739  0.00  0.00    -0.239 NA
ATOM      5  C   UNL     1      33.835 -15.482 -23.002  0.00  0.00    +0.151 C 
ATOM      6  C   UNL     1      34.663 -16.635 -22.609  0.00  0.00    +0.140 C 
ATOM      7  C   UNL     1      33.825 -14.906 -20.710  0.00  0.00    +0.223 C 
ATOM      8  C   UNL     1      34.991 -16.812 -21.309  0.00  0.00    +0.143 C 
ATOM      9  C   UNL     1      34.366 -16.661 -24.677  0.00  0.00    +0.252 C 
ATOM     10  N   UNL     1      35.767 -17.898 -20.969  0.00  0.00    -0.342 N 
ATOM     11  H   UNL     1      36.018 -18.049 -20.029  0.00  0.00    +0.144 HD
ATOM     12  H   UNL     1      36.070 -18.524 -21.666  0.00  0.00    +0.144 HD
ENDROOT
BRANCH   1  13
ATOM     13  C   UNL     1      32.636 -13.441 -22.311  0.00  0.00    +0.120 C 
BRANCH  13  14
ATOM     14  C   UNL     1      32.221 -12.792 -21.027  0.00  0.00    -0.013 C 
ATOM     15  C   UNL     1      31.554 -11.633 -20.867  0.00  0.00    -0.046 C 
ATOM     16  C   UNL     1      31.167 -11.034 -19.546  0.00  0.00    +0.026 C 
ATOM     17  C   UNL     1      31.143 -10.818 -22.065  0.00  0.00    +0.026 C 
ENDBRANCH  13  14
ENDBRANCH   1  13
TORSDOF 2
ENDMDL
