MODEL 1
REMARK VINA RESULT:     -10.8      0.000      0.000
REMARK  Name = 2993
REMARK  13 active torsions:
REMARK  status: ('A' for Active; 'I' for Inactive)
REMARK    1  A    between atoms: C_1  and  C_2
REMARK    2  A    between atoms: C_1  and  C_21
REMARK    3  A    between atoms: C_2  and  C_3
REMARK    4  A    between atoms: C_3  and  C_4
REMARK    5  A    between atoms: C_4  and  C_5
REMARK    6  A    between atoms: C_5  and  C_6
REMARK    7  A    between atoms: C_6  and  N_7
REMARK    8  A    between atoms: C_12  and  N_18
REMARK    9  A    between atoms: C_21  and  C_22
REMARK   10  A    between atoms: C_22  and  C_23
REMARK   11  A    between atoms: C_23  and  C_24
REMARK   12  A    between atoms: C_24  and  N_25
REMARK   13  A    between atoms: C_30  and  N_36
REMARK                            x       y       z     vdW  Elec       q    Type
REMARK                         _______ _______ _______ _____ _____    ______ ____
ROOT
ATOM      1  C   UNL     1      34.980 -19.440 -22.853  0.00  0.00    +0.000 C 
ENDROOT
BRANCH   1   2
ATOM      2  C   UNL     1      34.583 -18.726 -24.147  0.00  0.00    +0.000 C 
BRANCH   2   3
ATOM      3  C   UNL     1      34.938 -17.237 -24.089  0.00  0.00    +0.000 C 
BRANCH   3   4
ATOM      4  C   UNL     1      34.163 -16.443 -25.142  0.00  0.00    +0.002 C 
BRANCH   4   5
ATOM      5  C   UNL     1      33.539 -15.155 -24.596  0.00  0.00    +0.021 C 
BRANCH   5   6
ATOM      6  C   UNL     1      34.229 -14.563 -23.369  0.00  0.00    +0.091 C 
BRANCH   6   7
ATOM      7  N   UNL     1      33.338 -13.610 -22.670  0.00  0.00    -0.305 N 
ATOM      8  C   UNL     1      33.231 -12.341 -23.107  0.00  0.00    +0.119 C 
ATOM      9  C   UNL     1      32.666 -14.075 -21.608  0.00  0.00    +0.027 C 
ATOM     10  C   UNL     1      32.375 -11.450 -22.424  0.00  0.00    +0.013 C 
ATOM     11  C   UNL     1      31.812 -13.244 -20.900  0.00  0.00    +0.024 C 
ATOM     12  C   UNL     1      31.666 -11.924 -21.311  0.00  0.00    +0.040 C 
ATOM     13  C   UNL     1      33.956 -11.910 -24.223  0.00  0.00    -0.002 C 
ATOM     14  C   UNL     1      32.836 -15.495 -21.183  0.00  0.00    +0.047 C 
ATOM     15  C   UNL     1      32.267 -10.128 -22.883  0.00  0.00    -0.001 C 
ATOM     16  C   UNL     1      33.836 -10.593 -24.665  0.00  0.00    -0.003 C 
ATOM     17  C   UNL     1      32.994  -9.705 -23.997  0.00  0.00    -0.000 C 
BRANCH  12  18
ATOM     18  N   UNL     1      30.792 -11.088 -20.578  0.00  0.00    -0.357 N 
ATOM     19  H   UNL     1      31.050 -10.158 -20.380  0.00  0.00    +0.142 HD
ATOM     20  H   UNL     1      29.926 -11.435 -20.264  0.00  0.00    +0.142 HD
ENDBRANCH  12  18
ENDBRANCH   6   7
ENDBRANCH   5   6
ENDBRANCH   4   5
ENDBRANCH   3   4
ENDBRANCH   2   3
ENDBRANCH   1   2
BRANCH   1  21
ATOM     21  C   UNL     1      34.204 -18.953 -21.626  0.00  0.00    +0.000 C 
BRANCH  21  22
ATOM     22  C   UNL     1      33.044 -19.873 -21.238  0.00  0.00    +0.002 C 
BRANCH  22  23
ATOM     23  C   UNL     1      33.259 -20.480 -19.848  0.00  0.00    +0.022 C 
BRANCH  23  24
ATOM     24  C   UNL     1      33.941 -21.845 -19.890  0.00  0.00    +0.095 C 
BRANCH  24  25
ATOM     25  N   UNL     1      34.747 -22.073 -18.669  0.00  0.00    -0.290 N 
ATOM     26  C   UNL     1      34.171 -22.592 -17.569  0.00  0.00    +0.049 C 
ATOM     27  C   UNL     1      36.043 -21.740 -18.727  0.00  0.00    +0.030 C 
ATOM     28  C   UNL     1      34.961 -22.800 -16.416  0.00  0.00    +0.009 C 
ATOM     29  C   UNL     1      36.864 -21.923 -17.627  0.00  0.00    +0.024 C 
ATOM     30  C   UNL     1      36.319 -22.456 -16.464  0.00  0.00    +0.040 C 
ATOM     31  C   UNL     1      32.812 -22.922 -17.565  0.00  0.00    +0.014 C 
ATOM     32  C   UNL     1      36.611 -21.169 -19.984  0.00  0.00    +0.047 C 
ATOM     33  C   UNL     1      34.357 -23.341 -15.270  0.00  0.00    +0.055 C 
ATOM     34  C   UNL     1      32.230 -23.459 -16.418  0.00  0.00    -0.003 C 
ATOM     35  C   UNL     1      33.000 -23.668 -15.273  0.00  0.00    -0.021 C 
BRANCH  30  36
ATOM     36  N   UNL     1      37.169 -22.636 -15.347  0.00  0.00    -0.357 N 
ATOM     37  H   UNL     1      37.485 -23.538 -15.109  0.00  0.00    +0.142 HD
ATOM     38  H   UNL     1      37.444 -21.860 -14.808  0.00  0.00    +0.142 HD
ENDBRANCH  30  36
ENDBRANCH  24  25
ENDBRANCH  23  24
ENDBRANCH  22  23
ENDBRANCH  21  22
ENDBRANCH   1  21
TORSDOF 13
ENDMDL
MODEL 2
REMARK VINA RESULT:     -10.7      0.322     11.067
REMARK  Name = 2993
REMARK  13 active torsions:
REMARK  status: ('A' for Active; 'I' for Inactive)
REMARK    1  A    between atoms: C_1  and  C_2
REMARK    2  A    between atoms: C_1  and  C_21
REMARK    3  A    between atoms: C_2  and  C_3
REMARK    4  A    between atoms: C_3  and  C_4
REMARK    5  A    between atoms: C_4  and  C_5
REMARK    6  A    between atoms: C_5  and  C_6
REMARK    7  A    between atoms: C_6  and  N_7
REMARK    8  A    between atoms: C_12  and  N_18
REMARK    9  A    between atoms: C_21  and  C_22
REMARK   10  A    between atoms: C_22  and  C_23
REMARK   11  A    between atoms: C_23  and  C_24
REMARK   12  A    between atoms: C_24  and  N_25
REMARK   13  A    between atoms: C_30  and  N_36
REMARK                            x       y       z     vdW  Elec       q    Type
REMARK                         _______ _______ _______ _____ _____    ______ ____
ROOT
ATOM      1  C   UNL     1      35.094 -18.420 -23.496  0.00  0.00    +0.000 C 
ENDROOT
BRANCH   1   2
ATOM      2  C   UNL     1      35.568 -18.705 -22.070  0.00  0.00    +0.000 C 
BRANCH   2   3
ATOM      3  C   UNL     1      34.410 -18.616 -21.072  0.00  0.00    +0.000 C 
BRANCH   3   4
ATOM      4  C   UNL     1      33.487 -19.831 -21.188  0.00  0.00    +0.002 C 
BRANCH   4   5
ATOM      5  C   UNL     1      33.330 -20.604 -19.875  0.00  0.00    +0.021 C 
BRANCH   5   6
ATOM      6  C   UNL     1      33.989 -21.981 -19.844  0.00  0.00    +0.091 C 
BRANCH   6   7
ATOM      7  N   UNL     1      34.766 -22.169 -18.598  0.00  0.00    -0.305 N 
ATOM      8  C   UNL     1      34.168 -22.658 -17.496  0.00  0.00    +0.119 C 
ATOM      9  C   UNL     1      36.063 -21.832 -18.636  0.00  0.00    +0.027 C 
ATOM     10  C   UNL     1      34.930 -22.828 -16.320  0.00  0.00    +0.013 C 
ATOM     11  C   UNL     1      36.858 -21.978 -17.511  0.00  0.00    +0.024 C 
ATOM     12  C   UNL     1      36.288 -22.478 -16.346  0.00  0.00    +0.040 C 
ATOM     13  C   UNL     1      32.810 -22.994 -17.515  0.00  0.00    -0.002 C 
ATOM     14  C   UNL     1      36.656 -21.296 -19.896  0.00  0.00    +0.047 C 
ATOM     15  C   UNL     1      34.302 -23.338 -15.173  0.00  0.00    -0.001 C 
ATOM     16  C   UNL     1      32.203 -23.499 -16.366  0.00  0.00    -0.003 C 
ATOM     17  C   UNL     1      32.946 -23.671 -15.199  0.00  0.00    -0.000 C 
BRANCH  12  18
ATOM     18  N   UNL     1      37.112 -22.621 -15.205  0.00  0.00    -0.357 N 
ATOM     19  H   UNL     1      36.710 -22.830 -14.331  0.00  0.00    +0.142 HD
ATOM     20  H   UNL     1      38.087 -22.510 -15.285  0.00  0.00    +0.142 HD
ENDBRANCH  12  18
ENDBRANCH   6   7
ENDBRANCH   5   6
ENDBRANCH   4   5
ENDBRANCH   3   4
ENDBRANCH   2   3
ENDBRANCH   1   2
BRANCH   1  21
ATOM     21  C   UNL     1      35.154 -16.937 -23.872  0.00  0.00    +0.000 C 
BRANCH  21  22
ATOM     22  C   UNL     1      34.068 -16.520 -24.868  0.00  0.00    +0.002 C 
BRANCH  22  23
ATOM     23  C   UNL     1      33.522 -15.126 -24.541  0.00  0.00    +0.022 C 
BRANCH  23  24
ATOM     24  C   UNL     1      34.221 -14.474 -23.351  0.00  0.00    +0.095 C 
BRANCH  24  25
ATOM     25  N   UNL     1      33.316 -13.532 -22.656  0.00  0.00    -0.290 N 
ATOM     26  C   UNL     1      33.209 -12.260 -23.083  0.00  0.00    +0.049 C 
ATOM     27  C   UNL     1      32.634 -14.009 -21.606  0.00  0.00    +0.030 C 
ATOM     28  C   UNL     1      32.340 -11.379 -22.403  0.00  0.00    +0.009 C 
ATOM     29  C   UNL     1      31.767 -13.190 -20.902  0.00  0.00    +0.024 C 
ATOM     30  C   UNL     1      31.619 -11.866 -21.303  0.00  0.00    +0.040 C 
ATOM     31  C   UNL     1      33.946 -11.815 -24.186  0.00  0.00    +0.014 C 
ATOM     32  C   UNL     1      32.805 -15.432 -21.191  0.00  0.00    +0.047 C 
ATOM     33  C   UNL     1      32.230 -10.054 -22.852  0.00  0.00    +0.055 C 
ATOM     34  C   UNL     1      33.824 -10.495 -24.617  0.00  0.00    -0.003 C 
ATOM     35  C   UNL     1      32.969  -9.616 -23.953  0.00  0.00    -0.021 C 
BRANCH  30  36
ATOM     36  N   UNL     1      30.731 -11.041 -20.574  0.00  0.00    -0.357 N 
ATOM     37  H   UNL     1      30.633 -11.163 -19.601  0.00  0.00    +0.142 HD
ATOM     38  H   UNL     1      30.210 -10.347 -21.039  0.00  0.00    +0.142 HD
ENDBRANCH  30  36
ENDBRANCH  24  25
ENDBRANCH  23  24
ENDBRANCH  22  23
ENDBRANCH  21  22
ENDBRANCH   1  21
TORSDOF 13
ENDMDL
MODEL 3
REMARK VINA RESULT:     -10.7      1.252     11.465
REMARK  Name = 2993
REMARK  13 active torsions:
REMARK  status: ('A' for Active; 'I' for Inactive)
REMARK    1  A    between atoms: C_1  and  C_2
REMARK    2  A    between atoms: C_1  and  C_21
REMARK    3  A    between atoms: C_2  and  C_3
REMARK    4  A    between atoms: C_3  and  C_4
REMARK    5  A    between atoms: C_4  and  C_5
REMARK    6  A    between atoms: C_5  and  C_6
REMARK    7  A    between atoms: C_6  and  N_7
REMARK    8  A    between atoms: C_12  and  N_18
REMARK    9  A    between atoms: C_21  and  C_22
REMARK   10  A    between atoms: C_22  and  C_23
REMARK   11  A    between atoms: C_23  and  C_24
REMARK   12  A    between atoms: C_24  and  N_25
REMARK   13  A    between atoms: C_30  and  N_36
REMARK                            x       y       z     vdW  Elec       q    Type
REMARK                         _______ _______ _______ _____ _____    ______ ____
ROOT
ATOM      1  C   UNL     1      35.258 -17.649 -23.267  0.00  0.00    +0.000 C 
ENDROOT
BRANCH   1   2
ATOM      2  C   UNL     1      35.136 -18.915 -22.416  0.00  0.00    +0.000 C 
BRANCH   2   3
ATOM      3  C   UNL     1      34.209 -18.689 -21.218  0.00  0.00    +0.000 C 
BRANCH   3   4
ATOM      4  C   UNL     1      33.171 -19.807 -21.104  0.00  0.00    +0.002 C 
BRANCH   4   5
ATOM      5  C   UNL     1      33.241 -20.571 -19.778  0.00  0.00    +0.021 C 
BRANCH   5   6
ATOM      6  C   UNL     1      33.982 -21.906 -19.831  0.00  0.00    +0.091 C 
BRANCH   6   7
ATOM      7  N   UNL     1      34.767 -22.125 -18.595  0.00  0.00    -0.305 N 
ATOM      8  C   UNL     1      34.177 -22.646 -17.503  0.00  0.00    +0.119 C 
ATOM      9  C   UNL     1      36.062 -21.784 -18.632  0.00  0.00    +0.027 C 
ATOM     10  C   UNL     1      34.947 -22.845 -16.337  0.00  0.00    +0.013 C 
ATOM     11  C   UNL     1      36.865 -21.958 -17.516  0.00  0.00    +0.024 C 
ATOM     12  C   UNL     1      36.303 -22.491 -16.362  0.00  0.00    +0.040 C 
ATOM     13  C   UNL     1      32.820 -22.985 -17.522  0.00  0.00    -0.002 C 
ATOM     14  C   UNL     1      36.647 -21.212 -19.881  0.00  0.00    +0.047 C 
ATOM     15  C   UNL     1      34.327 -23.388 -15.200  0.00  0.00    -0.001 C 
ATOM     16  C   UNL     1      32.221 -23.523 -16.384  0.00  0.00    -0.003 C 
ATOM     17  C   UNL     1      32.972 -23.723 -15.226  0.00  0.00    -0.000 C 
BRANCH  12  18
ATOM     18  N   UNL     1      37.135 -22.662 -15.230  0.00  0.00    -0.357 N 
ATOM     19  H   UNL     1      37.993 -23.138 -15.317  0.00  0.00    +0.142 HD
ATOM     20  H   UNL     1      36.857 -22.306 -14.356  0.00  0.00    +0.142 HD
ENDBRANCH  12  18
ENDBRANCH   6   7
ENDBRANCH   5   6
ENDBRANCH   4   5
ENDBRANCH   3   4
ENDBRANCH   2   3
ENDBRANCH   1   2
BRANCH   1  21
ATOM     21  C   UNL     1      34.802 -16.381 -22.540  0.00  0.00    +0.000 C 
BRANCH  21  22
ATOM     22  C   UNL     1      34.189 -15.335 -23.474  0.00  0.00    +0.002 C 
BRANCH  22  23
ATOM     23  C   UNL     1      33.793 -14.070 -22.706  0.00  0.00    +0.022 C 
BRANCH  23  24
ATOM     24  C   UNL     1      32.634 -13.316 -23.353  0.00  0.00    +0.095 C 
BRANCH  24  25
ATOM     25  N   UNL     1      32.783 -11.855 -23.167  0.00  0.00    -0.290 N 
ATOM     26  C   UNL     1      32.312 -11.266 -22.052  0.00  0.00    +0.049 C 
ATOM     27  C   UNL     1      33.394 -11.177 -24.148  0.00  0.00    +0.030 C 
ATOM     28  C   UNL     1      32.465  -9.870 -21.898  0.00  0.00    +0.009 C 
ATOM     29  C   UNL     1      33.571  -9.808 -24.050  0.00  0.00    +0.024 C 
ATOM     30  C   UNL     1      33.103  -9.150 -22.917  0.00  0.00    +0.040 C 
ATOM     31  C   UNL     1      31.682 -12.022 -21.059  0.00  0.00    +0.014 C 
ATOM     32  C   UNL     1      33.889 -11.901 -25.357  0.00  0.00    +0.047 C 
ATOM     33  C   UNL     1      31.973  -9.259 -20.734  0.00  0.00    +0.055 C 
ATOM     34  C   UNL     1      31.200 -11.398 -19.910  0.00  0.00    -0.003 C 
ATOM     35  C   UNL     1      31.345 -10.021 -19.747  0.00  0.00    -0.021 C 
BRANCH  30  36
ATOM     36  N   UNL     1      33.291  -7.750 -22.831  0.00  0.00    -0.357 N 
ATOM     37  H   UNL     1      33.102  -7.279 -21.986  0.00  0.00    +0.142 HD
ATOM     38  H   UNL     1      33.608  -7.247 -23.615  0.00  0.00    +0.142 HD
ENDBRANCH  30  36
ENDBRANCH  24  25
ENDBRANCH  23  24
ENDBRANCH  22  23
ENDBRANCH  21  22
ENDBRANCH   1  21
TORSDOF 13
ENDMDL
MODEL 4
REMARK VINA RESULT:     -10.7      1.349      2.325
REMARK  Name = 2993
REMARK  13 active torsions:
REMARK  status: ('A' for Active; 'I' for Inactive)
REMARK    1  A    between atoms: C_1  and  C_2
REMARK    2  A    between atoms: C_1  and  C_21
REMARK    3  A    between atoms: C_2  and  C_3
REMARK    4  A    between atoms: C_3  and  C_4
REMARK    5  A    between atoms: C_4  and  C_5
REMARK    6  A    between atoms: C_5  and  C_6
REMARK    7  A    between atoms: C_6  and  N_7
REMARK    8  A    between atoms: C_12  and  N_18
REMARK    9  A    between atoms: C_21  and  C_22
REMARK   10  A    between atoms: C_22  and  C_23
REMARK   11  A    between atoms: C_23  and  C_24
REMARK   12  A    between atoms: C_24  and  N_25
REMARK   13  A    between atoms: C_30  and  N_36
REMARK                            x       y       z     vdW  Elec       q    Type
REMARK                         _______ _______ _______ _____ _____    ______ ____
ROOT
ATOM      1  C   UNL     1      33.964 -17.441 -21.002  0.00  0.00    +0.000 C 
ENDROOT
BRANCH   1   2
ATOM      2  C   UNL     1      34.932 -16.413 -21.593  0.00  0.00    +0.000 C 
BRANCH   2   3
ATOM      3  C   UNL     1      34.210 -15.454 -22.544  0.00  0.00    +0.000 C 
BRANCH   3   4
ATOM      4  C   UNL     1      32.848 -15.040 -21.981  0.00  0.00    +0.002 C 
BRANCH   4   5
ATOM      5  C   UNL     1      32.750 -13.544 -21.664  0.00  0.00    +0.021 C 
BRANCH   5   6
ATOM      6  C   UNL     1      31.934 -12.718 -22.657  0.00  0.00    +0.091 C 
BRANCH   6   7
ATOM      7  N   UNL     1      32.312 -11.288 -22.592  0.00  0.00    -0.305 N 
ATOM      8  C   UNL     1      33.222 -10.791 -23.451  0.00  0.00    +0.119 C 
ATOM      9  C   UNL     1      31.710 -10.543 -21.655  0.00  0.00    +0.027 C 
ATOM     10  C   UNL     1      33.566  -9.424 -23.370  0.00  0.00    +0.013 C 
ATOM     11  C   UNL     1      32.010  -9.197 -21.531  0.00  0.00    +0.024 C 
ATOM     12  C   UNL     1      32.943  -8.634 -22.393  0.00  0.00    +0.040 C 
ATOM     13  C   UNL     1      33.818 -11.615 -24.411  0.00  0.00    -0.002 C 
ATOM     14  C   UNL     1      30.710 -11.166 -20.739  0.00  0.00    +0.047 C 
ATOM     15  C   UNL     1      34.515  -8.910 -24.267  0.00  0.00    -0.001 C 
ATOM     16  C   UNL     1      34.760 -11.087 -25.293  0.00  0.00    -0.003 C 
ATOM     17  C   UNL     1      35.107  -9.739 -25.221  0.00  0.00    -0.000 C 
BRANCH  12  18
ATOM     18  N   UNL     1      33.240  -7.258 -22.253  0.00  0.00    -0.357 N 
ATOM     19  H   UNL     1      33.735  -6.939 -21.465  0.00  0.00    +0.142 HD
ATOM     20  H   UNL     1      32.950  -6.619 -22.943  0.00  0.00    +0.142 HD
ENDBRANCH  12  18
ENDBRANCH   6   7
ENDBRANCH   5   6
ENDBRANCH   4   5
ENDBRANCH   3   4
ENDBRANCH   2   3
ENDBRANCH   1   2
BRANCH   1  21
ATOM     21  C   UNL     1      34.391 -18.890 -21.249  0.00  0.00    +0.000 C 
BRANCH  21  22
ATOM     22  C   UNL     1      33.236 -19.889 -21.142  0.00  0.00    +0.002 C 
BRANCH  22  23
ATOM     23  C   UNL     1      33.229 -20.584 -19.777  0.00  0.00    +0.022 C 
BRANCH  23  24
ATOM     24  C   UNL     1      33.910 -21.949 -19.798  0.00  0.00    +0.095 C 
BRANCH  24  25
ATOM     25  N   UNL     1      34.733 -22.151 -18.584  0.00  0.00    -0.290 N 
ATOM     26  C   UNL     1      34.177 -22.666 -17.471  0.00  0.00    +0.049 C 
ATOM     27  C   UNL     1      36.023 -21.797 -18.659  0.00  0.00    +0.030 C 
ATOM     28  C   UNL     1      34.983 -22.848 -16.325  0.00  0.00    +0.009 C 
ATOM     29  C   UNL     1      36.858 -21.954 -17.566  0.00  0.00    +0.024 C 
ATOM     30  C   UNL     1      36.334 -22.483 -16.391  0.00  0.00    +0.040 C 
ATOM     31  C   UNL     1      32.824 -23.019 -17.449  0.00  0.00    +0.014 C 
ATOM     32  C   UNL     1      36.567 -21.231 -19.929  0.00  0.00    +0.047 C 
ATOM     33  C   UNL     1      34.401 -23.386 -15.167  0.00  0.00    +0.055 C 
ATOM     34  C   UNL     1      32.264 -23.552 -16.289  0.00  0.00    -0.003 C 
ATOM     35  C   UNL     1      33.049 -23.735 -15.151  0.00  0.00    -0.021 C 
BRANCH  30  36
ATOM     36  N   UNL     1      37.199 -22.636 -15.282  0.00  0.00    -0.357 N 
ATOM     37  H   UNL     1      38.169 -22.498 -15.392  0.00  0.00    +0.142 HD
ATOM     38  H   UNL     1      36.833 -22.881 -14.402  0.00  0.00    +0.142 HD
ENDBRANCH  30  36
ENDBRANCH  24  25
ENDBRANCH  23  24
ENDBRANCH  22  23
ENDBRANCH  21  22
ENDBRANCH   1  21
TORSDOF 13
ENDMDL
MODEL 5
REMARK VINA RESULT:     -10.6      2.181      4.997
REMARK  Name = 2993
REMARK  13 active torsions:
REMARK  status: ('A' for Active; 'I' for Inactive)
REMARK    1  A    between atoms: C_1  and  C_2
REMARK    2  A    between atoms: C_1  and  C_21
REMARK    3  A    between atoms: C_2  and  C_3
REMARK    4  A    between atoms: C_3  and  C_4
REMARK    5  A    between atoms: C_4  and  C_5
REMARK    6  A    between atoms: C_5  and  C_6
REMARK    7  A    between atoms: C_6  and  N_7
REMARK    8  A    between atoms: C_12  and  N_18
REMARK    9  A    between atoms: C_21  and  C_22
REMARK   10  A    between atoms: C_22  and  C_23
REMARK   11  A    between atoms: C_23  and  C_24
REMARK   12  A    between atoms: C_24  and  N_25
REMARK   13  A    between atoms: C_30  and  N_36
REMARK                            x       y       z     vdW  Elec       q    Type
REMARK                         _______ _______ _______ _____ _____    ______ ____
ROOT
ATOM      1  C   UNL     1      36.451 -21.640 -18.628  0.00  0.00    +0.000 C 
ENDROOT
BRANCH   1   2
ATOM      2  C   UNL     1      36.729 -20.575 -19.691  0.00  0.00    +0.000 C 
BRANCH   2   3
ATOM      3  C   UNL     1      35.694 -20.633 -20.818  0.00  0.00    +0.000 C 
BRANCH   3   4
ATOM      4  C   UNL     1      34.318 -20.179 -20.328  0.00  0.00    +0.002 C 
BRANCH   4   5
ATOM      5  C   UNL     1      33.798 -18.929 -21.046  0.00  0.00    +0.021 C 
BRANCH   5   6
ATOM      6  C   UNL     1      34.836 -17.836 -21.289  0.00  0.00    +0.091 C 
BRANCH   6   7
ATOM      7  N   UNL     1      34.405 -16.929 -22.377  0.00  0.00    -0.305 N 
ATOM      8  C   UNL     1      33.737 -15.797 -22.087  0.00  0.00    +0.119 C 
ATOM      9  C   UNL     1      34.712 -17.295 -23.629  0.00  0.00    +0.027 C 
ATOM     10  C   UNL     1      33.337 -14.948 -23.142  0.00  0.00    +0.013 C 
ATOM     11  C   UNL     1      34.343 -16.500 -24.702  0.00  0.00    +0.024 C 
ATOM     12  C   UNL     1      33.651 -15.320 -24.457  0.00  0.00    +0.040 C 
ATOM     13  C   UNL     1      33.444 -15.464 -20.761  0.00  0.00    -0.002 C 
ATOM     14  C   UNL     1      35.456 -18.566 -23.872  0.00  0.00    +0.047 C 
ATOM     15  C   UNL     1      32.640 -13.768 -22.835  0.00  0.00    -0.001 C 
ATOM     16  C   UNL     1      32.752 -14.288 -20.475  0.00  0.00    -0.003 C 
ATOM     17  C   UNL     1      32.351 -13.443 -21.509  0.00  0.00    -0.000 C 
BRANCH  12  18
ATOM     18  N   UNL     1      33.281 -14.519 -25.562  0.00  0.00    -0.357 N 
ATOM     19  H   UNL     1      33.665 -13.618 -25.669  0.00  0.00    +0.142 HD
ATOM     20  H   UNL     1      32.639 -14.861 -26.225  0.00  0.00    +0.142 HD
ENDBRANCH  12  18
ENDBRANCH   6   7
ENDBRANCH   5   6
ENDBRANCH   4   5
ENDBRANCH   3   4
ENDBRANCH   2   3
ENDBRANCH   1   2
BRANCH   1  21
ATOM     21  C   UNL     1      36.975 -21.263 -17.239  0.00  0.00    +0.000 C 
BRANCH  21  22
ATOM     22  C   UNL     1      37.616 -22.437 -16.494  0.00  0.00    +0.002 C 
BRANCH  22  23
ATOM     23  C   UNL     1      36.865 -22.746 -15.196  0.00  0.00    +0.022 C 
BRANCH  23  24
ATOM     24  C   UNL     1      36.138 -24.088 -15.230  0.00  0.00    +0.095 C 
BRANCH  24  25
ATOM     25  N   UNL     1      34.749 -23.952 -14.736  0.00  0.00    -0.290 N 
ATOM     26  C   UNL     1      33.771 -23.561 -15.574  0.00  0.00    +0.049 C 
ATOM     27  C   UNL     1      34.535 -24.231 -13.443  0.00  0.00    +0.030 C 
ATOM     28  C   UNL     1      32.454 -23.438 -15.078  0.00  0.00    +0.009 C 
ATOM     29  C   UNL     1      33.263 -24.128 -12.905  0.00  0.00    +0.024 C 
ATOM     30  C   UNL     1      32.216 -23.728 -13.728  0.00  0.00    +0.040 C 
ATOM     31  C   UNL     1      34.051 -23.282 -16.915  0.00  0.00    +0.014 C 
ATOM     32  C   UNL     1      35.672 -24.659 -12.575  0.00  0.00    +0.047 C 
ATOM     33  C   UNL     1      31.436 -23.031 -15.955  0.00  0.00    +0.055 C 
ATOM     34  C   UNL     1      33.027 -22.880 -17.771  0.00  0.00    -0.003 C 
ATOM     35  C   UNL     1      31.723 -22.753 -17.293  0.00  0.00    -0.021 C 
BRANCH  30  36
ATOM     36  N   UNL     1      30.923 -23.626 -13.163  0.00  0.00    -0.357 N 
ATOM     37  H   UNL     1      30.233 -23.081 -13.609  0.00  0.00    +0.142 HD
ATOM     38  H   UNL     1      30.713 -24.097 -12.325  0.00  0.00    +0.142 HD
ENDBRANCH  30  36
ENDBRANCH  24  25
ENDBRANCH  23  24
ENDBRANCH  22  23
ENDBRANCH  21  22
ENDBRANCH   1  21
TORSDOF 13
ENDMDL
MODEL 6
REMARK VINA RESULT:     -10.6      1.420     11.943
REMARK  Name = 2993
REMARK  13 active torsions:
REMARK  status: ('A' for Active; 'I' for Inactive)
REMARK    1  A    between atoms: C_1  and  C_2
REMARK    2  A    between atoms: C_1  and  C_21
REMARK    3  A    between atoms: C_2  and  C_3
REMARK    4  A    between atoms: C_3  and  C_4
REMARK    5  A    between atoms: C_4  and  C_5
REMARK    6  A    between atoms: C_5  and  C_6
REMARK    7  A    between atoms: C_6  and  N_7
REMARK    8  A    between atoms: C_12  and  N_18
REMARK    9  A    between atoms: C_21  and  C_22
REMARK   10  A    between atoms: C_22  and  C_23
REMARK   11  A    between atoms: C_23  and  C_24
REMARK   12  A    between atoms: C_24  and  N_25
REMARK   13  A    between atoms: C_30  and  N_36
REMARK                            x       y       z     vdW  Elec       q    Type
REMARK                         _______ _______ _______ _____ _____    ______ ____
ROOT
ATOM      1  C   UNL     1      34.569 -16.270 -20.630  0.00  0.00    +0.000 C 
ENDROOT
BRANCH   1   2
ATOM      2  C   UNL     1      34.382 -17.394 -21.652  0.00  0.00    +0.000 C 
BRANCH   2   3
ATOM      3  C   UNL     1      34.585 -18.768 -21.007  0.00  0.00    +0.000 C 
BRANCH   3   4
ATOM      4  C   UNL     1      33.289 -19.583 -21.025  0.00  0.00    +0.002 C 
BRANCH   4   5
ATOM      5  C   UNL     1      33.149 -20.530 -19.829  0.00  0.00    +0.021 C 
BRANCH   5   6
ATOM      6  C   UNL     1      33.926 -21.840 -19.938  0.00  0.00    +0.091 C 
BRANCH   6   7
ATOM      7  N   UNL     1      34.733 -22.080 -18.720  0.00  0.00    -0.305 N 
ATOM      8  C   UNL     1      34.153 -22.584 -17.615  0.00  0.00    +0.119 C 
ATOM      9  C   UNL     1      36.036 -21.774 -18.787  0.00  0.00    +0.027 C 
ATOM     10  C   UNL     1      34.944 -22.804 -16.466  0.00  0.00    +0.013 C 
ATOM     11  C   UNL     1      36.858 -21.969 -17.689  0.00  0.00    +0.024 C 
ATOM     12  C   UNL     1      36.309 -22.487 -16.522  0.00  0.00    +0.040 C 
ATOM     13  C   UNL     1      32.788 -22.886 -17.603  0.00  0.00    -0.002 C 
ATOM     14  C   UNL     1      36.607 -21.219 -20.049  0.00  0.00    +0.047 C 
ATOM     15  C   UNL     1      34.336 -23.329 -15.315  0.00  0.00    -0.001 C 
ATOM     16  C   UNL     1      32.201 -23.407 -16.451  0.00  0.00    -0.003 C 
ATOM     17  C   UNL     1      32.972 -23.628 -15.310  0.00  0.00    -0.000 C 
BRANCH  12  18
ATOM     18  N   UNL     1      37.161 -22.681 -15.409  0.00  0.00    -0.357 N 
ATOM     19  H   UNL     1      38.064 -22.287 -15.406  0.00  0.00    +0.142 HD
ATOM     20  H   UNL     1      36.852 -23.209 -14.639  0.00  0.00    +0.142 HD
ENDBRANCH  12  18
ENDBRANCH   6   7
ENDBRANCH   5   6
ENDBRANCH   4   5
ENDBRANCH   3   4
ENDBRANCH   2   3
ENDBRANCH   1   2
BRANCH   1  21
ATOM     21  C   UNL     1      33.372 -15.319 -20.547  0.00  0.00    +0.000 C 
BRANCH  21  22
ATOM     22  C   UNL     1      32.752 -15.006 -21.911  0.00  0.00    +0.002 C 
BRANCH  22  23
ATOM     23  C   UNL     1      33.264 -13.670 -22.459  0.00  0.00    +0.022 C 
BRANCH  23  24
ATOM     24  C   UNL     1      32.154 -12.796 -23.038  0.00  0.00    +0.095 C 
BRANCH  24  25
ATOM     25  N   UNL     1      32.452 -11.360 -22.839  0.00  0.00    -0.290 N 
ATOM     26  C   UNL     1      33.354 -10.743 -23.624  0.00  0.00    +0.049 C 
ATOM     27  C   UNL     1      31.789 -10.733 -21.857  0.00  0.00    +0.030 C 
ATOM     28  C   UNL     1      33.621  -9.372 -23.414  0.00  0.00    +0.009 C 
ATOM     29  C   UNL     1      32.011  -9.390 -21.607  0.00  0.00    +0.024 C 
ATOM     30  C   UNL     1      32.934  -8.705 -22.391  0.00  0.00    +0.040 C 
ATOM     31  C   UNL     1      34.017 -11.447 -24.635  0.00  0.00    +0.014 C 
ATOM     32  C   UNL     1      30.802 -11.485 -21.026  0.00  0.00    +0.047 C 
ATOM     33  C   UNL     1      34.562  -8.732 -24.236  0.00  0.00    +0.055 C 
ATOM     34  C   UNL     1      34.947 -10.794 -25.441  0.00  0.00    -0.003 C 
ATOM     35  C   UNL     1      35.220  -9.441 -25.243  0.00  0.00    -0.021 C 
BRANCH  30  36
ATOM     36  N   UNL     1      33.151  -7.333 -22.124  0.00  0.00    -0.357 N 
ATOM     37  H   UNL     1      33.657  -6.781 -22.764  0.00  0.00    +0.142 HD
ATOM     38  H   UNL     1      32.799  -6.930 -21.297  0.00  0.00    +0.142 HD
ENDBRANCH  30  36
ENDBRANCH  24  25
ENDBRANCH  23  24
ENDBRANCH  22  23
ENDBRANCH  21  22
ENDBRANCH   1  21
TORSDOF 13
ENDMDL
MODEL 7
REMARK VINA RESULT:     -10.6      2.196     10.920
REMARK  Name = 2993
REMARK  13 active torsions:
REMARK  status: ('A' for Active; 'I' for Inactive)
REMARK    1  A    between atoms: C_1  and  C_2
REMARK    2  A    between atoms: C_1  and  C_21
REMARK    3  A    between atoms: C_2  and  C_3
REMARK    4  A    between atoms: C_3  and  C_4
REMARK    5  A    between atoms: C_4  and  C_5
REMARK    6  A    between atoms: C_5  and  C_6
REMARK    7  A    between atoms: C_6  and  N_7
REMARK    8  A    between atoms: C_12  and  N_18
REMARK    9  A    between atoms: C_21  and  C_22
REMARK   10  A    between atoms: C_22  and  C_23
REMARK   11  A    between atoms: C_23  and  C_24
REMARK   12  A    between atoms: C_24  and  N_25
REMARK   13  A    between atoms: C_30  and  N_36
REMARK                            x       y       z     vdW  Elec       q    Type
REMARK                         _______ _______ _______ _____ _____    ______ ____
ROOT
ATOM      1  C   UNL     1      36.773 -21.225 -19.869  0.00  0.00    +0.000 C 
ENDROOT
BRANCH   1   2
ATOM      2  C   UNL     1      36.231 -21.667 -18.508  0.00  0.00    +0.000 C 
BRANCH   2   3
ATOM      3  C   UNL     1      37.141 -21.198 -17.370  0.00  0.00    +0.000 C 
BRANCH   3   4
ATOM      4  C   UNL     1      37.610 -22.377 -16.515  0.00  0.00    +0.002 C 
BRANCH   4   5
ATOM      5  C   UNL     1      36.724 -22.633 -15.292  0.00  0.00    +0.021 C 
BRANCH   5   6
ATOM      6  C   UNL     1      36.067 -24.011 -15.237  0.00  0.00    +0.091 C 
BRANCH   6   7
ATOM      7  N   UNL     1      34.680 -23.915 -14.730  0.00  0.00    -0.305 N 
ATOM      8  C   UNL     1      33.683 -23.541 -15.554  0.00  0.00    +0.119 C 
ATOM      9  C   UNL     1      34.484 -24.217 -13.438  0.00  0.00    +0.027 C 
ATOM     10  C   UNL     1      32.368 -23.459 -15.046  0.00  0.00    +0.013 C 
ATOM     11  C   UNL     1      33.215 -24.152 -12.888  0.00  0.00    +0.024 C 
ATOM     12  C   UNL     1      32.151 -23.770 -13.697  0.00  0.00    +0.040 C 
ATOM     13  C   UNL     1      33.945 -23.239 -16.894  0.00  0.00    -0.002 C 
ATOM     14  C   UNL     1      35.640 -24.625 -12.586  0.00  0.00    +0.047 C 
ATOM     15  C   UNL     1      31.333 -23.067 -15.909  0.00  0.00    -0.001 C 
ATOM     16  C   UNL     1      32.904 -22.853 -17.736  0.00  0.00    -0.003 C 
ATOM     17  C   UNL     1      31.601 -22.767 -17.245  0.00  0.00    -0.000 C 
BRANCH  12  18
ATOM     18  N   UNL     1      30.860 -23.708 -13.120  0.00  0.00    -0.357 N 
ATOM     19  H   UNL     1      30.090 -24.097 -13.595  0.00  0.00    +0.142 HD
ATOM     20  H   UNL     1      30.732 -23.276 -12.245  0.00  0.00    +0.142 HD
ENDBRANCH  12  18
ENDBRANCH   6   7
ENDBRANCH   5   6
ENDBRANCH   4   5
ENDBRANCH   3   4
ENDBRANCH   2   3
ENDBRANCH   1   2
BRANCH   1  21
ATOM     21  C   UNL     1      36.074 -19.981 -20.427  0.00  0.00    +0.000 C 
BRANCH  21  22
ATOM     22  C   UNL     1      34.561 -20.153 -20.577  0.00  0.00    +0.002 C 
BRANCH  22  23
ATOM     23  C   UNL     1      33.897 -18.848 -21.029  0.00  0.00    +0.022 C 
BRANCH  23  24
ATOM     24  C   UNL     1      34.901 -17.731 -21.304  0.00  0.00    +0.095 C 
BRANCH  24  25
ATOM     25  N   UNL     1      34.448 -16.875 -22.423  0.00  0.00    -0.290 N 
ATOM     26  C   UNL     1      33.764 -15.743 -22.172  0.00  0.00    +0.049 C 
ATOM     27  C   UNL     1      34.750 -17.285 -23.662  0.00  0.00    +0.030 C 
ATOM     28  C   UNL     1      33.342 -14.943 -23.257  0.00  0.00    +0.009 C 
ATOM     29  C   UNL     1      34.362 -16.540 -24.762  0.00  0.00    +0.024 C 
ATOM     30  C   UNL     1      33.653 -15.361 -24.558  0.00  0.00    +0.040 C 
ATOM     31  C   UNL     1      33.476 -15.362 -20.858  0.00  0.00    +0.014 C 
ATOM     32  C   UNL     1      35.512 -18.554 -23.862  0.00  0.00    +0.047 C 
ATOM     33  C   UNL     1      32.630 -13.763 -22.991  0.00  0.00    +0.055 C 
ATOM     34  C   UNL     1      32.767 -14.187 -20.613  0.00  0.00    -0.003 C 
ATOM     35  C   UNL     1      32.345 -13.389 -21.676  0.00  0.00    -0.021 C 
BRANCH  30  36
ATOM     36  N   UNL     1      33.262 -14.610 -25.692  0.00  0.00    -0.357 N 
ATOM     37  H   UNL     1      32.690 -13.815 -25.582  0.00  0.00    +0.142 HD
ATOM     38  H   UNL     1      33.559 -14.883 -26.589  0.00  0.00    +0.142 HD
ENDBRANCH  30  36
ENDBRANCH  24  25
ENDBRANCH  23  24
ENDBRANCH  22  23
ENDBRANCH  21  22
ENDBRANCH   1  21
TORSDOF 13
ENDMDL
MODEL 8
REMARK VINA RESULT:     -10.5      1.430      2.813
REMARK  Name = 2993
REMARK  13 active torsions:
REMARK  status: ('A' for Active; 'I' for Inactive)
REMARK    1  A    between atoms: C_1  and  C_2
REMARK    2  A    between atoms: C_1  and  C_21
REMARK    3  A    between atoms: C_2  and  C_3
REMARK    4  A    between atoms: C_3  and  C_4
REMARK    5  A    between atoms: C_4  and  C_5
REMARK    6  A    between atoms: C_5  and  C_6
REMARK    7  A    between atoms: C_6  and  N_7
REMARK    8  A    between atoms: C_12  and  N_18
REMARK    9  A    between atoms: C_21  and  C_22
REMARK   10  A    between atoms: C_22  and  C_23
REMARK   11  A    between atoms: C_23  and  C_24
REMARK   12  A    between atoms: C_24  and  N_25
REMARK   13  A    between atoms: C_30  and  N_36
REMARK                            x       y       z     vdW  Elec       q    Type
REMARK                         _______ _______ _______ _____ _____    ______ ____
ROOT
ATOM      1  C   UNL     1      33.965 -17.669 -21.359  0.00  0.00    +0.000 C 
ENDROOT
BRANCH   1   2
ATOM      2  C   UNL     1      34.962 -16.589 -20.931  0.00  0.00    +0.000 C 
BRANCH   2   3
ATOM      3  C   UNL     1      34.268 -15.238 -20.743  0.00  0.00    +0.000 C 
BRANCH   3   4
ATOM      4  C   UNL     1      33.309 -14.942 -21.899  0.00  0.00    +0.002 C 
BRANCH   4   5
ATOM      5  C   UNL     1      33.732 -13.740 -22.749  0.00  0.00    +0.021 C 
BRANCH   5   6
ATOM      6  C   UNL     1      32.586 -12.926 -23.346  0.00  0.00    +0.091 C 
BRANCH   6   7
ATOM      7  N   UNL     1      32.761 -11.483 -23.068  0.00  0.00    -0.305 N 
ATOM      8  C   UNL     1      32.278 -10.952 -21.929  0.00  0.00    +0.119 C 
ATOM      9  C   UNL     1      33.410 -10.761 -23.992  0.00  0.00    +0.027 C 
ATOM     10  C   UNL     1      32.458  -9.572 -21.686  0.00  0.00    +0.013 C 
ATOM     11  C   UNL     1      33.614  -9.404 -23.805  0.00  0.00    +0.024 C 
ATOM     12  C   UNL     1      33.135  -8.806 -22.645  0.00  0.00    +0.040 C 
ATOM     13  C   UNL     1      31.609 -11.753 -20.999  0.00  0.00    -0.002 C 
ATOM     14  C   UNL     1      33.918 -11.421 -25.230  0.00  0.00    +0.047 C 
ATOM     15  C   UNL     1      31.952  -9.022 -20.497  0.00  0.00    -0.001 C 
ATOM     16  C   UNL     1      31.113 -11.189 -19.824  0.00  0.00    -0.003 C 
ATOM     17  C   UNL     1      31.284  -9.828 -19.574  0.00  0.00    -0.000 C 
BRANCH  12  18
ATOM     18  N   UNL     1      33.350  -7.419 -22.469  0.00  0.00    -0.357 N 
ATOM     19  H   UNL     1      32.740  -6.894 -21.901  0.00  0.00    +0.142 HD
ATOM     20  H   UNL     1      34.109  -6.978 -22.914  0.00  0.00    +0.142 HD
ENDBRANCH  12  18
ENDBRANCH   6   7
ENDBRANCH   5   6
ENDBRANCH   4   5
ENDBRANCH   3   4
ENDBRANCH   2   3
ENDBRANCH   1   2
BRANCH   1  21
ATOM     21  C   UNL     1      34.415 -19.088 -21.002  0.00  0.00    +0.000 C 
BRANCH  21  22
ATOM     22  C   UNL     1      33.263 -20.095 -20.955  0.00  0.00    +0.002 C 
BRANCH  22  23
ATOM     23  C   UNL     1      33.210 -20.813 -19.603  0.00  0.00    +0.022 C 
BRANCH  23  24
ATOM     24  C   UNL     1      33.980 -22.131 -19.595  0.00  0.00    +0.095 C 
BRANCH  24  25
ATOM     25  N   UNL     1      34.792 -22.264 -18.364  0.00  0.00    -0.290 N 
ATOM     26  C   UNL     1      34.235 -22.746 -17.238  0.00  0.00    +0.049 C 
ATOM     27  C   UNL     1      36.074 -21.884 -18.440  0.00  0.00    +0.030 C 
ATOM     28  C   UNL     1      35.030 -22.862 -16.076  0.00  0.00    +0.009 C 
ATOM     29  C   UNL     1      36.900 -21.977 -17.332  0.00  0.00    +0.024 C 
ATOM     30  C   UNL     1      36.374 -22.469 -16.142  0.00  0.00    +0.040 C 
ATOM     31  C   UNL     1      32.889 -23.128 -17.216  0.00  0.00    +0.014 C 
ATOM     32  C   UNL     1      36.621 -21.358 -19.726  0.00  0.00    +0.047 C 
ATOM     33  C   UNL     1      34.446 -23.366 -14.903  0.00  0.00    +0.055 C 
ATOM     34  C   UNL     1      32.327 -23.626 -16.042  0.00  0.00    -0.003 C 
ATOM     35  C   UNL     1      33.102 -23.745 -14.889  0.00  0.00    -0.021 C 
BRANCH  30  36
ATOM     36  N   UNL     1      37.228 -22.558 -15.019  0.00  0.00    -0.357 N 
ATOM     37  H   UNL     1      38.174 -22.293 -15.097  0.00  0.00    +0.142 HD
ATOM     38  H   UNL     1      36.879 -22.884 -14.158  0.00  0.00    +0.142 HD
ENDBRANCH  30  36
ENDBRANCH  24  25
ENDBRANCH  23  24
ENDBRANCH  22  23
ENDBRANCH  21  22
ENDBRANCH   1  21
TORSDOF 13
ENDMDL
MODEL 9
REMARK VINA RESULT:     -10.5      4.767     12.551
REMARK  Name = 2993
REMARK  13 active torsions:
REMARK  status: ('A' for Active; 'I' for Inactive)
REMARK    1  A    between atoms: C_1  and  C_2
REMARK    2  A    between atoms: C_1  and  C_21
REMARK    3  A    between atoms: C_2  and  C_3
REMARK    4  A    between atoms: C_3  and  C_4
REMARK    5  A    between atoms: C_4  and  C_5
REMARK    6  A    between atoms: C_5  and  C_6
REMARK    7  A    between atoms: C_6  and  N_7
REMARK    8  A    between atoms: C_12  and  N_18
REMARK    9  A    between atoms: C_21  and  C_22
REMARK   10  A    between atoms: C_22  and  C_23
REMARK   11  A    between atoms: C_23  and  C_24
REMARK   12  A    between atoms: C_24  and  N_25
REMARK   13  A    between atoms: C_30  and  N_36
REMARK                            x       y       z     vdW  Elec       q    Type
REMARK                         _______ _______ _______ _____ _____    ______ ____
ROOT
ATOM      1  C   UNL     1      30.795 -11.149 -21.843  0.00  0.00    +0.000 C 
ENDROOT
BRANCH   1   2
ATOM      2  C   UNL     1      31.240 -11.007 -20.386  0.00  0.00    +0.000 C 
BRANCH   2   3
ATOM      3  C   UNL     1      32.019 -12.241 -19.922  0.00  0.00    +0.000 C 
BRANCH   3   4
ATOM      4  C   UNL     1      32.087 -13.299 -21.025  0.00  0.00    +0.002 C 
BRANCH   4   5
ATOM      5  C   UNL     1      32.973 -14.497 -20.667  0.00  0.00    +0.021 C 
BRANCH   5   6
ATOM      6  C   UNL     1      34.338 -14.528 -21.352  0.00  0.00    +0.091 C 
BRANCH   6   7
ATOM      7  N   UNL     1      34.349 -15.501 -22.467  0.00  0.00    -0.305 N 
ATOM      8  C   UNL     1      33.961 -15.122 -23.698  0.00  0.00    +0.119 C 
ATOM      9  C   UNL     1      34.758 -16.745 -22.181  0.00  0.00    +0.027 C 
ATOM     10  C   UNL     1      33.980 -16.069 -24.745  0.00  0.00    +0.013 C 
ATOM     11  C   UNL     1      34.797 -17.714 -23.170  0.00  0.00    +0.024 C 
ATOM     12  C   UNL     1      34.406 -17.374 -24.460  0.00  0.00    +0.040 C 
ATOM     13  C   UNL     1      33.544 -13.809 -23.939  0.00  0.00    -0.002 C 
ATOM     14  C   UNL     1      35.175 -17.091 -20.790  0.00  0.00    +0.047 C 
ATOM     15  C   UNL     1      33.574 -15.670 -26.028  0.00  0.00    -0.001 C 
ATOM     16  C   UNL     1      33.143 -13.430 -25.220  0.00  0.00    -0.003 C 
ATOM     17  C   UNL     1      33.158 -14.358 -26.261  0.00  0.00    -0.000 C 
BRANCH  12  18
ATOM     18  N   UNL     1      34.450 -18.375 -25.458  0.00  0.00    -0.357 N 
ATOM     19  H   UNL     1      35.317 -18.674 -25.817  0.00  0.00    +0.142 HD
ATOM     20  H   UNL     1      33.615 -18.772 -25.796  0.00  0.00    +0.142 HD
ENDBRANCH  12  18
ENDBRANCH   6   7
ENDBRANCH   5   6
ENDBRANCH   4   5
ENDBRANCH   3   4
ENDBRANCH   2   3
ENDBRANCH   1   2
BRANCH   1  21
ATOM     21  C   UNL     1      31.390 -10.083 -22.767  0.00  0.00    +0.000 C 
BRANCH  21  22
ATOM     22  C   UNL     1      32.902 -10.223 -22.958  0.00  0.00    +0.002 C 
BRANCH  22  23
ATOM     23  C   UNL     1      33.467  -9.061 -23.781  0.00  0.00    +0.022 C 
BRANCH  23  24
ATOM     24  C   UNL     1      34.005  -7.922 -22.918  0.00  0.00    +0.095 C 
BRANCH  24  25
ATOM     25  N   UNL     1      33.003  -6.841 -22.782  0.00  0.00    -0.290 N 
ATOM     26  C   UNL     1      32.754  -6.019 -23.818  0.00  0.00    +0.049 C 
ATOM     27  C   UNL     1      32.381  -6.735 -21.600  0.00  0.00    +0.030 C 
ATOM     28  C   UNL     1      31.794  -4.994 -23.664  0.00  0.00    +0.009 C 
ATOM     29  C   UNL     1      31.431  -5.749 -21.393  0.00  0.00    +0.024 C 
ATOM     30  C   UNL     1      31.136  -4.873 -22.432  0.00  0.00    +0.040 C 
ATOM     31  C   UNL     1      33.432  -6.176 -25.031  0.00  0.00    +0.014 C 
ATOM     32  C   UNL     1      32.712  -7.685 -20.497  0.00  0.00    +0.047 C 
ATOM     33  C   UNL     1      31.536  -4.139 -24.746  0.00  0.00    +0.055 C 
ATOM     34  C   UNL     1      33.163  -5.317 -26.095  0.00  0.00    -0.003 C 
ATOM     35  C   UNL     1      32.218  -4.301 -25.954  0.00  0.00    -0.021 C 
BRANCH  30  36
ATOM     36  N   UNL     1      30.164  -3.870 -22.206  0.00  0.00    -0.357 N 
ATOM     37  H   UNL     1      30.332  -2.946 -22.503  0.00  0.00    +0.142 HD
ATOM     38  H   UNL     1      29.320  -4.096 -21.751  0.00  0.00    +0.142 HD
ENDBRANCH  30  36
ENDBRANCH  24  25
ENDBRANCH  23  24
ENDBRANCH  22  23
ENDBRANCH  21  22
ENDBRANCH   1  21
TORSDOF 13
ENDMDL
