MODEL 1
REMARK VINA RESULT:      -7.1      0.000      0.000
REMARK  Name = 17753762
REMARK  10 active torsions:
REMARK  status: ('A' for Active; 'I' for Inactive)
REMARK    1  A    between atoms: C_3  and  S_7
REMARK    2  A    between atoms: C_4  and  C_18
REMARK    3  A    between atoms: S_7  and  C_8
REMARK    4  A    between atoms: C_8  and  C_9
REMARK    5  A    between atoms: C_9  and  N_10
REMARK    6  A    between atoms: C_9  and  C_15
REMARK    7  A    between atoms: C_15  and  O_16
REMARK    8  A    between atoms: C_18  and  N_19
REMARK    9  A    between atoms: C_18  and  C_24
REMARK   10  A    between atoms: C_24  and  O_25
REMARK                            x       y       z     vdW  Elec       q    Type
REMARK                         _______ _______ _______ _____ _____    ______ ____
ROOT
ATOM      1  O   UNK     1      37.826 -23.977 -15.341  0.00  0.00    -0.410 OA
ATOM      2  N   UNK     1      36.553 -23.455 -15.876  0.00  0.00    -0.132 NA
ATOM      3  C   UNK     1      35.545 -24.505 -15.620  0.00  0.00    +0.163 C 
ATOM      4  C   UNK     1      37.555 -25.256 -14.882  0.00  0.00    +0.131 C 
ATOM      5  C   UNK     1      36.286 -25.625 -15.003  0.00  0.00    +0.037 C 
ATOM      6  H   UNK     1      36.635 -23.280 -16.878  0.00  0.00    +0.169 HD
ENDROOT
BRANCH   3   7
ATOM      7  S   UNK     1      34.241 -23.920 -14.503  0.00  0.00    -0.119 S 
BRANCH   7   8
ATOM      8  C   UNK     1      34.846 -24.673 -12.975  0.00  0.00    +0.048 C 
BRANCH   8   9
ATOM      9  C   UNK     1      35.430 -23.633 -12.018  0.00  0.00    +0.047 C 
BRANCH   9  10
ATOM     10  N   UNK     1      36.511 -22.896 -12.678  0.00  0.00    +0.389 N 
ATOM     11  H   UNK     1      36.723 -22.053 -12.144  0.00  0.00    -0.088 HD
ATOM     12  H   UNK     1      36.219 -22.637 -13.621  0.00  0.00    -0.088 HD
ATOM     13  H   UNK     1      37.342 -23.485 -12.728  0.00  0.00    -0.088 HD
ENDBRANCH   9  10
BRANCH   9  15
ATOM     14  O   UNK     1      35.327 -24.602  -9.804  0.00  0.00    -0.253 OA
ATOM     15  C   UNK     1      36.009 -24.265 -10.765  0.00  0.00    +0.294 C 
BRANCH  15  16
ATOM     16  O   UNK     1      37.360 -24.393 -10.791  0.00  0.00    -0.482 OA
ATOM     17  H   UNK     1      37.903 -23.629 -10.806  0.00  0.00    +0.295 HD
ENDBRANCH  15  16
ENDBRANCH   9  15
ENDBRANCH   8   9
ENDBRANCH   7   8
ENDBRANCH   3   7
BRANCH   4  18
ATOM     18  C   UNK     1      38.685 -26.036 -14.322  0.00  0.00    +0.096 C 
BRANCH  18  19
ATOM     19  N   UNK     1      38.743 -25.966 -12.863  0.00  0.00    +0.393 N 
ATOM     20  H   UNK     1      38.833 -24.993 -12.573  0.00  0.00    -0.088 HD
ATOM     21  H   UNK     1      39.547 -26.496 -12.528  0.00  0.00    -0.088 HD
ATOM     22  H   UNK     1      37.888 -26.360 -12.469  0.00  0.00    -0.088 HD
ENDBRANCH  18  19
BRANCH  18  24
ATOM     23  O   UNK     1      40.793 -24.813 -14.185  0.00  0.00    -0.252 OA
ATOM     24  C   UNK     1      39.999 -25.476 -14.841  0.00  0.00    +0.300 C 
BRANCH  24  25
ATOM     25  O   UNK     1      40.208 -25.784 -16.151  0.00  0.00    -0.481 OA
ATOM     26  H   UNK     1      40.939 -25.417 -16.607  0.00  0.00    +0.295 HD
ENDBRANCH  24  25
ENDBRANCH  18  24
ENDBRANCH   4  18
TORSDOF 10
ENDMDL
MODEL 2
REMARK VINA RESULT:      -7.0      2.385      3.412
REMARK  Name = 17753762
REMARK  10 active torsions:
REMARK  status: ('A' for Active; 'I' for Inactive)
REMARK    1  A    between atoms: C_3  and  S_7
REMARK    2  A    between atoms: C_4  and  C_18
REMARK    3  A    between atoms: S_7  and  C_8
REMARK    4  A    between atoms: C_8  and  C_9
REMARK    5  A    between atoms: C_9  and  N_10
REMARK    6  A    between atoms: C_9  and  C_15
REMARK    7  A    between atoms: C_15  and  O_16
REMARK    8  A    between atoms: C_18  and  N_19
REMARK    9  A    between atoms: C_18  and  C_24
REMARK   10  A    between atoms: C_24  and  O_25
REMARK                            x       y       z     vdW  Elec       q    Type
REMARK                         _______ _______ _______ _____ _____    ______ ____
ROOT
ATOM      1  O   UNK     1      37.786 -26.301 -13.996  0.00  0.00    -0.410 OA
ATOM      2  N   UNK     1      36.840 -26.594 -12.902  0.00  0.00    -0.132 NA
ATOM      3  C   UNK     1      37.091 -25.574 -11.864  0.00  0.00    +0.163 C 
ATOM      4  C   UNK     1      38.556 -25.234 -13.562  0.00  0.00    +0.131 C 
ATOM      5  C   UNK     1      38.220 -24.765 -12.367  0.00  0.00    +0.037 C 
ATOM      6  H   UNK     1      37.007 -27.528 -12.528  0.00  0.00    +0.169 HD
ENDROOT
BRANCH   3   7
ATOM      7  S   UNK     1      35.636 -24.525 -11.593  0.00  0.00    -0.119 S 
BRANCH   7   8
ATOM      8  C   UNK     1      35.832 -23.429 -13.017  0.00  0.00    +0.048 C 
BRANCH   8   9
ATOM      9  C   UNK     1      34.871 -23.789 -14.151  0.00  0.00    +0.047 C 
BRANCH   9  10
ATOM     10  N   UNK     1      34.036 -24.926 -13.758  0.00  0.00    +0.389 N 
ATOM     11  H   UNK     1      33.414 -24.645 -12.999  0.00  0.00    -0.088 HD
ATOM     12  H   UNK     1      34.631 -25.692 -13.442  0.00  0.00    -0.088 HD
ATOM     13  H   UNK     1      33.481 -25.232 -14.557  0.00  0.00    -0.088 HD
ENDBRANCH   9  10
BRANCH   9  15
ATOM     14  O   UNK     1      36.047 -23.362 -16.221  0.00  0.00    -0.253 OA
ATOM     15  C   UNK     1      35.602 -24.178 -15.422  0.00  0.00    +0.294 C 
BRANCH  15  16
ATOM     16  O   UNK     1      35.689 -25.519 -15.614  0.00  0.00    -0.482 OA
ATOM     17  H   UNK     1      34.978 -26.075 -15.364  0.00  0.00    +0.295 HD
ENDBRANCH  15  16
ENDBRANCH   9  15
ENDBRANCH   8   9
ENDBRANCH   7   8
ENDBRANCH   3   7
BRANCH   4  18
ATOM     18  C   UNK     1      39.631 -24.754 -14.464  0.00  0.00    +0.096 C 
BRANCH  18  19
ATOM     19  N   UNK     1      39.106 -24.183 -15.704  0.00  0.00    +0.393 N 
ATOM     20  H   UNK     1      39.272 -24.832 -16.473  0.00  0.00    -0.088 HD
ATOM     21  H   UNK     1      39.576 -23.299 -15.898  0.00  0.00    -0.088 HD
ATOM     22  H   UNK     1      38.103 -24.022 -15.606  0.00  0.00    -0.088 HD
ENDBRANCH  18  19
BRANCH  18  24
ATOM     23  O   UNK     1      41.139 -26.636 -14.081  0.00  0.00    -0.252 OA
ATOM     24  C   UNK     1      40.523 -25.919 -14.860  0.00  0.00    +0.300 C 
BRANCH  24  25
ATOM     25  O   UNK     1      40.581 -26.086 -16.210  0.00  0.00    -0.481 OA
ATOM     26  H   UNK     1      39.791 -26.147 -16.708  0.00  0.00    +0.295 HD
ENDBRANCH  24  25
ENDBRANCH  18  24
ENDBRANCH   4  18
TORSDOF 10
ENDMDL
MODEL 3
REMARK VINA RESULT:      -6.8      3.176      6.238
REMARK  Name = 17753762
REMARK  10 active torsions:
REMARK  status: ('A' for Active; 'I' for Inactive)
REMARK    1  A    between atoms: C_3  and  S_7
REMARK    2  A    between atoms: C_4  and  C_18
REMARK    3  A    between atoms: S_7  and  C_8
REMARK    4  A    between atoms: C_8  and  C_9
REMARK    5  A    between atoms: C_9  and  N_10
REMARK    6  A    between atoms: C_9  and  C_15
REMARK    7  A    between atoms: C_15  and  O_16
REMARK    8  A    between atoms: C_18  and  N_19
REMARK    9  A    between atoms: C_18  and  C_24
REMARK   10  A    between atoms: C_24  and  O_25
REMARK                            x       y       z     vdW  Elec       q    Type
REMARK                         _______ _______ _______ _____ _____    ______ ____
ROOT
ATOM      1  O   UNK     1      33.496 -24.501 -12.680  0.00  0.00    -0.410 OA
ATOM      2  N   UNK     1      34.895 -24.889 -12.415  0.00  0.00    -0.132 NA
ATOM      3  C   UNK     1      35.602 -24.765 -13.707  0.00  0.00    +0.163 C 
ATOM      4  C   UNK     1      33.419 -24.245 -14.040  0.00  0.00    +0.131 C 
ATOM      5  C   UNK     1      34.570 -24.370 -14.688  0.00  0.00    +0.037 C 
ATOM      6  H   UNK     1      34.939 -25.851 -12.079  0.00  0.00    +0.169 HD
ENDROOT
BRANCH   3   7
ATOM      7  S   UNK     1      36.912 -23.512 -13.633  0.00  0.00    -0.119 S 
BRANCH   7   8
ATOM      8  C   UNK     1      38.313 -24.614 -13.330  0.00  0.00    +0.048 C 
BRANCH   8   9
ATOM      9  C   UNK     1      38.669 -25.439 -14.567  0.00  0.00    +0.047 C 
BRANCH   9  10
ATOM     10  N   UNK     1      38.371 -26.853 -14.329  0.00  0.00    +0.389 N 
ATOM     11  H   UNK     1      39.196 -27.314 -13.944  0.00  0.00    -0.088 HD
ATOM     12  H   UNK     1      38.114 -27.300 -15.210  0.00  0.00    -0.088 HD
ATOM     13  H   UNK     1      37.598 -26.931 -13.669  0.00  0.00    -0.088 HD
ENDBRANCH   9  10
BRANCH   9  15
ATOM     14  O   UNK     1      40.955 -24.714 -14.251  0.00  0.00    -0.253 OA
ATOM     15  C   UNK     1      40.141 -25.337 -14.923  0.00  0.00    +0.294 C 
BRANCH  15  16
ATOM     16  O   UNK     1      40.470 -25.972 -16.076  0.00  0.00    -0.482 OA
ATOM     17  H   UNK     1      39.827 -26.476 -16.534  0.00  0.00    +0.295 HD
ENDBRANCH  15  16
ENDBRANCH   9  15
ENDBRANCH   8   9
ENDBRANCH   7   8
ENDBRANCH   3   7
BRANCH   4  18
ATOM     18  C   UNK     1      32.095 -23.869 -14.592  0.00  0.00    +0.096 C 
BRANCH  18  19
ATOM     19  N   UNK     1      31.663 -22.544 -14.151  0.00  0.00    +0.393 N 
ATOM     20  H   UNK     1      30.649 -22.537 -14.040  0.00  0.00    -0.088 HD
ATOM     21  H   UNK     1      31.932 -21.849 -14.848  0.00  0.00    -0.088 HD
ATOM     22  H   UNK     1      32.104 -22.321 -13.259  0.00  0.00    -0.088 HD
ENDBRANCH  18  19
BRANCH  18  24
ATOM     23  O   UNK     1      30.519 -25.723 -14.800  0.00  0.00    -0.252 OA
ATOM     24  C   UNK     1      31.042 -24.856 -14.111  0.00  0.00    +0.300 C 
BRANCH  24  25
ATOM     25  O   UNK     1      30.721 -24.668 -12.802  0.00  0.00    -0.481 OA
ATOM     26  H   UNK     1      29.857 -24.864 -12.499  0.00  0.00    +0.295 HD
ENDBRANCH  24  25
ENDBRANCH  18  24
ENDBRANCH   4  18
TORSDOF 10
ENDMDL
MODEL 4
REMARK VINA RESULT:      -6.7      3.550      5.440
REMARK  Name = 17753762
REMARK  10 active torsions:
REMARK  status: ('A' for Active; 'I' for Inactive)
REMARK    1  A    between atoms: C_3  and  S_7
REMARK    2  A    between atoms: C_4  and  C_18
REMARK    3  A    between atoms: S_7  and  C_8
REMARK    4  A    between atoms: C_8  and  C_9
REMARK    5  A    between atoms: C_9  and  N_10
REMARK    6  A    between atoms: C_9  and  C_15
REMARK    7  A    between atoms: C_15  and  O_16
REMARK    8  A    between atoms: C_18  and  N_19
REMARK    9  A    between atoms: C_18  and  C_24
REMARK   10  A    between atoms: C_24  and  O_25
REMARK                            x       y       z     vdW  Elec       q    Type
REMARK                         _______ _______ _______ _____ _____    ______ ____
ROOT
ATOM      1  O   UNK     1      36.395 -25.288 -15.494  0.00  0.00    -0.410 OA
ATOM      2  N   UNK     1      35.619 -24.083 -15.846  0.00  0.00    -0.132 NA
ATOM      3  C   UNK     1      36.504 -22.934 -15.563  0.00  0.00    +0.163 C 
ATOM      4  C   UNK     1      37.601 -24.834 -14.986  0.00  0.00    +0.131 C 
ATOM      5  C   UNK     1      37.739 -23.514 -14.995  0.00  0.00    +0.037 C 
ATOM      6  H   UNK     1      34.774 -24.027 -15.278  0.00  0.00    +0.169 HD
ENDROOT
BRANCH   3   7
ATOM      7  S   UNK     1      36.882 -21.996 -17.069  0.00  0.00    -0.119 S 
BRANCH   7   8
ATOM      8  C   UNK     1      35.331 -22.279 -17.952  0.00  0.00    +0.048 C 
BRANCH   8   9
ATOM      9  C   UNK     1      35.373 -21.716 -19.374  0.00  0.00    +0.047 C 
BRANCH   9  10
ATOM     10  N   UNK     1      36.314 -20.596 -19.442  0.00  0.00    +0.389 N 
ATOM     11  H   UNK     1      36.296 -20.083 -18.560  0.00  0.00    -0.088 HD
ATOM     12  H   UNK     1      36.046 -19.972 -20.203  0.00  0.00    -0.088 HD
ATOM     13  H   UNK     1      37.255 -20.953 -19.608  0.00  0.00    -0.088 HD
ENDBRANCH   9  10
BRANCH   9  15
ATOM     14  O   UNK     1      33.848 -20.087 -20.308  0.00  0.00    -0.253 OA
ATOM     15  C   UNK     1      34.019 -21.202 -19.829  0.00  0.00    +0.294 C 
BRANCH  15  16
ATOM     16  O   UNK     1      33.004 -22.080 -19.625  0.00  0.00    -0.482 OA
ATOM     17  H   UNK     1      32.226 -22.025 -20.143  0.00  0.00    +0.295 HD
ENDBRANCH  15  16
ENDBRANCH   9  15
ENDBRANCH   8   9
ENDBRANCH   7   8
ENDBRANCH   3   7
BRANCH   4  18
ATOM     18  C   UNK     1      38.570 -25.851 -14.510  0.00  0.00    +0.096 C 
BRANCH  18  19
ATOM     19  N   UNK     1      38.555 -25.997 -13.055  0.00  0.00    +0.393 N 
ATOM     20  H   UNK     1      38.554 -26.988 -12.814  0.00  0.00    -0.088 HD
ATOM     21  H   UNK     1      37.717 -25.555 -12.677  0.00  0.00    -0.088 HD
ATOM     22  H   UNK     1      39.384 -25.552 -12.660  0.00  0.00    -0.088 HD
ENDBRANCH  18  19
BRANCH  18  24
ATOM     23  O   UNK     1      40.740 -24.778 -14.191  0.00  0.00    -0.252 OA
ATOM     24  C   UNK     1      39.980 -25.432 -14.895  0.00  0.00    +0.300 C 
BRANCH  24  25
ATOM     25  O   UNK     1      40.322 -25.860 -16.141  0.00  0.00    -0.481 OA
ATOM     26  H   UNK     1      41.163 -25.651 -16.493  0.00  0.00    +0.295 HD
ENDBRANCH  24  25
ENDBRANCH  18  24
ENDBRANCH   4  18
TORSDOF 10
ENDMDL
MODEL 5
REMARK VINA RESULT:      -6.5      3.908      5.636
REMARK  Name = 17753762
REMARK  10 active torsions:
REMARK  status: ('A' for Active; 'I' for Inactive)
REMARK    1  A    between atoms: C_3  and  S_7
REMARK    2  A    between atoms: C_4  and  C_18
REMARK    3  A    between atoms: S_7  and  C_8
REMARK    4  A    between atoms: C_8  and  C_9
REMARK    5  A    between atoms: C_9  and  N_10
REMARK    6  A    between atoms: C_9  and  C_15
REMARK    7  A    between atoms: C_15  and  O_16
REMARK    8  A    between atoms: C_18  and  N_19
REMARK    9  A    between atoms: C_18  and  C_24
REMARK   10  A    between atoms: C_24  and  O_25
REMARK                            x       y       z     vdW  Elec       q    Type
REMARK                         _______ _______ _______ _____ _____    ______ ____
ROOT
ATOM      1  O   UNK     1      33.124 -24.688 -14.081  0.00  0.00    -0.410 OA
ATOM      2  N   UNK     1      34.486 -25.137 -14.429  0.00  0.00    -0.132 NA
ATOM      3  C   UNK     1      34.983 -24.181 -15.440  0.00  0.00    +0.163 C 
ATOM      4  C   UNK     1      32.860 -23.597 -14.895  0.00  0.00    +0.131 C 
ATOM      5  C   UNK     1      33.864 -23.248 -15.689  0.00  0.00    +0.037 C 
ATOM      6  H   UNK     1      34.461 -26.080 -14.817  0.00  0.00    +0.169 HD
ENDROOT
BRANCH   3   7
ATOM      7  S   UNK     1      36.438 -23.275 -14.844  0.00  0.00    -0.119 S 
BRANCH   7   8
ATOM      8  C   UNK     1      36.847 -24.331 -13.435  0.00  0.00    +0.048 C 
BRANCH   8   9
ATOM      9  C   UNK     1      36.785 -23.568 -12.111  0.00  0.00    +0.047 C 
BRANCH   9  10
ATOM     10  N   UNK     1      38.124 -23.470 -11.526  0.00  0.00    +0.389 N 
ATOM     11  H   UNK     1      38.056 -23.097 -10.579  0.00  0.00    -0.088 HD
ATOM     12  H   UNK     1      38.699 -22.847 -12.095  0.00  0.00    -0.088 HD
ATOM     13  H   UNK     1      38.551 -24.396 -11.498  0.00  0.00    -0.088 HD
ENDBRANCH   9  10
BRANCH   9  15
ATOM     14  O   UNK     1      36.086 -24.202  -9.884  0.00  0.00    -0.253 OA
ATOM     15  C   UNK     1      35.892 -24.252 -11.093  0.00  0.00    +0.294 C 
BRANCH  15  16
ATOM     16  O   UNK     1      34.873 -24.958 -11.647  0.00  0.00    -0.482 OA
ATOM     17  H   UNK     1      34.618 -25.781 -11.278  0.00  0.00    +0.295 HD
ENDBRANCH  15  16
ENDBRANCH   9  15
ENDBRANCH   8   9
ENDBRANCH   7   8
ENDBRANCH   3   7
BRANCH   4  18
ATOM     18  C   UNK     1      31.523 -22.966 -14.781  0.00  0.00    +0.096 C 
BRANCH  18  19
ATOM     19  N   UNK     1      30.766 -23.465 -13.634  0.00  0.00    +0.393 N 
ATOM     20  H   UNK     1      31.412 -23.729 -12.890  0.00  0.00    -0.088 HD
ATOM     21  H   UNK     1      30.219 -24.279 -13.914  0.00  0.00    -0.088 HD
ATOM     22  H   UNK     1      30.140 -22.733 -13.296  0.00  0.00    -0.088 HD
ENDBRANCH  18  19
BRANCH  18  24
ATOM     23  O   UNK     1      30.555 -22.541 -16.983  0.00  0.00    -0.252 OA
ATOM     24  C   UNK     1      30.701 -23.284 -16.021  0.00  0.00    +0.300 C 
BRANCH  24  25
ATOM     25  O   UNK     1      30.116 -24.512 -15.948  0.00  0.00    -0.481 OA
ATOM     26  H   UNK     1      29.206 -24.609 -16.146  0.00  0.00    +0.295 HD
ENDBRANCH  24  25
ENDBRANCH  18  24
ENDBRANCH   4  18
TORSDOF 10
ENDMDL
MODEL 6
REMARK VINA RESULT:      -6.5      5.077      5.928
REMARK  Name = 17753762
REMARK  10 active torsions:
REMARK  status: ('A' for Active; 'I' for Inactive)
REMARK    1  A    between atoms: C_3  and  S_7
REMARK    2  A    between atoms: C_4  and  C_18
REMARK    3  A    between atoms: S_7  and  C_8
REMARK    4  A    between atoms: C_8  and  C_9
REMARK    5  A    between atoms: C_9  and  N_10
REMARK    6  A    between atoms: C_9  and  C_15
REMARK    7  A    between atoms: C_15  and  O_16
REMARK    8  A    between atoms: C_18  and  N_19
REMARK    9  A    between atoms: C_18  and  C_24
REMARK   10  A    between atoms: C_24  and  O_25
REMARK                            x       y       z     vdW  Elec       q    Type
REMARK                         _______ _______ _______ _____ _____    ______ ____
ROOT
ATOM      1  O   UNK     1      34.932 -24.386 -12.939  0.00  0.00    -0.410 OA
ATOM      2  N   UNK     1      33.661 -23.643 -12.831  0.00  0.00    -0.132 NA
ATOM      3  C   UNK     1      33.106 -23.588 -14.198  0.00  0.00    +0.163 C 
ATOM      4  C   UNK     1      35.101 -24.664 -14.286  0.00  0.00    +0.131 C 
ATOM      5  C   UNK     1      34.108 -24.247 -15.061  0.00  0.00    +0.037 C 
ATOM      6  H   UNK     1      33.830 -22.700 -12.480  0.00  0.00    +0.169 HD
ENDROOT
BRANCH   3   7
ATOM      7  S   UNK     1      31.515 -24.453 -14.308  0.00  0.00    -0.119 S 
BRANCH   7   8
ATOM      8  C   UNK     1      30.589 -23.190 -15.211  0.00  0.00    +0.048 C 
BRANCH   8   9
ATOM      9  C   UNK     1      29.104 -23.539 -15.321  0.00  0.00    +0.047 C 
BRANCH   9  10
ATOM     10  N   UNK     1      28.920 -24.987 -15.196  0.00  0.00    +0.389 N 
ATOM     11  H   UNK     1      27.957 -25.185 -14.921  0.00  0.00    -0.088 HD
ATOM     12  H   UNK     1      29.557 -25.351 -14.487  0.00  0.00    -0.088 HD
ATOM     13  H   UNK     1      29.116 -25.433 -16.092  0.00  0.00    -0.088 HD
ENDBRANCH   9  10
BRANCH   9  15
ATOM     14  O   UNK     1      28.555 -21.968 -17.077  0.00  0.00    -0.253 OA
ATOM     15  C   UNK     1      28.512 -23.118 -16.653  0.00  0.00    +0.294 C 
BRANCH  15  16
ATOM     16  O   UNK     1      27.895 -24.126 -17.321  0.00  0.00    -0.482 OA
ATOM     17  H   UNK     1      28.402 -24.819 -17.695  0.00  0.00    +0.295 HD
ENDBRANCH  15  16
ENDBRANCH   9  15
ENDBRANCH   8   9
ENDBRANCH   7   8
ENDBRANCH   3   7
BRANCH   4  18
ATOM     18  C   UNK     1      36.337 -25.378 -14.687  0.00  0.00    +0.096 C 
BRANCH  18  19
ATOM     19  N   UNK     1      36.063 -26.711 -15.222  0.00  0.00    +0.393 N 
ATOM     20  H   UNK     1      36.909 -27.086 -15.650  0.00  0.00    -0.088 HD
ATOM     21  H   UNK     1      35.324 -26.652 -15.923  0.00  0.00    -0.088 HD
ATOM     22  H   UNK     1      35.765 -27.326 -14.464  0.00  0.00    -0.088 HD
ENDBRANCH  18  19
BRANCH  18  24
ATOM     23  O   UNK     1      38.244 -24.917 -13.233  0.00  0.00    -0.252 OA
ATOM     24  C   UNK     1      37.235 -25.567 -13.475  0.00  0.00    +0.300 C 
BRANCH  24  25
ATOM     25  O   UNK     1      36.798 -26.570 -12.663  0.00  0.00    -0.481 OA
ATOM     26  H   UNK     1      37.013 -27.459 -12.861  0.00  0.00    +0.295 HD
ENDBRANCH  24  25
ENDBRANCH  18  24
ENDBRANCH   4  18
TORSDOF 10
ENDMDL
MODEL 7
REMARK VINA RESULT:      -6.5      3.457      5.783
REMARK  Name = 17753762
REMARK  10 active torsions:
REMARK  status: ('A' for Active; 'I' for Inactive)
REMARK    1  A    between atoms: C_3  and  S_7
REMARK    2  A    between atoms: C_4  and  C_18
REMARK    3  A    between atoms: S_7  and  C_8
REMARK    4  A    between atoms: C_8  and  C_9
REMARK    5  A    between atoms: C_9  and  N_10
REMARK    6  A    between atoms: C_9  and  C_15
REMARK    7  A    between atoms: C_15  and  O_16
REMARK    8  A    between atoms: C_18  and  N_19
REMARK    9  A    between atoms: C_18  and  C_24
REMARK   10  A    between atoms: C_24  and  O_25
REMARK                            x       y       z     vdW  Elec       q    Type
REMARK                         _______ _______ _______ _____ _____    ______ ____
ROOT
ATOM      1  O   UNK     1      33.214 -24.405 -12.926  0.00  0.00    -0.410 OA
ATOM      2  N   UNK     1      34.644 -24.716 -12.733  0.00  0.00    -0.132 NA
ATOM      3  C   UNK     1      35.257 -24.659 -14.076  0.00  0.00    +0.163 C 
ATOM      4  C   UNK     1      33.035 -24.254 -14.292  0.00  0.00    +0.131 C 
ATOM      5  C   UNK     1      34.145 -24.380 -15.009  0.00  0.00    +0.037 C 
ATOM      6  H   UNK     1      34.754 -25.648 -12.334  0.00  0.00    +0.169 HD
ENDROOT
BRANCH   3   7
ATOM      7  S   UNK     1      36.511 -23.352 -14.183  0.00  0.00    -0.119 S 
BRANCH   7   8
ATOM      8  C   UNK     1      37.981 -24.402 -14.239  0.00  0.00    +0.048 C 
BRANCH   8   9
ATOM      9  C   UNK     1      38.390 -24.887 -12.847  0.00  0.00    +0.047 C 
BRANCH   9  10
ATOM     10  N   UNK     1      37.652 -26.105 -12.505  0.00  0.00    +0.389 N 
ATOM     11  H   UNK     1      37.260 -26.515 -13.353  0.00  0.00    -0.088 HD
ATOM     12  H   UNK     1      36.897 -25.875 -11.859  0.00  0.00    -0.088 HD
ATOM     13  H   UNK     1      38.285 -26.773 -12.065  0.00  0.00    -0.088 HD
ENDBRANCH   9  10
BRANCH   9  15
ATOM     14  O   UNK     1      38.706 -22.800 -11.665  0.00  0.00    -0.253 OA
ATOM     15  C   UNK     1      38.097 -23.859 -11.771  0.00  0.00    +0.294 C 
BRANCH  15  16
ATOM     16  O   UNK     1      37.117 -24.234 -10.909  0.00  0.00    -0.482 OA
ATOM     17  H   UNK     1      37.129 -23.928 -10.023  0.00  0.00    +0.295 HD
ENDBRANCH  15  16
ENDBRANCH   9  15
ENDBRANCH   8   9
ENDBRANCH   7   8
ENDBRANCH   3   7
BRANCH   4  18
ATOM     18  C   UNK     1      31.661 -23.974 -14.776  0.00  0.00    +0.096 C 
BRANCH  18  19
ATOM     19  N   UNK     1      31.178 -22.660 -14.354  0.00  0.00    +0.393 N 
ATOM     20  H   UNK     1      31.488 -21.954 -15.022  0.00  0.00    -0.088 HD
ATOM     21  H   UNK     1      31.551 -22.440 -13.430  0.00  0.00    -0.088 HD
ATOM     22  H   UNK     1      30.159 -22.668 -14.317  0.00  0.00    -0.088 HD
ENDBRANCH  18  19
BRANCH  18  24
ATOM     23  O   UNK     1      30.145 -25.887 -14.840  0.00  0.00    -0.252 OA
ATOM     24  C   UNK     1      30.698 -25.001 -14.201  0.00  0.00    +0.300 C 
BRANCH  24  25
ATOM     25  O   UNK     1      30.497 -24.826 -12.866  0.00  0.00    -0.481 OA
ATOM     26  H   UNK     1      29.657 -25.002 -12.493  0.00  0.00    +0.295 HD
ENDBRANCH  24  25
ENDBRANCH  18  24
ENDBRANCH   4  18
TORSDOF 10
ENDMDL
MODEL 8
REMARK VINA RESULT:      -6.4      5.208      7.327
REMARK  Name = 17753762
REMARK  10 active torsions:
REMARK  status: ('A' for Active; 'I' for Inactive)
REMARK    1  A    between atoms: C_3  and  S_7
REMARK    2  A    between atoms: C_4  and  C_18
REMARK    3  A    between atoms: S_7  and  C_8
REMARK    4  A    between atoms: C_8  and  C_9
REMARK    5  A    between atoms: C_9  and  N_10
REMARK    6  A    between atoms: C_9  and  C_15
REMARK    7  A    between atoms: C_15  and  O_16
REMARK    8  A    between atoms: C_18  and  N_19
REMARK    9  A    between atoms: C_18  and  C_24
REMARK   10  A    between atoms: C_24  and  O_25
REMARK                            x       y       z     vdW  Elec       q    Type
REMARK                         _______ _______ _______ _____ _____    ______ ____
ROOT
ATOM      1  O   UNK     1      31.392 -23.794 -16.534  0.00  0.00    -0.410 OA
ATOM      2  N   UNK     1      32.832 -23.522 -16.356  0.00  0.00    -0.132 NA
ATOM      3  C   UNK     1      33.000 -23.130 -14.942  0.00  0.00    +0.163 C 
ATOM      4  C   UNK     1      30.794 -23.505 -15.318  0.00  0.00    +0.131 C 
ATOM      5  C   UNK     1      31.638 -23.126 -14.366  0.00  0.00    +0.037 C 
ATOM      6  H   UNK     1      33.129 -22.765 -16.971  0.00  0.00    +0.169 HD
ENDROOT
BRANCH   3   7
ATOM      7  S   UNK     1      34.058 -24.299 -14.045  0.00  0.00    -0.119 S 
BRANCH   7   8
ATOM      8  C   UNK     1      35.241 -24.649 -15.367  0.00  0.00    +0.048 C 
BRANCH   8   9
ATOM      9  C   UNK     1      36.623 -25.008 -14.816  0.00  0.00    +0.047 C 
BRANCH   9  10
ATOM     10  N   UNK     1      37.634 -24.109 -15.377  0.00  0.00    +0.389 N 
ATOM     11  H   UNK     1      37.173 -23.346 -15.873  0.00  0.00    -0.088 HD
ATOM     12  H   UNK     1      38.226 -24.627 -16.027  0.00  0.00    -0.088 HD
ATOM     13  H   UNK     1      38.206 -23.729 -14.624  0.00  0.00    -0.088 HD
ENDBRANCH   9  10
BRANCH   9  15
ATOM     14  O   UNK     1      37.916 -27.039 -14.579  0.00  0.00    -0.253 OA
ATOM     15  C   UNK     1      37.030 -26.427 -15.166  0.00  0.00    +0.294 C 
BRANCH  15  16
ATOM     16  O   UNK     1      36.346 -26.950 -16.215  0.00  0.00    -0.482 OA
ATOM     17  H   UNK     1      35.857 -27.742 -16.108  0.00  0.00    +0.295 HD
ENDBRANCH  15  16
ENDBRANCH   9  15
ENDBRANCH   8   9
ENDBRANCH   7   8
ENDBRANCH   3   7
BRANCH   4  18
ATOM     18  C   UNK     1      29.321 -23.653 -15.227  0.00  0.00    +0.096 C 
BRANCH  18  19
ATOM     19  N   UNK     1      28.918 -25.012 -14.869  0.00  0.00    +0.393 N 
ATOM     20  H   UNK     1      28.935 -25.601 -15.701  0.00  0.00    -0.088 HD
ATOM     21  H   UNK     1      27.974 -24.997 -14.482  0.00  0.00    -0.088 HD
ATOM     22  H   UNK     1      29.565 -25.386 -14.174  0.00  0.00    -0.088 HD
ENDBRANCH  18  19
BRANCH  18  24
ATOM     23  O   UNK     1      28.026 -24.136 -17.240  0.00  0.00    -0.252 OA
ATOM     24  C   UNK     1      28.693 -23.350 -16.578  0.00  0.00    +0.300 C 
BRANCH  24  25
ATOM     25  O   UNK     1      28.962 -22.083 -16.998  0.00  0.00    -0.481 OA
ATOM     26  H   UNK     1      28.424 -21.372 -16.713  0.00  0.00    +0.295 HD
ENDBRANCH  24  25
ENDBRANCH  18  24
ENDBRANCH   4  18
TORSDOF 10
ENDMDL
MODEL 9
REMARK VINA RESULT:      -6.3      3.074      4.725
REMARK  Name = 17753762
REMARK  10 active torsions:
REMARK  status: ('A' for Active; 'I' for Inactive)
REMARK    1  A    between atoms: C_3  and  S_7
REMARK    2  A    between atoms: C_4  and  C_18
REMARK    3  A    between atoms: S_7  and  C_8
REMARK    4  A    between atoms: C_8  and  C_9
REMARK    5  A    between atoms: C_9  and  N_10
REMARK    6  A    between atoms: C_9  and  C_15
REMARK    7  A    between atoms: C_15  and  O_16
REMARK    8  A    between atoms: C_18  and  N_19
REMARK    9  A    between atoms: C_18  and  C_24
REMARK   10  A    between atoms: C_24  and  O_25
REMARK                            x       y       z     vdW  Elec       q    Type
REMARK                         _______ _______ _______ _____ _____    ______ ____
ROOT
ATOM      1  O   UNK     1      34.677 -25.168 -15.368  0.00  0.00    -0.410 OA
ATOM      2  N   UNK     1      36.101 -24.985 -15.711  0.00  0.00    -0.132 NA
ATOM      3  C   UNK     1      36.348 -23.530 -15.656  0.00  0.00    +0.163 C 
ATOM      4  C   UNK     1      34.155 -23.895 -15.202  0.00  0.00    +0.131 C 
ATOM      5  C   UNK     1      35.040 -22.916 -15.345  0.00  0.00    +0.037 C 
ATOM      6  H   UNK     1      36.289 -25.341 -16.648  0.00  0.00    +0.169 HD
ENDROOT
BRANCH   3   7
ATOM      7  S   UNK     1      37.562 -23.107 -14.375  0.00  0.00    -0.119 S 
BRANCH   7   8
ATOM      8  C   UNK     1      36.473 -23.207 -12.936  0.00  0.00    +0.048 C 
BRANCH   8   9
ATOM      9  C   UNK     1      36.758 -24.448 -12.089  0.00  0.00    +0.047 C 
BRANCH   9  10
ATOM     10  N   UNK     1      36.246 -25.643 -12.764  0.00  0.00    +0.389 N 
ATOM     11  H   UNK     1      36.915 -25.946 -13.473  0.00  0.00    -0.088 HD
ATOM     12  H   UNK     1      35.354 -25.426 -13.210  0.00  0.00    -0.088 HD
ATOM     13  H   UNK     1      36.113 -26.388 -12.081  0.00  0.00    -0.088 HD
ENDBRANCH   9  10
BRANCH   9  15
ATOM     14  O   UNK     1      36.451 -23.602  -9.844  0.00  0.00    -0.253 OA
ATOM     15  C   UNK     1      36.097 -24.377 -10.725  0.00  0.00    +0.294 C 
BRANCH  15  16
ATOM     16  O   UNK     1      35.096 -25.278 -10.555  0.00  0.00    -0.482 OA
ATOM     17  H   UNK     1      34.316 -25.215 -11.069  0.00  0.00    +0.295 HD
ENDBRANCH  15  16
ENDBRANCH   9  15
ENDBRANCH   8   9
ENDBRANCH   7   8
ENDBRANCH   3   7
BRANCH   4  18
ATOM     18  C   UNK     1      32.710 -23.782 -14.888  0.00  0.00    +0.096 C 
BRANCH  18  19
ATOM     19  N   UNK     1      32.363 -22.481 -14.319  0.00  0.00    +0.393 N 
ATOM     20  H   UNK     1      31.361 -22.450 -14.131  0.00  0.00    -0.088 HD
ATOM     21  H   UNK     1      32.608 -21.743 -14.979  0.00  0.00    -0.088 HD
ATOM     22  H   UNK     1      32.876 -22.344 -13.448  0.00  0.00    -0.088 HD
ENDBRANCH  18  19
BRANCH  18  24
ATOM     23  O   UNK     1      31.318 -25.521 -13.887  0.00  0.00    -0.252 OA
ATOM     24  C   UNK     1      32.329 -24.830 -13.854  0.00  0.00    +0.300 C 
BRANCH  24  25
ATOM     25  O   UNK     1      33.246 -24.920 -12.852  0.00  0.00    -0.481 OA
ATOM     26  H   UNK     1      33.860 -25.626 -12.842  0.00  0.00    +0.295 HD
ENDBRANCH  24  25
ENDBRANCH  18  24
ENDBRANCH   4  18
TORSDOF 10
ENDMDL
