MODEL 1
REMARK VINA RESULT:      -9.6      0.000      0.000
REMARK  Name = 9910486
REMARK  3 active torsions:
REMARK  status: ('A' for Active; 'I' for Inactive)
REMARK    1  A    between atoms: C_3  and  N_13
REMARK    2  A    between atoms: C_10  and  C_28
REMARK    3  A    between atoms: N_14  and  C_19
REMARK                            x       y       z     vdW  Elec       q    Type
REMARK                         _______ _______ _______ _____ _____    ______ ____
ROOT
ATOM      1  N   UNL     1      32.191 -12.761 -21.200  0.00  0.00    -0.291 N 
ATOM      2  N   UNL     1      32.727 -14.335 -22.934  0.00  0.00    -0.229 NA
ATOM      3  C   UNL     1      30.971 -10.739 -21.200  0.00  0.00    +0.094 C 
ATOM      4  C   UNL     1      31.150 -11.212 -19.764  0.00  0.00    +0.043 C 
ATOM      5  C   UNL     1      31.238 -12.007 -22.018  0.00  0.00    +0.112 C 
ATOM      6  C   UNL     1      32.307 -12.209 -19.852  0.00  0.00    +0.094 C 
ATOM      7  C   UNL     1      32.885 -13.866 -21.643  0.00  0.00    +0.132 C 
ATOM      8  C   UNL     1      33.773 -14.529 -20.763  0.00  0.00    +0.034 C 
ATOM      9  C   UNL     1      34.480 -15.645 -21.195  0.00  0.00    +0.008 C 
ATOM     10  C   UNL     1      34.312 -16.107 -22.496  0.00  0.00    +0.091 C 
ATOM     11  C   UNL     1      33.432 -15.423 -23.318  0.00  0.00    +0.104 C 
ENDROOT
BRANCH   3  13
ATOM     12  O   UNL     1      30.917  -9.060 -23.520  0.00  0.00    -0.252 OA
ATOM     13  N   UNL     1      31.906  -9.689 -21.527  0.00  0.00    -0.289 N 
ATOM     14  N   UNL     1      32.847  -7.978 -22.736  0.00  0.00    -0.268 N 
ATOM     15  C   UNL     1      31.808  -8.911 -22.687  0.00  0.00    +0.304 C 
ATOM     16  H   UNL     1      32.648  -9.512 -20.906  0.00  0.00    +0.151 HD
ATOM     17  H   UNL     1      33.479  -7.995 -21.981  0.00  0.00    +0.156 HD
BRANCH  14  19
ATOM     18 BR   UNL     1      30.784  -5.591 -22.765  0.00  0.00    -0.048 Br
ATOM     19  C   UNL     1      33.101  -7.013 -23.738  0.00  0.00    +0.058 C 
ATOM     20  C   UNL     1      32.286  -5.902 -23.884  0.00  0.00    +0.048 C 
ATOM     21  C   UNL     1      34.192  -7.217 -24.570  0.00  0.00    +0.015 C 
ATOM     22  C   UNL     1      32.568  -4.972 -24.884  0.00  0.00    +0.008 C 
ATOM     23  C   UNL     1      34.474  -6.287 -25.570  0.00  0.00    +0.001 C 
ATOM     24  C   UNL     1      33.661  -5.164 -25.727  0.00  0.00    +0.001 C 
ENDBRANCH  14  19
ENDBRANCH   3  13
BRANCH  10  28
ATOM     25  F   UNL     1      36.262 -17.488 -22.375  0.00  0.00    -0.166 F 
ATOM     26  F   UNL     1      34.383 -18.476 -22.816  0.00  0.00    -0.166 F 
ATOM     27  F   UNL     1      35.334 -17.231 -24.325  0.00  0.00    -0.166 F 
ATOM     28  C   UNL     1      35.055 -17.297 -22.988  0.00  0.00    +0.420 C 
ENDBRANCH  10  28
TORSDOF 3
ENDMDL
MODEL 2
REMARK VINA RESULT:      -9.5      5.440      9.405
REMARK  Name = 9910486
REMARK  3 active torsions:
REMARK  status: ('A' for Active; 'I' for Inactive)
REMARK    1  A    between atoms: C_3  and  N_13
REMARK    2  A    between atoms: C_10  and  C_28
REMARK    3  A    between atoms: N_14  and  C_19
REMARK                            x       y       z     vdW  Elec       q    Type
REMARK                         _______ _______ _______ _____ _____    ______ ____
ROOT
ATOM      1  N   UNL     1      33.591 -10.441 -24.481  0.00  0.00    -0.291 N 
ATOM      2  N   UNL     1      31.981  -9.416 -23.023  0.00  0.00    -0.229 NA
ATOM      3  C   UNL     1      33.701 -12.571 -25.495  0.00  0.00    +0.094 C 
ATOM      4  C   UNL     1      34.697 -11.644 -26.178  0.00  0.00    +0.043 C 
ATOM      5  C   UNL     1      32.750 -11.599 -24.789  0.00  0.00    +0.112 C 
ATOM      6  C   UNL     1      34.876 -10.503 -25.176  0.00  0.00    +0.094 C 
ATOM      7  C   UNL     1      33.214  -9.410 -23.648  0.00  0.00    +0.132 C 
ATOM      8  C   UNL     1      34.103  -8.331 -23.431  0.00  0.00    +0.034 C 
ATOM      9  C   UNL     1      33.736  -7.283 -22.593  0.00  0.00    +0.008 C 
ATOM     10  C   UNL     1      32.493  -7.302 -21.970  0.00  0.00    +0.091 C 
ATOM     11  C   UNL     1      31.661  -8.380 -22.215  0.00  0.00    +0.104 C 
ENDROOT
BRANCH   3  13
ATOM     12  O   UNL     1      33.149 -15.348 -25.062  0.00  0.00    -0.252 OA
ATOM     13  N   UNL     1      34.360 -13.446 -24.553  0.00  0.00    -0.289 N 
ATOM     14  N   UNL     1      34.830 -15.389 -23.424  0.00  0.00    -0.268 N 
ATOM     15  C   UNL     1      34.028 -14.798 -24.404  0.00  0.00    +0.304 C 
ATOM     16  H   UNL     1      35.076 -13.074 -23.990  0.00  0.00    +0.151 HD
ATOM     17  H   UNL     1      35.489 -14.800 -22.992  0.00  0.00    +0.156 HD
BRANCH  14  19
ATOM     18 BR   UNL     1      34.278 -15.702 -20.333  0.00  0.00    -0.048 Br
ATOM     19  C   UNL     1      34.808 -16.731 -22.979  0.00  0.00    +0.058 C 
ATOM     20  C   UNL     1      34.578 -17.039 -21.647  0.00  0.00    +0.048 C 
ATOM     21  C   UNL     1      35.026 -17.728 -23.918  0.00  0.00    +0.015 C 
ATOM     22  C   UNL     1      34.565 -18.374 -21.244  0.00  0.00    +0.008 C 
ATOM     23  C   UNL     1      35.013 -19.063 -23.516  0.00  0.00    +0.001 C 
ATOM     24  C   UNL     1      34.783 -19.386 -22.178  0.00  0.00    +0.001 C 
ENDBRANCH  14  19
ENDBRANCH   3  13
BRANCH  10  28
ATOM     25  F   UNL     1      30.731  -6.177 -20.806  0.00  0.00    -0.166 F 
ATOM     26  F   UNL     1      32.670  -6.232 -19.837  0.00  0.00    -0.166 F 
ATOM     27  F   UNL     1      32.361  -4.960 -21.575  0.00  0.00    -0.166 F 
ATOM     28  C   UNL     1      32.073  -6.197 -21.068  0.00  0.00    +0.420 C 
ENDBRANCH  10  28
TORSDOF 3
ENDMDL
MODEL 3
REMARK VINA RESULT:      -9.4      7.929     10.712
REMARK  Name = 9910486
REMARK  3 active torsions:
REMARK  status: ('A' for Active; 'I' for Inactive)
REMARK    1  A    between atoms: C_3  and  N_13
REMARK    2  A    between atoms: C_10  and  C_28
REMARK    3  A    between atoms: N_14  and  C_19
REMARK                            x       y       z     vdW  Elec       q    Type
REMARK                         _______ _______ _______ _____ _____    ______ ____
ROOT
ATOM      1  N   UNL     1      35.530 -21.966 -18.365  0.00  0.00    -0.291 N 
ATOM      2  N   UNL     1      37.296 -22.519 -16.834  0.00  0.00    -0.229 NA
ATOM      3  C   UNL     1      35.528 -21.001 -20.520  0.00  0.00    +0.094 C 
ATOM      4  C   UNL     1      34.167 -21.634 -20.257  0.00  0.00    +0.043 C 
ATOM      5  C   UNL     1      36.430 -21.676 -19.482  0.00  0.00    +0.112 C 
ATOM      6  C   UNL     1      34.128 -21.788 -18.736  0.00  0.00    +0.094 C 
ATOM      7  C   UNL     1      35.951 -22.372 -17.116  0.00  0.00    +0.132 C 
ATOM      8  C   UNL     1      34.992 -22.639 -16.111  0.00  0.00    +0.034 C 
ATOM      9  C   UNL     1      35.402 -23.048 -14.847  0.00  0.00    +0.008 C 
ATOM     10  C   UNL     1      36.758 -23.193 -14.576  0.00  0.00    +0.091 C 
ATOM     11  C   UNL     1      37.656 -22.919 -15.593  0.00  0.00    +0.104 C 
ENDROOT
BRANCH   3  13
ATOM     12  O   UNL     1      33.875 -19.141 -21.938  0.00  0.00    -0.252 OA
ATOM     13  N   UNL     1      35.483 -19.569 -20.333  0.00  0.00    -0.289 N 
ATOM     14  N   UNL     1      34.815 -17.399 -20.676  0.00  0.00    -0.268 N 
ATOM     15  C   UNL     1      34.642 -18.728 -21.072  0.00  0.00    +0.304 C 
ATOM     16  H   UNL     1      36.072 -19.166 -19.656  0.00  0.00    +0.151 HD
ATOM     17  H   UNL     1      35.476 -17.243 -19.963  0.00  0.00    +0.156 HD
BRANCH  14  19
ATOM     18 BR   UNL     1      35.439 -16.784 -23.708  0.00  0.00    -0.048 Br
ATOM     19  C   UNL     1      34.157 -16.252 -21.176  0.00  0.00    +0.058 C 
ATOM     20  C   UNL     1      34.325 -15.845 -22.490  0.00  0.00    +0.048 C 
ATOM     21  C   UNL     1      33.337 -15.548 -20.306  0.00  0.00    +0.015 C 
ATOM     22  C   UNL     1      33.660 -14.708 -22.947  0.00  0.00    +0.008 C 
ATOM     23  C   UNL     1      32.672 -14.410 -20.763  0.00  0.00    +0.001 C 
ATOM     24  C   UNL     1      32.833 -13.990 -22.083  0.00  0.00    +0.001 C 
ENDBRANCH  14  19
ENDBRANCH   3  13
BRANCH  10  28
ATOM     25  F   UNL     1      38.407 -24.321 -13.258  0.00  0.00    -0.166 F 
ATOM     26  F   UNL     1      37.445 -22.595 -12.364  0.00  0.00    -0.166 F 
ATOM     27  F   UNL     1      36.337 -24.452 -12.603  0.00  0.00    -0.166 F 
ATOM     28  C   UNL     1      37.228 -23.629 -13.233  0.00  0.00    +0.420 C 
ENDBRANCH  10  28
TORSDOF 3
ENDMDL
MODEL 4
REMARK VINA RESULT:      -9.4      5.883      8.453
REMARK  Name = 9910486
REMARK  3 active torsions:
REMARK  status: ('A' for Active; 'I' for Inactive)
REMARK    1  A    between atoms: C_3  and  N_13
REMARK    2  A    between atoms: C_10  and  C_28
REMARK    3  A    between atoms: N_14  and  C_19
REMARK                            x       y       z     vdW  Elec       q    Type
REMARK                         _______ _______ _______ _____ _____    ______ ____
ROOT
ATOM      1  N   UNL     1      35.560 -20.180 -20.785  0.00  0.00    -0.291 N 
ATOM      2  N   UNL     1      36.679 -21.016 -18.830  0.00  0.00    -0.229 NA
ATOM      3  C   UNL     1      36.153 -18.554 -22.391  0.00  0.00    +0.094 C 
ATOM      4  C   UNL     1      34.995 -19.385 -22.928  0.00  0.00    +0.043 C 
ATOM      5  C   UNL     1      36.721 -19.435 -21.274  0.00  0.00    +0.112 C 
ATOM      6  C   UNL     1      34.412 -20.044 -21.678  0.00  0.00    +0.094 C 
ATOM      7  C   UNL     1      35.554 -20.932 -19.629  0.00  0.00    +0.132 C 
ATOM      8  C   UNL     1      34.378 -21.625 -19.257  0.00  0.00    +0.034 C 
ATOM      9  C   UNL     1      34.357 -22.387 -18.093  0.00  0.00    +0.008 C 
ATOM     10  C   UNL     1      35.495 -22.464 -17.299  0.00  0.00    +0.091 C 
ATOM     11  C   UNL     1      36.620 -21.767 -17.707  0.00  0.00    +0.104 C 
ENDROOT
BRANCH   3  13
ATOM     12  O   UNL     1      34.478 -16.672 -23.754  0.00  0.00    -0.252 OA
ATOM     13  N   UNL     1      35.694 -17.283 -21.884  0.00  0.00    -0.289 N 
ATOM     14  N   UNL     1      34.591 -15.268 -21.876  0.00  0.00    -0.268 N 
ATOM     15  C   UNL     1      34.873 -16.418 -22.619  0.00  0.00    +0.304 C 
ATOM     16  H   UNL     1      35.970 -17.011 -20.980  0.00  0.00    +0.151 HD
ATOM     17  H   UNL     1      34.991 -15.226 -20.977  0.00  0.00    +0.156 HD
BRANCH  14  19
ATOM     18 BR   UNL     1      32.171 -14.690 -19.935  0.00  0.00    -0.048 Br
ATOM     19  C   UNL     1      33.802 -14.159 -22.259  0.00  0.00    +0.058 C 
ATOM     20  C   UNL     1      32.701 -13.773 -21.511  0.00  0.00    +0.048 C 
ATOM     21  C   UNL     1      34.167 -13.472 -23.407  0.00  0.00    +0.015 C 
ATOM     22  C   UNL     1      31.946 -12.674 -21.920  0.00  0.00    +0.008 C 
ATOM     23  C   UNL     1      33.412 -12.373 -23.816  0.00  0.00    +0.001 C 
ATOM     24  C   UNL     1      32.301 -11.974 -23.073  0.00  0.00    +0.001 C 
ENDBRANCH  14  19
ENDBRANCH   3  13
BRANCH  10  28
ATOM     25  F   UNL     1      34.541 -24.240 -16.011  0.00  0.00    -0.166 F 
ATOM     26  F   UNL     1      36.680 -23.932 -15.828  0.00  0.00    -0.166 F 
ATOM     27  F   UNL     1      35.298 -22.512 -14.930  0.00  0.00    -0.166 F 
ATOM     28  C   UNL     1      35.503 -23.270 -16.049  0.00  0.00    +0.420 C 
ENDBRANCH  10  28
TORSDOF 3
ENDMDL
MODEL 5
REMARK VINA RESULT:      -9.2     10.576     13.389
REMARK  Name = 9910486
REMARK  3 active torsions:
REMARK  status: ('A' for Active; 'I' for Inactive)
REMARK    1  A    between atoms: C_3  and  N_13
REMARK    2  A    between atoms: C_10  and  C_28
REMARK    3  A    between atoms: N_14  and  C_19
REMARK                            x       y       z     vdW  Elec       q    Type
REMARK                         _______ _______ _______ _____ _____    ______ ____
ROOT
ATOM      1  N   UNL     1      33.733 -23.756 -15.630  0.00  0.00    -0.291 N 
ATOM      2  N   UNL     1      35.921 -24.743 -15.525  0.00  0.00    -0.229 NA
ATOM      3  C   UNL     1      32.226 -23.400 -17.413  0.00  0.00    +0.094 C 
ATOM      4  C   UNL     1      31.485 -23.229 -16.093  0.00  0.00    +0.043 C 
ATOM      5  C   UNL     1      33.479 -24.183 -17.007  0.00  0.00    +0.112 C 
ATOM      6  C   UNL     1      32.605 -23.012 -15.075  0.00  0.00    +0.094 C 
ATOM      7  C   UNL     1      34.891 -24.033 -14.935  0.00  0.00    +0.132 C 
ATOM      8  C   UNL     1      35.027 -23.582 -13.601  0.00  0.00    +0.034 C 
ATOM      9  C   UNL     1      36.189 -23.853 -12.888  0.00  0.00    +0.008 C 
ATOM     10  C   UNL     1      37.217 -24.569 -13.492  0.00  0.00    +0.091 C 
ATOM     11  C   UNL     1      37.035 -24.988 -14.799  0.00  0.00    +0.104 C 
ENDROOT
BRANCH   3  13
ATOM     12  O   UNL     1      33.831 -22.949 -19.742  0.00  0.00    -0.252 OA
ATOM     13  N   UNL     1      32.564 -22.122 -17.994  0.00  0.00    -0.289 N 
ATOM     14  N   UNL     1      33.514 -20.640 -19.467  0.00  0.00    -0.268 N 
ATOM     15  C   UNL     1      33.358 -21.989 -19.139  0.00  0.00    +0.304 C 
ATOM     16  H   UNL     1      32.220 -21.307 -17.564  0.00  0.00    +0.151 HD
ATOM     17  H   UNL     1      33.065 -19.996 -18.873  0.00  0.00    +0.156 HD
BRANCH  14  19
ATOM     18 BR   UNL     1      36.644 -20.921 -19.181  0.00  0.00    -0.048 Br
ATOM     19  C   UNL     1      34.240 -20.087 -20.548  0.00  0.00    +0.058 C 
ATOM     20  C   UNL     1      35.626 -20.129 -20.575  0.00  0.00    +0.048 C 
ATOM     21  C   UNL     1      33.520 -19.502 -21.578  0.00  0.00    +0.015 C 
ATOM     22  C   UNL     1      36.307 -19.573 -21.657  0.00  0.00    +0.008 C 
ATOM     23  C   UNL     1      34.202 -18.947 -22.661  0.00  0.00    +0.001 C 
ATOM     24  C   UNL     1      35.596 -18.982 -22.700  0.00  0.00    +0.001 C 
ENDBRANCH  14  19
ENDBRANCH   3  13
BRANCH  10  28
ATOM     25  F   UNL     1      38.814 -23.929 -11.829  0.00  0.00    -0.166 F 
ATOM     26  F   UNL     1      38.430 -26.051 -12.058  0.00  0.00    -0.166 F 
ATOM     27  F   UNL     1      39.557 -24.982 -13.581  0.00  0.00    -0.166 F 
ATOM     28  C   UNL     1      38.473 -24.874 -12.755  0.00  0.00    +0.420 C 
ENDBRANCH  10  28
TORSDOF 3
ENDMDL
MODEL 6
REMARK VINA RESULT:      -9.1      8.745     13.191
REMARK  Name = 9910486
REMARK  3 active torsions:
REMARK  status: ('A' for Active; 'I' for Inactive)
REMARK    1  A    between atoms: C_3  and  N_13
REMARK    2  A    between atoms: C_10  and  C_28
REMARK    3  A    between atoms: N_14  and  C_19
REMARK                            x       y       z     vdW  Elec       q    Type
REMARK                         _______ _______ _______ _____ _____    ______ ____
ROOT
ATOM      1  N   UNL     1      35.555 -20.420 -20.555  0.00  0.00    -0.291 N 
ATOM      2  N   UNL     1      34.510 -19.653 -22.577  0.00  0.00    -0.229 NA
ATOM      3  C   UNL     1      35.290 -22.380 -19.265  0.00  0.00    +0.094 C 
ATOM      4  C   UNL     1      36.577 -21.681 -18.848  0.00  0.00    +0.043 C 
ATOM      5  C   UNL     1      34.993 -21.770 -20.638  0.00  0.00    +0.112 C 
ATOM      6  C   UNL     1      36.403 -20.257 -19.376  0.00  0.00    +0.094 C 
ATOM      7  C   UNL     1      35.325 -19.427 -21.483  0.00  0.00    +0.132 C 
ATOM      8  C   UNL     1      35.931 -18.161 -21.311  0.00  0.00    +0.034 C 
ATOM      9  C   UNL     1      35.707 -17.149 -22.239  0.00  0.00    +0.008 C 
ATOM     10  C   UNL     1      34.886 -17.389 -23.335  0.00  0.00    +0.091 C 
ATOM     11  C   UNL     1      34.317 -18.645 -23.457  0.00  0.00    +0.104 C 
ENDROOT
BRANCH   3  13
ATOM     12  O   UNL     1      33.476 -24.300 -18.156  0.00  0.00    -0.252 OA
ATOM     13  N   UNL     1      34.225 -22.119 -18.325  0.00  0.00    -0.289 N 
ATOM     14  N   UNL     1      32.448 -22.573 -16.943  0.00  0.00    -0.268 N 
ATOM     15  C   UNL     1      33.380 -23.119 -17.830  0.00  0.00    +0.304 C 
ATOM     16  H   UNL     1      34.086 -21.194 -18.019  0.00  0.00    +0.151 HD
ATOM     17  H   UNL     1      32.512 -21.601 -16.794  0.00  0.00    +0.156 HD
BRANCH  14  19
ATOM     18 BR   UNL     1      33.464 -24.085 -14.367  0.00  0.00    -0.048 Br
ATOM     19  C   UNL     1      31.427 -23.245 -16.233  0.00  0.00    +0.058 C 
ATOM     20  C   UNL     1      31.709 -23.958 -15.078  0.00  0.00    +0.048 C 
ATOM     21  C   UNL     1      30.135 -23.169 -16.732  0.00  0.00    +0.015 C 
ATOM     22  C   UNL     1      30.675 -24.609 -14.405  0.00  0.00    +0.008 C 
ATOM     23  C   UNL     1      29.102 -23.820 -16.059  0.00  0.00    +0.001 C 
ATOM     24  C   UNL     1      29.372 -24.540 -14.895  0.00  0.00    +0.001 C 
ENDBRANCH  14  19
ENDBRANCH   3  13
BRANCH  10  28
ATOM     25  F   UNL     1      35.302 -16.506 -25.520  0.00  0.00    -0.166 F 
ATOM     26  F   UNL     1      33.312 -16.220 -24.706  0.00  0.00    -0.166 F 
ATOM     27  F   UNL     1      34.985 -15.082 -23.906  0.00  0.00    -0.166 F 
ATOM     28  C   UNL     1      34.627 -16.327 -24.344  0.00  0.00    +0.420 C 
ENDBRANCH  10  28
TORSDOF 3
ENDMDL
MODEL 7
REMARK VINA RESULT:      -8.9      7.656     12.482
REMARK  Name = 9910486
REMARK  3 active torsions:
REMARK  status: ('A' for Active; 'I' for Inactive)
REMARK    1  A    between atoms: C_3  and  N_13
REMARK    2  A    between atoms: C_10  and  C_28
REMARK    3  A    between atoms: N_14  and  C_19
REMARK                            x       y       z     vdW  Elec       q    Type
REMARK                         _______ _______ _______ _____ _____    ______ ____
ROOT
ATOM      1  N   UNL     1      34.445 -17.990 -21.323  0.00  0.00    -0.291 N 
ATOM      2  N   UNL     1      32.578 -16.519 -20.972  0.00  0.00    -0.229 NA
ATOM      3  C   UNL     1      34.754 -20.299 -20.938  0.00  0.00    +0.094 C 
ATOM      4  C   UNL     1      35.864 -19.794 -21.850  0.00  0.00    +0.043 C 
ATOM      5  C   UNL     1      33.682 -19.212 -21.063  0.00  0.00    +0.112 C 
ATOM      6  C   UNL     1      35.841 -18.279 -21.643  0.00  0.00    +0.094 C 
ATOM      7  C   UNL     1      33.910 -16.720 -21.283  0.00  0.00    +0.132 C 
ATOM      8  C   UNL     1      34.737 -15.608 -21.565  0.00  0.00    +0.034 C 
ATOM      9  C   UNL     1      34.212 -14.321 -21.528  0.00  0.00    +0.008 C 
ATOM     10  C   UNL     1      32.871 -14.133 -21.214  0.00  0.00    +0.091 C 
ATOM     11  C   UNL     1      32.104 -15.254 -20.947  0.00  0.00    +0.104 C 
ENDROOT
BRANCH   3  13
ATOM     12  O   UNL     1      35.201 -22.747 -19.520  0.00  0.00    -0.252 OA
ATOM     13  N   UNL     1      35.215 -20.435 -19.576  0.00  0.00    -0.289 N 
ATOM     14  N   UNL     1      35.859 -21.497 -17.645  0.00  0.00    -0.268 N 
ATOM     15  C   UNL     1      35.409 -21.675 -18.956  0.00  0.00    +0.304 C 
ATOM     16  H   UNL     1      35.402 -19.619 -19.061  0.00  0.00    +0.151 HD
ATOM     17  H   UNL     1      35.972 -20.564 -17.350  0.00  0.00    +0.156 HD
BRANCH  14  19
ATOM     18 BR   UNL     1      33.356 -23.145 -16.654  0.00  0.00    -0.048 Br
ATOM     19  C   UNL     1      36.170 -22.493 -16.690  0.00  0.00    +0.058 C 
ATOM     20  C   UNL     1      35.181 -23.305 -16.155  0.00  0.00    +0.048 C 
ATOM     21  C   UNL     1      37.495 -22.630 -16.308  0.00  0.00    +0.015 C 
ATOM     22  C   UNL     1      35.526 -24.276 -15.216  0.00  0.00    +0.008 C 
ATOM     23  C   UNL     1      37.840 -23.602 -15.368  0.00  0.00    +0.001 C 
ATOM     24  C   UNL     1      36.855 -24.425 -14.822  0.00  0.00    +0.001 C 
ENDBRANCH  14  19
ENDBRANCH   3  13
BRANCH  10  28
ATOM     25  F   UNL     1      30.984 -12.712 -21.600  0.00  0.00    -0.166 F 
ATOM     26  F   UNL     1      32.255 -12.222 -19.913  0.00  0.00    -0.166 F 
ATOM     27  F   UNL     1      32.960 -11.870 -21.941  0.00  0.00    -0.166 F 
ATOM     28  C   UNL     1      32.279 -12.769 -21.167  0.00  0.00    +0.420 C 
ENDBRANCH  10  28
TORSDOF 3
ENDMDL
MODEL 8
REMARK VINA RESULT:      -8.8      3.793      5.716
REMARK  Name = 9910486
REMARK  3 active torsions:
REMARK  status: ('A' for Active; 'I' for Inactive)
REMARK    1  A    between atoms: C_3  and  N_13
REMARK    2  A    between atoms: C_10  and  C_28
REMARK    3  A    between atoms: N_14  and  C_19
REMARK                            x       y       z     vdW  Elec       q    Type
REMARK                         _______ _______ _______ _____ _____    ______ ____
ROOT
ATOM      1  N   UNL     1      34.514 -16.972 -23.761  0.00  0.00    -0.291 N 
ATOM      2  N   UNL     1      35.841 -17.644 -21.875  0.00  0.00    -0.229 NA
ATOM      3  C   UNL     1      34.207 -14.893 -24.838  0.00  0.00    +0.094 C 
ATOM      4  C   UNL     1      33.683 -16.002 -25.740  0.00  0.00    +0.043 C 
ATOM      5  C   UNL     1      35.119 -15.642 -23.862  0.00  0.00    +0.112 C 
ATOM      6  C   UNL     1      33.497 -17.185 -24.788  0.00  0.00    +0.094 C 
ATOM      7  C   UNL     1      34.868 -17.914 -22.820  0.00  0.00    +0.132 C 
ATOM      8  C   UNL     1      34.227 -19.175 -22.822  0.00  0.00    +0.034 C 
ATOM      9  C   UNL     1      34.574 -20.136 -21.878  0.00  0.00    +0.008 C 
ATOM     10  C   UNL     1      35.554 -19.851 -20.933  0.00  0.00    +0.091 C 
ATOM     11  C   UNL     1      36.151 -18.603 -20.974  0.00  0.00    +0.104 C 
ENDROOT
BRANCH   3  13
ATOM     12  O   UNL     1      34.455 -12.865 -22.831  0.00  0.00    -0.252 OA
ATOM     13  N   UNL     1      33.128 -14.223 -24.151  0.00  0.00    -0.289 N 
ATOM     14  N   UNL     1      32.114 -12.772 -22.689  0.00  0.00    -0.268 N 
ATOM     15  C   UNL     1      33.337 -13.238 -23.178  0.00  0.00    +0.304 C 
ATOM     16  H   UNL     1      32.204 -14.471 -24.376  0.00  0.00    +0.151 HD
ATOM     17  H   UNL     1      31.308 -13.182 -23.078  0.00  0.00    +0.156 HD
BRANCH  14  19
ATOM     18 BR   UNL     1      32.517  -9.819 -23.727  0.00  0.00    -0.048 Br
ATOM     19  C   UNL     1      31.893 -11.783 -21.702  0.00  0.00    +0.058 C 
ATOM     20  C   UNL     1      32.029 -10.435 -21.998  0.00  0.00    +0.048 C 
ATOM     21  C   UNL     1      31.536 -12.206 -20.431  0.00  0.00    +0.015 C 
ATOM     22  C   UNL     1      31.804  -9.489 -20.999  0.00  0.00    +0.008 C 
ATOM     23  C   UNL     1      31.311 -11.259 -19.432  0.00  0.00    +0.001 C 
ATOM     24  C   UNL     1      31.445  -9.900 -19.716  0.00  0.00    +0.001 C 
ENDBRANCH  14  19
ENDBRANCH   3  13
BRANCH  10  28
ATOM     25  F   UNL     1      36.911 -20.420 -19.047  0.00  0.00    -0.166 F 
ATOM     26  F   UNL     1      34.913 -21.261 -19.110  0.00  0.00    -0.166 F 
ATOM     27  F   UNL     1      36.446 -22.005 -20.463  0.00  0.00    -0.166 F 
ATOM     28  C   UNL     1      35.946 -20.858 -19.911  0.00  0.00    +0.420 C 
ENDBRANCH  10  28
TORSDOF 3
ENDMDL
MODEL 9
REMARK VINA RESULT:      -8.8      4.472      6.533
REMARK  Name = 9910486
REMARK  3 active torsions:
REMARK  status: ('A' for Active; 'I' for Inactive)
REMARK    1  A    between atoms: C_3  and  N_13
REMARK    2  A    between atoms: C_10  and  C_28
REMARK    3  A    between atoms: N_14  and  C_19
REMARK                            x       y       z     vdW  Elec       q    Type
REMARK                         _______ _______ _______ _____ _____    ______ ____
ROOT
ATOM      1  N   UNL     1      34.844 -17.763 -23.665  0.00  0.00    -0.291 N 
ATOM      2  N   UNL     1      36.179 -18.124 -21.701  0.00  0.00    -0.229 NA
ATOM      3  C   UNL     1      34.489 -15.867 -25.028  0.00  0.00    +0.094 C 
ATOM      4  C   UNL     1      33.998 -17.108 -25.764  0.00  0.00    +0.043 C 
ATOM      5  C   UNL     1      35.414 -16.446 -23.953  0.00  0.00    +0.112 C 
ATOM      6  C   UNL     1      33.839 -18.147 -24.653  0.00  0.00    +0.094 C 
ATOM      7  C   UNL     1      35.219 -18.552 -22.599  0.00  0.00    +0.132 C 
ATOM      8  C   UNL     1      34.610 -19.817 -22.423  0.00  0.00    +0.034 C 
ATOM      9  C   UNL     1      34.978 -20.624 -21.351  0.00  0.00    +0.008 C 
ATOM     10  C   UNL     1      35.945 -20.182 -20.455  0.00  0.00    +0.091 C 
ATOM     11  C   UNL     1      36.510 -18.937 -20.672  0.00  0.00    +0.104 C 
ENDROOT
BRANCH   3  13
ATOM     12  O   UNL     1      34.651 -13.908 -22.945  0.00  0.00    -0.252 OA
ATOM     13  N   UNL     1      33.389 -15.136 -24.444  0.00  0.00    -0.289 N 
ATOM     14  N   UNL     1      32.321 -13.647 -23.060  0.00  0.00    -0.268 N 
ATOM     15  C   UNL     1      33.555 -14.191 -23.425  0.00  0.00    +0.304 C 
ATOM     16  H   UNL     1      32.480 -15.310 -24.778  0.00  0.00    +0.151 HD
ATOM     17  H   UNL     1      31.537 -13.989 -23.549  0.00  0.00    +0.156 HD
BRANCH  14  19
ATOM     18 BR   UNL     1      32.480 -14.733 -20.102  0.00  0.00    -0.048 Br
ATOM     19  C   UNL     1      32.060 -12.667 -22.075  0.00  0.00    +0.058 C 
ATOM     20  C   UNL     1      32.091 -12.983 -20.726  0.00  0.00    +0.048 C 
ATOM     21  C   UNL     1      31.773 -11.380 -22.504  0.00  0.00    +0.015 C 
ATOM     22  C   UNL     1      31.829 -11.989 -19.783  0.00  0.00    +0.008 C 
ATOM     23  C   UNL     1      31.510 -10.386 -21.561  0.00  0.00    +0.001 C 
ATOM     24  C   UNL     1      31.538 -10.691 -20.200  0.00  0.00    +0.001 C 
ENDBRANCH  14  19
ENDBRANCH   3  13
BRANCH  10  28
ATOM     25  F   UNL     1      36.978 -20.322 -18.301  0.00  0.00    -0.166 F 
ATOM     26  F   UNL     1      35.319 -21.665 -18.686  0.00  0.00    -0.166 F 
ATOM     27  F   UNL     1      37.238 -22.008 -19.651  0.00  0.00    -0.166 F 
ATOM     28  C   UNL     1      36.359 -21.022 -19.300  0.00  0.00    +0.420 C 
ENDBRANCH  10  28
TORSDOF 3
ENDMDL
