MODEL 1
REMARK VINA RESULT:      -8.6      0.000      0.000
REMARK  Name = 15541
REMARK  5 active torsions:
REMARK  status: ('A' for Active; 'I' for Inactive)
REMARK    1  A    between atoms: C_7  and  N_17
REMARK    2  A    between atoms: C_8  and  O_25
REMARK    3  A    between atoms: C_9  and  N_21
REMARK    4  A    between atoms: C_10  and  O_27
REMARK    5  A    between atoms: C_11  and  O_29
REMARK                            x       y       z     vdW  Elec       q    Type
REMARK                         _______ _______ _______ _____ _____    ______ ____
ROOT
ATOM      1  O   UNL     1      35.657 -24.434 -13.494  0.00  0.00    -0.327 OA
ATOM      2  O   UNL     1      36.795 -22.533 -15.217  0.00  0.00    -0.324 OA
ATOM      3  O   UNL     1      38.301 -24.327 -14.927  0.00  0.00    -0.329 OA
ATOM      4  O   UNL     1      37.572 -24.617 -10.979  0.00  0.00    -0.291 OA
ATOM      5  C   UNL     1      34.842 -23.678 -14.399  0.00  0.00    +0.131 C 
ATOM      6  C   UNL     1      35.685 -23.345 -15.631  0.00  0.00    +0.168 C 
ATOM      7  C   UNL     1      33.605 -24.494 -14.799  0.00  0.00    -0.006 C 
ATOM      8  C   UNL     1      34.879 -22.594 -16.695  0.00  0.00    +0.123 C 
ATOM      9  C   UNL     1      33.613 -23.386 -17.075  0.00  0.00    -0.006 C 
ATOM     10  C   UNL     1      32.762 -23.732 -15.838  0.00  0.00    +0.077 C 
ATOM     11  C   UNL     1      36.801 -23.688 -13.073  0.00  0.00    +0.291 C 
ATOM     12  C   UNL     1      37.637 -23.233 -14.282  0.00  0.00    +0.296 C 
ATOM     13  C   UNL     1      37.605 -24.644 -12.209  0.00  0.00    +0.209 C 
ATOM     14  C   UNL     1      39.195 -25.018 -14.052  0.00  0.00    +0.126 C 
ATOM     15  C   UNL     1      38.398 -25.696 -12.946  0.00  0.00    +0.099 C 
ATOM     16  C   UNL     1      39.956 -26.042 -14.881  0.00  0.00    +0.033 C 
ENDROOT
BRANCH   7  17
ATOM     17  N   UNL     1      32.797 -24.793 -13.613  0.00  0.00    +0.387 N 
ATOM     18  C   UNL     1      31.449 -25.176 -13.998  0.00  0.00    -0.105 C 
ATOM     19  H   UNL     1      32.753 -23.964 -13.021  0.00  0.00    -0.084 HD
ATOM     20  H   UNL     1      33.227 -25.567 -13.107  0.00  0.00    -0.084 HD
ENDBRANCH   7  17
BRANCH   9  21
ATOM     21  N   UNL     1      32.807 -22.628 -18.037  0.00  0.00    +0.387 N 
ATOM     22  C   UNL     1      33.561 -22.377 -19.252  0.00  0.00    -0.105 C 
ATOM     23  H   UNL     1      32.537 -21.737 -17.620  0.00  0.00    -0.084 HD
ATOM     24  H   UNL     1      31.976 -23.172 -18.271  0.00  0.00    -0.084 HD
ENDBRANCH   9  21
BRANCH   8  25
ATOM     25  O   UNL     1      35.719 -22.453 -17.843  0.00  0.00    -0.384 OA
ATOM     26  H   UNL     1      35.274 -21.901 -18.504  0.00  0.00    +0.210 HD
ENDBRANCH   8  25
BRANCH  10  27
ATOM     27  O   UNL     1      32.271 -22.527 -15.243  0.00  0.00    -0.388 OA
ATOM     28  H   UNL     1      31.574 -22.742 -14.603  0.00  0.00    +0.210 HD
ENDBRANCH  10  27
BRANCH  11  29
ATOM     29  O   UNL     1      36.448 -22.584 -12.249  0.00  0.00    -0.355 OA
ATOM     30  H   UNL     1      36.333 -22.886 -11.335  0.00  0.00    +0.213 HD
ENDBRANCH  11  29
TORSDOF 5
ENDMDL
MODEL 2
REMARK VINA RESULT:      -8.4     10.394     13.785
REMARK  Name = 15541
REMARK  5 active torsions:
REMARK  status: ('A' for Active; 'I' for Inactive)
REMARK    1  A    between atoms: C_7  and  N_17
REMARK    2  A    between atoms: C_8  and  O_25
REMARK    3  A    between atoms: C_9  and  N_21
REMARK    4  A    between atoms: C_10  and  O_27
REMARK    5  A    between atoms: C_11  and  O_29
REMARK                            x       y       z     vdW  Elec       q    Type
REMARK                         _______ _______ _______ _____ _____    ______ ____
ROOT
ATOM      1  O   UNL     1      33.811 -13.377 -22.572  0.00  0.00    -0.327 OA
ATOM      2  O   UNL     1      33.242 -14.560 -25.053  0.00  0.00    -0.324 OA
ATOM      3  O   UNL     1      34.304 -12.482 -25.403  0.00  0.00    -0.329 OA
ATOM      4  O   UNL     1      32.205 -10.649 -22.498  0.00  0.00    -0.291 OA
ATOM      5  C   UNL     1      33.861 -14.800 -22.739  0.00  0.00    +0.131 C 
ATOM      6  C   UNL     1      34.256 -15.094 -24.187  0.00  0.00    +0.168 C 
ATOM      7  C   UNL     1      34.884 -15.407 -21.769  0.00  0.00    -0.006 C 
ATOM      8  C   UNL     1      34.406 -16.595 -24.450  0.00  0.00    +0.123 C 
ATOM      9  C   UNL     1      35.401 -17.223 -23.456  0.00  0.00    -0.006 C 
ATOM     10  C   UNL     1      35.014 -16.924 -21.994  0.00  0.00    +0.077 C 
ATOM     11  C   UNL     1      32.840 -12.783 -23.438  0.00  0.00    +0.291 C 
ATOM     12  C   UNL     1      33.126 -13.132 -24.909  0.00  0.00    +0.296 C 
ATOM     13  C   UNL     1      32.973 -11.286 -23.218  0.00  0.00    +0.209 C 
ATOM     14  C   UNL     1      34.212 -11.058 -25.334  0.00  0.00    +0.126 C 
ATOM     15  C   UNL     1      34.159 -10.622 -23.876  0.00  0.00    +0.099 C 
ATOM     16  C   UNL     1      35.436 -10.479 -26.030  0.00  0.00    +0.033 C 
ENDROOT
BRANCH   7  17
ATOM     17  N   UNL     1      34.486 -15.133 -20.386  0.00  0.00    +0.387 N 
ATOM     18  C   UNL     1      33.042 -14.994 -20.288  0.00  0.00    -0.105 C 
ATOM     19  H   UNL     1      34.927 -14.268 -20.075  0.00  0.00    -0.084 HD
ATOM     20  H   UNL     1      34.781 -15.912 -19.797  0.00  0.00    -0.084 HD
ENDBRANCH   7  17
BRANCH   9  21
ATOM     21  N   UNL     1      35.483 -18.672 -23.662  0.00  0.00    +0.387 N 
ATOM     22  C   UNL     1      34.415 -19.126 -24.534  0.00  0.00    -0.105 C 
ATOM     23  H   UNL     1      35.405 -19.144 -22.761  0.00  0.00    -0.084 HD
ATOM     24  H   UNL     1      36.380 -18.892 -24.097  0.00  0.00    -0.084 HD
ENDBRANCH   9  21
BRANCH   8  25
ATOM     25  O   UNL     1      34.901 -16.745 -25.783  0.00  0.00    -0.384 OA
ATOM     26  H   UNL     1      35.858 -16.586 -25.793  0.00  0.00    +0.210 HD
ENDBRANCH   8  25
BRANCH  10  27
ATOM     27  O   UNL     1      33.761 -17.547 -21.695  0.00  0.00    -0.388 OA
ATOM     28  H   UNL     1      33.848 -18.080 -20.889  0.00  0.00    +0.210 HD
ENDBRANCH  10  27
BRANCH  11  29
ATOM     29  O   UNL     1      31.511 -13.137 -23.076  0.00  0.00    -0.355 OA
ATOM     30  H   UNL     1      31.013 -12.336 -22.851  0.00  0.00    +0.213 HD
ENDBRANCH  11  29
TORSDOF 5
ENDMDL
MODEL 3
REMARK VINA RESULT:      -8.1     11.349     14.874
REMARK  Name = 15541
REMARK  5 active torsions:
REMARK  status: ('A' for Active; 'I' for Inactive)
REMARK    1  A    between atoms: C_7  and  N_17
REMARK    2  A    between atoms: C_8  and  O_25
REMARK    3  A    between atoms: C_9  and  N_21
REMARK    4  A    between atoms: C_10  and  O_27
REMARK    5  A    between atoms: C_11  and  O_29
REMARK                            x       y       z     vdW  Elec       q    Type
REMARK                         _______ _______ _______ _____ _____    ______ ____
ROOT
ATOM      1  O   UNL     1      34.003 -13.309 -24.211  0.00  0.00    -0.327 OA
ATOM      2  O   UNL     1      31.781 -13.639 -22.529  0.00  0.00    -0.324 OA
ATOM      3  O   UNL     1      33.472 -15.159 -21.898  0.00  0.00    -0.329 OA
ATOM      4  O   UNL     1      34.407 -16.072 -25.705  0.00  0.00    -0.291 OA
ATOM      5  C   UNL     1      33.187 -12.191 -23.840  0.00  0.00    +0.131 C 
ATOM      6  C   UNL     1      32.607 -12.468 -22.452  0.00  0.00    +0.168 C 
ATOM      7  C   UNL     1      34.030 -10.908 -23.824  0.00  0.00    -0.006 C 
ATOM      8  C   UNL     1      31.772 -11.293 -21.932  0.00  0.00    +0.123 C 
ATOM      9  C   UNL     1      32.596  -9.992 -21.950  0.00  0.00    -0.006 C 
ATOM     10  C   UNL     1      33.190  -9.711 -23.343  0.00  0.00    +0.077 C 
ATOM     11  C   UNL     1      33.239 -14.516 -24.270  0.00  0.00    +0.291 C 
ATOM     12  C   UNL     1      32.543 -14.794 -22.926  0.00  0.00    +0.296 C 
ATOM     13  C   UNL     1      34.247 -15.612 -24.575  0.00  0.00    +0.209 C 
ATOM     14  C   UNL     1      34.213 -16.337 -22.223  0.00  0.00    +0.126 C 
ATOM     15  C   UNL     1      35.111 -16.058 -23.421  0.00  0.00    +0.099 C 
ATOM     16  C   UNL     1      35.038 -16.718 -21.002  0.00  0.00    +0.033 C 
ENDROOT
BRANCH   7  17
ATOM     17  N   UNL     1      34.566 -10.645 -25.162  0.00  0.00    +0.387 N 
ATOM     18  C   UNL     1      35.513  -9.543 -25.125  0.00  0.00    -0.105 C 
ATOM     19  H   UNL     1      33.799 -10.405 -25.790  0.00  0.00    -0.084 HD
ATOM     20  H   UNL     1      35.047 -11.480 -25.496  0.00  0.00    -0.084 HD
ENDBRANCH   7  17
BRANCH   9  21
ATOM     21  N   UNL     1      31.769  -8.859 -21.524  0.00  0.00    +0.387 N 
ATOM     22  C   UNL     1      32.388  -8.163 -20.409  0.00  0.00    -0.105 C 
ATOM     23  H   UNL     1      30.852  -9.202 -21.237  0.00  0.00    -0.084 HD
ATOM     24  H   UNL     1      31.673  -8.210 -22.305  0.00  0.00    -0.084 HD
ENDBRANCH   9  21
BRANCH   8  25
ATOM     25  O   UNL     1      31.394 -11.604 -20.588  0.00  0.00    -0.384 OA
ATOM     26  H   UNL     1      31.967 -11.122 -19.972  0.00  0.00    +0.210 HD
ENDBRANCH   8  25
BRANCH  10  27
ATOM     27  O   UNL     1      32.130  -9.481 -24.277  0.00  0.00    -0.388 OA
ATOM     28  H   UNL     1      31.332  -9.945 -23.982  0.00  0.00    +0.210 HD
ENDBRANCH  10  27
BRANCH  11  29
ATOM     29  O   UNL     1      32.303 -14.507 -25.340  0.00  0.00    -0.355 OA
ATOM     30  H   UNL     1      32.607 -13.896 -26.030  0.00  0.00    +0.213 HD
ENDBRANCH  11  29
TORSDOF 5
ENDMDL
MODEL 4
REMARK VINA RESULT:      -8.1      2.442      5.708
REMARK  Name = 15541
REMARK  5 active torsions:
REMARK  status: ('A' for Active; 'I' for Inactive)
REMARK    1  A    between atoms: C_7  and  N_17
REMARK    2  A    between atoms: C_8  and  O_25
REMARK    3  A    between atoms: C_9  and  N_21
REMARK    4  A    between atoms: C_10  and  O_27
REMARK    5  A    between atoms: C_11  and  O_29
REMARK                            x       y       z     vdW  Elec       q    Type
REMARK                         _______ _______ _______ _____ _____    ______ ____
ROOT
ATOM      1  O   UNL     1      34.729 -23.618 -13.637  0.00  0.00    -0.327 OA
ATOM      2  O   UNL     1      35.105 -25.937 -15.172  0.00  0.00    -0.324 OA
ATOM      3  O   UNL     1      34.202 -24.234 -16.535  0.00  0.00    -0.329 OA
ATOM      4  O   UNL     1      31.624 -23.001 -13.700  0.00  0.00    -0.291 OA
ATOM      5  C   UNL     1      35.829 -24.502 -13.381  0.00  0.00    +0.131 C 
ATOM      6  C   UNL     1      36.221 -25.165 -14.702  0.00  0.00    +0.168 C 
ATOM      7  C   UNL     1      37.013 -23.715 -12.802  0.00  0.00    -0.006 C 
ATOM      8  C   UNL     1      37.439 -26.081 -14.547  0.00  0.00    +0.123 C 
ATOM      9  C   UNL     1      38.621 -25.311 -13.930  0.00  0.00    -0.006 C 
ATOM     10  C   UNL     1      38.232 -24.633 -12.602  0.00  0.00    +0.077 C 
ATOM     11  C   UNL     1      33.596 -24.327 -14.143  0.00  0.00    +0.291 C 
ATOM     12  C   UNL     1      33.958 -25.103 -15.422  0.00  0.00    +0.296 C 
ATOM     13  C   UNL     1      32.563 -23.257 -14.454  0.00  0.00    +0.209 C 
ATOM     14  C   UNL     1      33.069 -23.425 -16.857  0.00  0.00    +0.126 C 
ATOM     15  C   UNL     1      32.793 -22.458 -15.714  0.00  0.00    +0.099 C 
ATOM     16  C   UNL     1      33.386 -22.673 -18.142  0.00  0.00    +0.033 C 
ENDROOT
BRANCH   7  17
ATOM     17  N   UNL     1      36.630 -23.098 -11.529  0.00  0.00    +0.387 N 
ATOM     18  C   UNL     1      35.767 -23.988 -10.770  0.00  0.00    -0.105 C 
ATOM     19  H   UNL     1      36.132 -22.228 -11.715  0.00  0.00    -0.084 HD
ATOM     20  H   UNL     1      37.472 -22.913 -10.985  0.00  0.00    -0.084 HD
ENDBRANCH   7  17
BRANCH   9  21
ATOM     21  N   UNL     1      39.759 -26.210 -13.714  0.00  0.00    +0.387 N 
ATOM     22  C   UNL     1      40.791 -25.978 -14.709  0.00  0.00    -0.105 C 
ATOM     23  H   UNL     1      39.440 -27.176 -13.780  0.00  0.00    -0.084 HD
ATOM     24  H   UNL     1      40.148 -26.031 -12.788  0.00  0.00    -0.084 HD
ENDBRANCH   9  21
BRANCH   8  25
ATOM     25  O   UNL     1      37.794 -26.538 -15.854  0.00  0.00    -0.384 OA
ATOM     26  H   UNL     1      38.758 -26.513 -15.955  0.00  0.00    +0.210 HD
ENDBRANCH   8  25
BRANCH  10  27
ATOM     27  O   UNL     1      37.905 -25.633 -11.632  0.00  0.00    -0.388 OA
ATOM     28  H   UNL     1      37.231 -25.289 -11.026  0.00  0.00    +0.210 HD
ENDBRANCH  10  27
BRANCH  11  29
ATOM     29  O   UNL     1      33.020 -25.186 -13.167  0.00  0.00    -0.355 OA
ATOM     30  H   UNL     1      33.630 -25.278 -12.418  0.00  0.00    +0.213 HD
ENDBRANCH  11  29
TORSDOF 5
ENDMDL
MODEL 5
REMARK VINA RESULT:      -8.0      2.004      3.924
REMARK  Name = 15541
REMARK  5 active torsions:
REMARK  status: ('A' for Active; 'I' for Inactive)
REMARK    1  A    between atoms: C_7  and  N_17
REMARK    2  A    between atoms: C_8  and  O_25
REMARK    3  A    between atoms: C_9  and  N_21
REMARK    4  A    between atoms: C_10  and  O_27
REMARK    5  A    between atoms: C_11  and  O_29
REMARK                            x       y       z     vdW  Elec       q    Type
REMARK                         _______ _______ _______ _____ _____    ______ ____
ROOT
ATOM      1  O   UNL     1      35.062 -24.118 -15.483  0.00  0.00    -0.327 OA
ATOM      2  O   UNL     1      33.679 -24.806 -13.140  0.00  0.00    -0.324 OA
ATOM      3  O   UNL     1      35.658 -23.653 -12.571  0.00  0.00    -0.329 OA
ATOM      4  O   UNL     1      37.863 -25.586 -15.328  0.00  0.00    -0.291 OA
ATOM      5  C   UNL     1      33.628 -24.143 -15.452  0.00  0.00    +0.131 C 
ATOM      6  C   UNL     1      33.179 -23.798 -14.031  0.00  0.00    +0.168 C 
ATOM      7  C   UNL     1      33.064 -23.127 -16.455  0.00  0.00    -0.006 C 
ATOM      8  C   UNL     1      31.654 -23.728 -13.911  0.00  0.00    +0.123 C 
ATOM      9  C   UNL     1      31.073 -22.741 -14.941  0.00  0.00    -0.006 C 
ATOM     10  C   UNL     1      31.528 -23.077 -16.374  0.00  0.00    +0.077 C 
ATOM     11  C   UNL     1      35.619 -25.080 -14.585  0.00  0.00    +0.291 C 
ATOM     12  C   UNL     1      35.118 -24.848 -13.148  0.00  0.00    +0.296 C 
ATOM     13  C   UNL     1      37.122 -24.869 -14.657  0.00  0.00    +0.209 C 
ATOM     14  C   UNL     1      37.085 -23.673 -12.505  0.00  0.00    +0.126 C 
ATOM     15  C   UNL     1      37.659 -23.668 -13.915  0.00  0.00    +0.099 C 
ATOM     16  C   UNL     1      37.532 -22.440 -11.732  0.00  0.00    +0.033 C 
ENDROOT
BRANCH   7  17
ATOM     17  N   UNL     1      33.488 -23.477 -17.814  0.00  0.00    +0.387 N 
ATOM     18  C   UNL     1      33.529 -22.293 -18.656  0.00  0.00    -0.105 C 
ATOM     19  H   UNL     1      32.828 -24.145 -18.209  0.00  0.00    -0.084 HD
ATOM     20  H   UNL     1      34.422 -23.884 -17.774  0.00  0.00    -0.084 HD
ENDBRANCH   7  17
BRANCH   9  21
ATOM     21  N   UNL     1      29.609 -22.735 -14.873  0.00  0.00    +0.387 N 
ATOM     22  C   UNL     1      29.038 -22.338 -16.148  0.00  0.00    -0.105 C 
ATOM     23  H   UNL     1      29.309 -22.078 -14.152  0.00  0.00    -0.084 HD
ATOM     24  H   UNL     1      29.286 -23.676 -14.646  0.00  0.00    -0.084 HD
ENDBRANCH   9  21
BRANCH   8  25
ATOM     25  O   UNL     1      31.353 -23.275 -12.589  0.00  0.00    -0.384 OA
ATOM     26  H   UNL     1      31.895 -22.497 -12.383  0.00  0.00    +0.210 HD
ENDBRANCH   8  25
BRANCH  10  27
ATOM     27  O   UNL     1      31.001 -24.351 -16.757  0.00  0.00    -0.388 OA
ATOM     28  H   UNL     1      30.394 -24.239 -17.505  0.00  0.00    +0.210 HD
ENDBRANCH  10  27
BRANCH  11  29
ATOM     29  O   UNL     1      35.370 -26.416 -15.005  0.00  0.00    -0.355 OA
ATOM     30  H   UNL     1      34.418 -26.597 -14.956  0.00  0.00    +0.213 HD
ENDBRANCH  11  29
TORSDOF 5
ENDMDL
MODEL 6
REMARK VINA RESULT:      -7.4     13.537     16.004
REMARK  Name = 15541
REMARK  5 active torsions:
REMARK  status: ('A' for Active; 'I' for Inactive)
REMARK    1  A    between atoms: C_7  and  N_17
REMARK    2  A    between atoms: C_8  and  O_25
REMARK    3  A    between atoms: C_9  and  N_21
REMARK    4  A    between atoms: C_10  and  O_27
REMARK    5  A    between atoms: C_11  and  O_29
REMARK                            x       y       z     vdW  Elec       q    Type
REMARK                         _______ _______ _______ _____ _____    ______ ____
ROOT
ATOM      1  O   UNL     1      32.384 -12.413 -22.976  0.00  0.00    -0.327 OA
ATOM      2  O   UNL     1      34.410 -10.744 -23.968  0.00  0.00    -0.324 OA
ATOM      3  O   UNL     1      33.545 -12.057 -25.729  0.00  0.00    -0.329 OA
ATOM      4  O   UNL     1      33.354 -15.386 -23.474  0.00  0.00    -0.291 OA
ATOM      5  C   UNL     1      32.587 -11.099 -22.438  0.00  0.00    +0.131 C 
ATOM      6  C   UNL     1      33.143 -10.212 -23.553  0.00  0.00    +0.168 C 
ATOM      7  C   UNL     1      31.259 -10.535 -21.913  0.00  0.00    -0.006 C 
ATOM      8  C   UNL     1      33.330  -8.762 -23.095  0.00  0.00    +0.123 C 
ATOM      9  C   UNL     1      32.012  -8.198 -22.530  0.00  0.00    -0.006 C 
ATOM     10  C   UNL     1      31.442  -9.092 -21.411  0.00  0.00    +0.077 C 
ATOM     11  C   UNL     1      33.610 -12.982 -23.441  0.00  0.00    +0.291 C 
ATOM     12  C   UNL     1      34.273 -12.077 -24.495  0.00  0.00    +0.296 C 
ATOM     13  C   UNL     1      33.221 -14.313 -24.062  0.00  0.00    +0.209 C 
ATOM     14  C   UNL     1      33.433 -13.353 -26.320  0.00  0.00    +0.126 C 
ATOM     15  C   UNL     1      32.580 -14.245 -25.427  0.00  0.00    +0.099 C 
ATOM     16  C   UNL     1      32.793 -13.184 -27.691  0.00  0.00    +0.033 C 
ENDROOT
BRANCH   7  17
ATOM     17  N   UNL     1      30.745 -11.385 -20.835  0.00  0.00    +0.387 N 
ATOM     18  C   UNL     1      31.839 -12.031 -20.130  0.00  0.00    -0.105 C 
ATOM     19  H   UNL     1      30.135 -12.098 -21.233  0.00  0.00    -0.084 HD
ATOM     20  H   UNL     1      30.227 -10.804 -20.176  0.00  0.00    -0.084 HD
ENDBRANCH   7  17
BRANCH   9  21
ATOM     21  N   UNL     1      32.215  -6.837 -22.024  0.00  0.00    +0.387 N 
ATOM     22  C   UNL     1      31.112  -5.976 -22.413  0.00  0.00    -0.105 C 
ATOM     23  H   UNL     1      33.084  -6.463 -22.406  0.00  0.00    -0.084 HD
ATOM     24  H   UNL     1      32.265  -6.869 -21.005  0.00  0.00    -0.084 HD
ENDBRANCH   9  21
BRANCH   8  25
ATOM     25  O   UNL     1      33.723  -8.003 -24.241  0.00  0.00    -0.384 OA
ATOM     26  H   UNL     1      33.057  -7.322 -24.423  0.00  0.00    +0.210 HD
ENDBRANCH   8  25
BRANCH  10  27
ATOM     27  O   UNL     1      32.341  -9.097 -20.298  0.00  0.00    -0.388 OA
ATOM     28  H   UNL     1      33.249  -8.974 -20.615  0.00  0.00    +0.210 HD
ENDBRANCH  10  27
BRANCH  11  29
ATOM     29  O   UNL     1      34.506 -13.270 -22.375  0.00  0.00    -0.355 OA
ATOM     30  H   UNL     1      34.416 -14.202 -22.119  0.00  0.00    +0.213 HD
ENDBRANCH  11  29
TORSDOF 5
ENDMDL
MODEL 7
REMARK VINA RESULT:      -7.2      1.798      3.782
REMARK  Name = 15541
REMARK  5 active torsions:
REMARK  status: ('A' for Active; 'I' for Inactive)
REMARK    1  A    between atoms: C_7  and  N_17
REMARK    2  A    between atoms: C_8  and  O_25
REMARK    3  A    between atoms: C_9  and  N_21
REMARK    4  A    between atoms: C_10  and  O_27
REMARK    5  A    between atoms: C_11  and  O_29
REMARK                            x       y       z     vdW  Elec       q    Type
REMARK                         _______ _______ _______ _____ _____    ______ ____
ROOT
ATOM      1  O   UNL     1      36.455 -23.583 -15.655  0.00  0.00    -0.327 OA
ATOM      2  O   UNL     1      34.454 -25.155 -14.471  0.00  0.00    -0.324 OA
ATOM      3  O   UNL     1      35.682 -24.051 -12.784  0.00  0.00    -0.329 OA
ATOM      4  O   UNL     1      39.217 -24.711 -14.593  0.00  0.00    -0.291 OA
ATOM      5  C   UNL     1      35.187 -23.770 -16.297  0.00  0.00    +0.131 C 
ATOM      6  C   UNL     1      34.130 -23.967 -15.210  0.00  0.00    +0.168 C 
ATOM      7  C   UNL     1      34.850 -22.544 -17.159  0.00  0.00    -0.006 C 
ATOM      8  C   UNL     1      32.721 -24.105 -15.796  0.00  0.00    +0.123 C 
ATOM      9  C   UNL     1      32.387 -22.899 -16.694  0.00  0.00    -0.006 C 
ATOM     10  C   UNL     1      33.452 -22.689 -17.788  0.00  0.00    +0.077 C 
ATOM     11  C   UNL     1      36.816 -24.724 -14.872  0.00  0.00    +0.291 C 
ATOM     12  C   UNL     1      35.734 -25.037 -13.823  0.00  0.00    +0.296 C 
ATOM     13  C   UNL     1      38.117 -24.341 -14.186  0.00  0.00    +0.209 C 
ATOM     14  C   UNL     1      36.917 -23.939 -12.073  0.00  0.00    +0.126 C 
ATOM     15  C   UNL     1      37.994 -23.405 -13.008  0.00  0.00    +0.099 C 
ATOM     16  C   UNL     1      36.694 -22.993 -10.902  0.00  0.00    +0.033 C 
ENDROOT
BRANCH   7  17
ATOM     17  N   UNL     1      35.861 -22.375 -18.206  0.00  0.00    +0.387 N 
ATOM     18  C   UNL     1      35.412 -21.413 -19.198  0.00  0.00    -0.105 C 
ATOM     19  H   UNL     1      36.025 -23.273 -18.661  0.00  0.00    -0.084 HD
ATOM     20  H   UNL     1      36.723 -22.032 -17.782  0.00  0.00    -0.084 HD
ENDBRANCH   7  17
BRANCH   9  21
ATOM     21  N   UNL     1      31.069 -23.073 -17.312  0.00  0.00    +0.387 N 
ATOM     22  C   UNL     1      30.033 -22.482 -16.482  0.00  0.00    -0.105 C 
ATOM     23  H   UNL     1      30.880 -24.069 -17.425  0.00  0.00    -0.084 HD
ATOM     24  H   UNL     1      31.067 -22.609 -18.220  0.00  0.00    -0.084 HD
ENDBRANCH   9  21
BRANCH   8  25
ATOM     25  O   UNL     1      31.808 -24.151 -14.696  0.00  0.00    -0.384 OA
ATOM     26  H   UNL     1      31.996 -24.931 -14.152  0.00  0.00    +0.210 HD
ENDBRANCH   8  25
BRANCH  10  27
ATOM     27  O   UNL     1      33.456 -23.812 -18.674  0.00  0.00    -0.388 OA
ATOM     28  H   UNL     1      32.549 -24.133 -18.794  0.00  0.00    +0.210 HD
ENDBRANCH  10  27
BRANCH  11  29
ATOM     29  O   UNL     1      37.094 -25.862 -15.678  0.00  0.00    -0.355 OA
ATOM     30  H   UNL     1      38.028 -26.106 -15.582  0.00  0.00    +0.213 HD
ENDBRANCH  11  29
TORSDOF 5
ENDMDL
MODEL 8
REMARK VINA RESULT:      -6.9      2.246      6.669
REMARK  Name = 15541
REMARK  5 active torsions:
REMARK  status: ('A' for Active; 'I' for Inactive)
REMARK    1  A    between atoms: C_7  and  N_17
REMARK    2  A    between atoms: C_8  and  O_25
REMARK    3  A    between atoms: C_9  and  N_21
REMARK    4  A    between atoms: C_10  and  O_27
REMARK    5  A    between atoms: C_11  and  O_29
REMARK                            x       y       z     vdW  Elec       q    Type
REMARK                         _______ _______ _______ _____ _____    ______ ____
ROOT
ATOM      1  O   UNL     1      31.762 -23.218 -15.952  0.00  0.00    -0.327 OA
ATOM      2  O   UNL     1      31.983 -23.599 -13.180  0.00  0.00    -0.324 OA
ATOM      3  O   UNL     1      30.251 -24.964 -14.021  0.00  0.00    -0.329 OA
ATOM      4  O   UNL     1      28.848 -22.090 -16.466  0.00  0.00    -0.291 OA
ATOM      5  C   UNL     1      33.036 -23.152 -15.298  0.00  0.00    +0.131 C 
ATOM      6  C   UNL     1      32.992 -24.079 -14.081  0.00  0.00    +0.168 C 
ATOM      7  C   UNL     1      34.146 -23.588 -16.265  0.00  0.00    -0.006 C 
ATOM      8  C   UNL     1      34.338 -24.134 -13.351  0.00  0.00    +0.123 C 
ATOM      9  C   UNL     1      35.466 -24.531 -14.322  0.00  0.00    -0.006 C 
ATOM     10  C   UNL     1      35.511 -23.607 -15.554  0.00  0.00    +0.077 C 
ATOM     11  C   UNL     1      30.708 -22.785 -15.088  0.00  0.00    +0.291 C 
ATOM     12  C   UNL     1      30.680 -23.616 -13.793  0.00  0.00    +0.296 C 
ATOM     13  C   UNL     1      29.429 -23.002 -15.878  0.00  0.00    +0.209 C 
ATOM     14  C   UNL     1      28.936 -25.033 -14.576  0.00  0.00    +0.126 C 
ATOM     15  C   UNL     1      28.943 -24.428 -15.974  0.00  0.00    +0.099 C 
ATOM     16  C   UNL     1      28.527 -26.498 -14.620  0.00  0.00    +0.033 C 
ENDROOT
BRANCH   7  17
ATOM     17  N   UNL     1      34.188 -22.683 -17.418  0.00  0.00    +0.387 N 
ATOM     18  C   UNL     1      33.832 -23.392 -18.636  0.00  0.00    -0.105 C 
ATOM     19  H   UNL     1      35.130 -22.306 -17.513  0.00  0.00    -0.084 HD
ATOM     20  H   UNL     1      33.519 -21.928 -17.269  0.00  0.00    -0.084 HD
ENDBRANCH   7  17
BRANCH   9  21
ATOM     21  N   UNL     1      36.761 -24.508 -13.636  0.00  0.00    +0.387 N 
ATOM     22  C   UNL     1      37.772 -25.189 -14.426  0.00  0.00    -0.105 C 
ATOM     23  H   UNL     1      36.671 -24.973 -12.733  0.00  0.00    -0.084 HD
ATOM     24  H   UNL     1      37.046 -23.537 -13.503  0.00  0.00    -0.084 HD
ENDBRANCH   9  21
BRANCH   8  25
ATOM     25  O   UNL     1      34.222 -25.120 -12.322  0.00  0.00    -0.384 OA
ATOM     26  H   UNL     1      35.104 -25.446 -12.085  0.00  0.00    +0.210 HD
ENDBRANCH   8  25
BRANCH  10  27
ATOM     27  O   UNL     1      35.839 -22.276 -15.143  0.00  0.00    -0.388 OA
ATOM     28  H   UNL     1      35.197 -21.653 -15.518  0.00  0.00    +0.210 HD
ENDBRANCH  10  27
BRANCH  11  29
ATOM     29  O   UNL     1      30.787 -21.393 -14.803  0.00  0.00    -0.355 OA
ATOM     30  H   UNL     1      30.100 -20.922 -15.301  0.00  0.00    +0.213 HD
ENDBRANCH  11  29
TORSDOF 5
ENDMDL
MODEL 9
REMARK VINA RESULT:      -6.6     14.144     17.721
REMARK  Name = 15541
REMARK  5 active torsions:
REMARK  status: ('A' for Active; 'I' for Inactive)
REMARK    1  A    between atoms: C_7  and  N_17
REMARK    2  A    between atoms: C_8  and  O_25
REMARK    3  A    between atoms: C_9  and  N_21
REMARK    4  A    between atoms: C_10  and  O_27
REMARK    5  A    between atoms: C_11  and  O_29
REMARK                            x       y       z     vdW  Elec       q    Type
REMARK                         _______ _______ _______ _____ _____    ______ ____
ROOT
ATOM      1  O   UNL     1      33.767  -8.915 -24.494  0.00  0.00    -0.327 OA
ATOM      2  O   UNL     1      32.956  -8.782 -21.810  0.00  0.00    -0.324 OA
ATOM      3  O   UNL     1      31.868  -7.087 -23.041  0.00  0.00    -0.329 OA
ATOM      4  O   UNL     1      35.175  -6.153 -25.137  0.00  0.00    -0.291 OA
ATOM      5  C   UNL     1      33.637 -10.104 -23.703  0.00  0.00    +0.131 C 
ATOM      6  C   UNL     1      32.543  -9.862 -22.661  0.00  0.00    +0.168 C 
ATOM      7  C   UNL     1      33.271 -11.294 -24.600  0.00  0.00    -0.006 C 
ATOM      8  C   UNL     1      32.278 -11.105 -21.806  0.00  0.00    +0.123 C 
ATOM      9  C   UNL     1      31.948 -12.317 -22.699  0.00  0.00    -0.006 C 
ATOM     10  C   UNL     1      33.043 -12.562 -23.756  0.00  0.00    +0.077 C 
ATOM     11  C   UNL     1      34.142  -7.793 -23.692  0.00  0.00    +0.291 C 
ATOM     12  C   UNL     1      33.129  -7.563 -22.557  0.00  0.00    +0.296 C 
ATOM     13  C   UNL     1      34.144  -6.607 -24.642  0.00  0.00    +0.209 C 
ATOM     14  C   UNL     1      31.982  -5.847 -23.741  0.00  0.00    +0.126 C 
ATOM     15  C   UNL     1      32.789  -6.055 -25.016  0.00  0.00    +0.099 C 
ATOM     16  C   UNL     1      30.575  -5.363 -24.061  0.00  0.00    +0.033 C 
ENDROOT
BRANCH   7  17
ATOM     17  N   UNL     1      34.334 -11.526 -25.582  0.00  0.00    +0.387 N 
ATOM     18  C   UNL     1      33.879 -12.436 -26.620  0.00  0.00    -0.105 C 
ATOM     19  H   UNL     1      35.142 -11.931 -25.112  0.00  0.00    -0.084 HD
ATOM     20  H   UNL     1      34.585 -10.636 -26.013  0.00  0.00    -0.084 HD
ENDBRANCH   7  17
BRANCH   9  21
ATOM     21  N   UNL     1      31.771 -13.520 -21.881  0.00  0.00    +0.387 N 
ATOM     22  C   UNL     1      32.588 -13.450 -20.682  0.00  0.00    -0.105 C 
ATOM     23  H   UNL     1      32.042 -14.339 -22.424  0.00  0.00    -0.084 HD
ATOM     24  H   UNL     1      30.790 -13.589 -21.606  0.00  0.00    -0.084 HD
ENDBRANCH   9  21
BRANCH   8  25
ATOM     25  O   UNL     1      31.159 -10.811 -20.966  0.00  0.00    -0.384 OA
ATOM     26  H   UNL     1      30.918 -11.602 -20.459  0.00  0.00    +0.210 HD
ENDBRANCH   8  25
BRANCH  10  27
ATOM     27  O   UNL     1      34.267 -12.913 -23.105  0.00  0.00    -0.388 OA
ATOM     28  H   UNL     1      34.680 -13.657 -23.571  0.00  0.00    +0.210 HD
ENDBRANCH  10  27
BRANCH  11  29
ATOM     29  O   UNL     1      35.464  -7.915 -23.183  0.00  0.00    -0.355 OA
ATOM     30  H   UNL     1      35.577  -8.793 -22.785  0.00  0.00    +0.213 HD
ENDBRANCH  11  29
TORSDOF 5
ENDMDL
