MODEL 1
REMARK VINA RESULT:      -6.8      0.000      0.000
REMARK  Name = 2256
REMARK  2 active torsions:
REMARK  status: ('A' for Active; 'I' for Inactive)
REMARK    1  A    between atoms: N_2  and  C_12
REMARK    2  A    between atoms: N_3  and  C_15
REMARK                            x       y       z     vdW  Elec       q    Type
REMARK                         _______ _______ _______ _____ _____    ______ ____
ROOT
ATOM      1 CL   UNL     1      34.624 -22.345 -19.515  0.00  0.00    +0.026 Cl
ATOM      2  N   UNL     1      30.524 -22.906 -16.804  0.00  0.00    -0.259 N 
ATOM      3  N   UNL     1      34.661 -23.828 -14.795  0.00  0.00    -0.258 N 
ATOM      4  N   UNL     1      32.577 -23.374 -15.772  0.00  0.00    -0.247 NA
ATOM      5  N   UNL     1      32.489 -22.653 -18.058  0.00  0.00    -0.249 NA
ATOM      6  N   UNL     1      34.605 -23.124 -17.030  0.00  0.00    -0.249 NA
ATOM      7  C   UNL     1      31.904 -22.980 -16.881  0.00  0.00    +0.221 C 
ATOM      8  C   UNL     1      33.910 -23.422 -15.921  0.00  0.00    +0.221 C 
ATOM      9  C   UNL     1      33.828 -22.747 -18.059  0.00  0.00    +0.227 C 
ATOM     10  H   UNL     1      30.029 -22.619 -17.606  0.00  0.00    +0.160 HD
ATOM     11  H   UNL     1      35.641 -23.872 -14.873  0.00  0.00    +0.160 HD
ENDROOT
BRANCH   2  12
ATOM     12  C   UNL     1      29.769 -23.226 -15.612  0.00  0.00    +0.080 C 
ATOM     13  C   UNL     1      29.393 -24.702 -15.638  0.00  0.00    +0.022 C 
ATOM     14  C   UNL     1      28.532 -22.339 -15.540  0.00  0.00    +0.022 C 
ENDBRANCH   2  12
BRANCH   3  15
ATOM     15  C   UNL     1      34.058 -24.175 -13.546  0.00  0.00    +0.099 C 
ATOM     16  C   UNL     1      35.074 -24.178 -12.422  0.00  0.00    +0.024 C 
ENDBRANCH   3  15
TORSDOF 2
ENDMDL
MODEL 2
REMARK VINA RESULT:      -6.8      2.402      5.260
REMARK  Name = 2256
REMARK  2 active torsions:
REMARK  status: ('A' for Active; 'I' for Inactive)
REMARK    1  A    between atoms: N_2  and  C_12
REMARK    2  A    between atoms: N_3  and  C_15
REMARK                            x       y       z     vdW  Elec       q    Type
REMARK                         _______ _______ _______ _____ _____    ______ ____
ROOT
ATOM      1 CL   UNL     1      29.689 -23.015 -15.289  0.00  0.00    +0.026 Cl
ATOM      2  N   UNL     1      34.470 -24.179 -14.780  0.00  0.00    -0.259 N 
ATOM      3  N   UNL     1      33.051 -22.345 -18.857  0.00  0.00    -0.258 N 
ATOM      4  N   UNL     1      33.791 -23.263 -16.829  0.00  0.00    -0.247 NA
ATOM      5  N   UNL     1      32.211 -23.616 -15.059  0.00  0.00    -0.249 NA
ATOM      6  N   UNL     1      31.485 -22.678 -17.144  0.00  0.00    -0.249 NA
ATOM      7  C   UNL     1      33.461 -23.671 -15.579  0.00  0.00    +0.221 C 
ATOM      8  C   UNL     1      32.762 -22.784 -17.546  0.00  0.00    +0.221 C 
ATOM      9  C   UNL     1      31.284 -23.113 -15.889  0.00  0.00    +0.227 C 
ATOM     10  H   UNL     1      34.238 -24.475 -13.870  0.00  0.00    +0.160 HD
ATOM     11  H   UNL     1      32.317 -21.987 -19.407  0.00  0.00    +0.160 HD
ENDROOT
BRANCH   2  12
ATOM     12  C   UNL     1      35.848 -24.297 -15.206  0.00  0.00    +0.080 C 
ATOM     13  C   UNL     1      36.306 -25.738 -15.029  0.00  0.00    +0.022 C 
ATOM     14  C   UNL     1      36.713 -23.336 -14.401  0.00  0.00    +0.022 C 
ENDBRANCH   2  12
BRANCH   3  15
ATOM     15  C   UNL     1      34.364 -22.396 -19.420  0.00  0.00    +0.099 C 
ATOM     16  C   UNL     1      34.851 -21.019 -19.819  0.00  0.00    +0.024 C 
ENDBRANCH   3  15
TORSDOF 2
ENDMDL
MODEL 3
REMARK VINA RESULT:      -6.7     10.461     11.531
REMARK  Name = 2256
REMARK  2 active torsions:
REMARK  status: ('A' for Active; 'I' for Inactive)
REMARK    1  A    between atoms: N_2  and  C_12
REMARK    2  A    between atoms: N_3  and  C_15
REMARK                            x       y       z     vdW  Elec       q    Type
REMARK                         _______ _______ _______ _____ _____    ______ ____
ROOT
ATOM      1 CL   UNL     1      32.963 -13.279 -27.243  0.00  0.00    +0.026 Cl
ATOM      2  N   UNL     1      33.088 -14.292 -22.402  0.00  0.00    -0.259 N 
ATOM      3  N   UNL     1      34.512 -17.603 -25.403  0.00  0.00    -0.258 N 
ATOM      4  N   UNL     1      33.807 -15.967 -23.878  0.00  0.00    -0.247 NA
ATOM      5  N   UNL     1      33.041 -13.849 -24.704  0.00  0.00    -0.249 NA
ATOM      6  N   UNL     1      33.770 -15.543 -26.239  0.00  0.00    -0.249 NA
ATOM      7  C   UNL     1      33.318 -14.715 -23.699  0.00  0.00    +0.221 C 
ATOM      8  C   UNL     1      34.004 -16.308 -25.161  0.00  0.00    +0.221 C 
ATOM      9  C   UNL     1      33.289 -14.326 -25.934  0.00  0.00    +0.227 C 
ATOM     10  H   UNL     1      32.735 -13.383 -22.265  0.00  0.00    +0.160 HD
ATOM     11  H   UNL     1      34.668 -17.882 -26.335  0.00  0.00    +0.160 HD
ENDROOT
BRANCH   2  12
ATOM     12  C   UNL     1      33.337 -15.111 -21.236  0.00  0.00    +0.080 C 
ATOM     13  C   UNL     1      32.269 -14.830 -20.187  0.00  0.00    +0.022 C 
ATOM     14  C   UNL     1      34.732 -14.820 -20.698  0.00  0.00    +0.022 C 
ENDBRANCH   2  12
BRANCH   3  15
ATOM     15  C   UNL     1      34.809 -18.528 -24.354  0.00  0.00    +0.099 C 
ATOM     16  C   UNL     1      34.873 -19.951 -24.871  0.00  0.00    +0.024 C 
ENDBRANCH   3  15
TORSDOF 2
ENDMDL
MODEL 4
REMARK VINA RESULT:      -6.5     10.640     11.700
REMARK  Name = 2256
REMARK  2 active torsions:
REMARK  status: ('A' for Active; 'I' for Inactive)
REMARK    1  A    between atoms: N_2  and  C_12
REMARK    2  A    between atoms: N_3  and  C_15
REMARK                            x       y       z     vdW  Elec       q    Type
REMARK                         _______ _______ _______ _____ _____    ______ ____
ROOT
ATOM      1 CL   UNL     1      33.191 -13.180 -27.368  0.00  0.00    +0.026 Cl
ATOM      2  N   UNL     1      34.407 -17.492 -25.271  0.00  0.00    -0.259 N 
ATOM      3  N   UNL     1      32.815 -14.050 -22.512  0.00  0.00    -0.258 N 
ATOM      4  N   UNL     1      33.613 -15.790 -23.866  0.00  0.00    -0.247 NA
ATOM      5  N   UNL     1      33.823 -15.434 -26.229  0.00  0.00    -0.249 NA
ATOM      6  N   UNL     1      33.007 -13.673 -24.817  0.00  0.00    -0.249 NA
ATOM      7  C   UNL     1      33.934 -16.201 -25.118  0.00  0.00    +0.221 C 
ATOM      8  C   UNL     1      33.163 -14.528 -23.794  0.00  0.00    +0.221 C 
ATOM      9  C   UNL     1      33.357 -14.195 -26.005  0.00  0.00    +0.227 C 
ATOM     10  H   UNL     1      34.641 -17.797 -26.178  0.00  0.00    +0.160 HD
ATOM     11  H   UNL     1      32.480 -13.128 -22.427  0.00  0.00    +0.160 HD
ENDROOT
BRANCH   2  12
ATOM     12  C   UNL     1      34.578 -18.419 -24.173  0.00  0.00    +0.080 C 
ATOM     13  C   UNL     1      35.768 -17.984 -23.329  0.00  0.00    +0.022 C 
ATOM     14  C   UNL     1      34.772 -19.827 -24.721  0.00  0.00    +0.022 C 
ENDBRANCH   2  12
BRANCH   3  15
ATOM     15  C   UNL     1      32.926 -14.847 -21.330  0.00  0.00    +0.099 C 
ATOM     16  C   UNL     1      34.333 -14.811 -20.768  0.00  0.00    +0.024 C 
ENDBRANCH   3  15
TORSDOF 2
ENDMDL
MODEL 5
REMARK VINA RESULT:      -6.5     13.281     14.698
REMARK  Name = 2256
REMARK  2 active torsions:
REMARK  status: ('A' for Active; 'I' for Inactive)
REMARK    1  A    between atoms: N_2  and  C_12
REMARK    2  A    between atoms: N_3  and  C_15
REMARK                            x       y       z     vdW  Elec       q    Type
REMARK                         _______ _______ _______ _____ _____    ______ ____
ROOT
ATOM      1 CL   UNL     1      34.756  -7.264 -24.156  0.00  0.00    +0.026 Cl
ATOM      2  N   UNL     1      33.976 -12.138 -24.494  0.00  0.00    -0.259 N 
ATOM      3  N   UNL     1      31.562  -9.718 -21.282  0.00  0.00    -0.258 N 
ATOM      4  N   UNL     1      32.753 -10.955 -22.880  0.00  0.00    -0.247 NA
ATOM      5  N   UNL     1      34.320  -9.826 -24.303  0.00  0.00    -0.249 NA
ATOM      6  N   UNL     1      33.085  -8.588 -22.661  0.00  0.00    -0.249 NA
ATOM      7  C   UNL     1      33.675 -10.938 -23.874  0.00  0.00    +0.221 C 
ATOM      8  C   UNL     1      32.514  -9.756 -22.325  0.00  0.00    +0.221 C 
ATOM      9  C   UNL     1      33.978  -8.700 -23.658  0.00  0.00    +0.227 C 
ATOM     10  H   UNL     1      34.642 -12.132 -25.219  0.00  0.00    +0.160 HD
ATOM     11  H   UNL     1      31.364  -8.853 -20.856  0.00  0.00    +0.160 HD
ENDROOT
BRANCH   2  12
ATOM     12  C   UNL     1      33.365 -13.400 -24.138  0.00  0.00    +0.080 C 
ATOM     13  C   UNL     1      34.314 -14.181 -23.239  0.00  0.00    +0.022 C 
ATOM     14  C   UNL     1      33.031 -14.179 -25.403  0.00  0.00    +0.022 C 
ENDBRANCH   2  12
BRANCH   3  15
ATOM     15  C   UNL     1      30.872 -10.881 -20.819  0.00  0.00    +0.099 C 
ATOM     16  C   UNL     1      31.487 -11.419 -19.543  0.00  0.00    +0.024 C 
ENDBRANCH   3  15
TORSDOF 2
ENDMDL
MODEL 6
REMARK VINA RESULT:      -6.5      1.410      4.457
REMARK  Name = 2256
REMARK  2 active torsions:
REMARK  status: ('A' for Active; 'I' for Inactive)
REMARK    1  A    between atoms: N_2  and  C_12
REMARK    2  A    between atoms: N_3  and  C_15
REMARK                            x       y       z     vdW  Elec       q    Type
REMARK                         _______ _______ _______ _____ _____    ______ ____
ROOT
ATOM      1 CL   UNL     1      33.685 -21.665 -19.881  0.00  0.00    +0.026 Cl
ATOM      2  N   UNL     1      35.708 -23.525 -15.767  0.00  0.00    -0.259 N 
ATOM      3  N   UNL     1      31.032 -23.511 -16.135  0.00  0.00    -0.258 N 
ATOM      4  N   UNL     1      33.368 -23.533 -15.922  0.00  0.00    -0.247 NA
ATOM      5  N   UNL     1      34.713 -22.650 -17.702  0.00  0.00    -0.249 NA
ATOM      6  N   UNL     1      32.321 -22.644 -17.890  0.00  0.00    -0.249 NA
ATOM      7  C   UNL     1      34.563 -23.227 -16.485  0.00  0.00    +0.221 C 
ATOM      8  C   UNL     1      32.303 -23.214 -16.675  0.00  0.00    +0.221 C 
ATOM      9  C   UNL     1      33.561 -22.390 -18.340  0.00  0.00    +0.227 C 
ATOM     10  H   UNL     1      36.580 -23.308 -16.171  0.00  0.00    +0.160 HD
ATOM     11  H   UNL     1      30.232 -23.290 -16.664  0.00  0.00    +0.160 HD
ENDROOT
BRANCH   2  12
ATOM     12  C   UNL     1      35.696 -24.140 -14.458  0.00  0.00    +0.080 C 
ATOM     13  C   UNL     1      36.453 -23.252 -13.480  0.00  0.00    +0.022 C 
ATOM     14  C   UNL     1      36.316 -25.529 -14.541  0.00  0.00    +0.022 C 
ENDBRANCH   2  12
BRANCH   3  15
ATOM     15  C   UNL     1      30.857 -24.120 -14.853  0.00  0.00    +0.099 C 
ATOM     16  C   UNL     1      30.069 -25.410 -14.955  0.00  0.00    +0.024 C 
ENDBRANCH   3  15
TORSDOF 2
ENDMDL
MODEL 7
REMARK VINA RESULT:      -6.4      2.319      3.985
REMARK  Name = 2256
REMARK  2 active torsions:
REMARK  status: ('A' for Active; 'I' for Inactive)
REMARK    1  A    between atoms: N_2  and  C_12
REMARK    2  A    between atoms: N_3  and  C_15
REMARK                            x       y       z     vdW  Elec       q    Type
REMARK                         _______ _______ _______ _____ _____    ______ ____
ROOT
ATOM      1 CL   UNL     1      37.096 -23.625 -14.141  0.00  0.00    +0.026 Cl
ATOM      2  N   UNL     1      32.200 -24.127 -14.637  0.00  0.00    -0.259 N 
ATOM      3  N   UNL     1      34.640 -22.442 -18.270  0.00  0.00    -0.258 N 
ATOM      4  N   UNL     1      33.393 -23.283 -16.471  0.00  0.00    -0.247 NA
ATOM      5  N   UNL     1      34.522 -23.874 -14.438  0.00  0.00    -0.249 NA
ATOM      6  N   UNL     1      35.770 -23.012 -16.297  0.00  0.00    -0.249 NA
ATOM      7  C   UNL     1      33.407 -23.750 -15.198  0.00  0.00    +0.221 C 
ATOM      8  C   UNL     1      34.598 -22.936 -16.948  0.00  0.00    +0.221 C 
ATOM      9  C   UNL     1      35.655 -23.490 -15.047  0.00  0.00    +0.227 C 
ATOM     10  H   UNL     1      32.203 -24.470 -13.713  0.00  0.00    +0.160 HD
ATOM     11  H   UNL     1      35.510 -22.180 -18.649  0.00  0.00    +0.160 HD
ENDROOT
BRANCH   2  12
ATOM     12  C   UNL     1      30.933 -24.048 -15.331  0.00  0.00    +0.080 C 
ATOM     13  C   UNL     1      30.176 -22.816 -14.855  0.00  0.00    +0.022 C 
ATOM     14  C   UNL     1      30.135 -25.321 -15.080  0.00  0.00    +0.022 C 
ENDBRANCH   2  12
BRANCH   3  15
ATOM     15  C   UNL     1      33.473 -22.306 -19.084  0.00  0.00    +0.099 C 
ATOM     16  C   UNL     1      33.449 -20.972 -19.802  0.00  0.00    +0.024 C 
ENDBRANCH   3  15
TORSDOF 2
ENDMDL
MODEL 8
REMARK VINA RESULT:      -6.3     11.373     13.501
REMARK  Name = 2256
REMARK  2 active torsions:
REMARK  status: ('A' for Active; 'I' for Inactive)
REMARK    1  A    between atoms: N_2  and  C_12
REMARK    2  A    between atoms: N_3  and  C_15
REMARK                            x       y       z     vdW  Elec       q    Type
REMARK                         _______ _______ _______ _____ _____    ______ ____
ROOT
ATOM      1 CL   UNL     1      30.810 -11.525 -20.688  0.00  0.00    +0.026 Cl
ATOM      2  N   UNL     1      33.647 -15.078 -22.638  0.00  0.00    -0.259 N 
ATOM      3  N   UNL     1      33.689 -10.843 -24.653  0.00  0.00    -0.258 N 
ATOM      4  N   UNL     1      33.690 -12.971 -23.667  0.00  0.00    -0.247 NA
ATOM      5  N   UNL     1      32.314 -13.370 -21.742  0.00  0.00    -0.249 NA
ATOM      6  N   UNL     1      32.336 -11.203 -22.773  0.00  0.00    -0.249 NA
ATOM      7  C   UNL     1      33.204 -13.768 -22.684  0.00  0.00    +0.221 C 
ATOM      8  C   UNL     1      33.215 -11.715 -23.649  0.00  0.00    +0.221 C 
ATOM      9  C   UNL     1      31.929 -12.088 -21.848  0.00  0.00    +0.227 C 
ATOM     10  H   UNL     1      33.299 -15.662 -21.925  0.00  0.00    +0.160 HD
ATOM     11  H   UNL     1      33.360  -9.915 -24.665  0.00  0.00    +0.160 HD
ENDROOT
BRANCH   2  12
ATOM     12  C   UNL     1      34.594 -15.637 -23.578  0.00  0.00    +0.080 C 
ATOM     13  C   UNL     1      33.858 -16.051 -24.845  0.00  0.00    +0.022 C 
ATOM     14  C   UNL     1      35.307 -16.822 -22.939  0.00  0.00    +0.022 C 
ENDBRANCH   2  12
BRANCH   3  15
ATOM     15  C   UNL     1      34.628 -11.248 -25.652  0.00  0.00    +0.099 C 
ATOM     16  C   UNL     1      35.686 -10.188 -25.880  0.00  0.00    +0.024 C 
ENDBRANCH   3  15
TORSDOF 2
ENDMDL
MODEL 9
REMARK VINA RESULT:      -6.3      9.129     11.441
REMARK  Name = 2256
REMARK  2 active torsions:
REMARK  status: ('A' for Active; 'I' for Inactive)
REMARK    1  A    between atoms: N_2  and  C_12
REMARK    2  A    between atoms: N_3  and  C_15
REMARK                            x       y       z     vdW  Elec       q    Type
REMARK                         _______ _______ _______ _____ _____    ______ ____
ROOT
ATOM      1 CL   UNL     1      31.937 -12.249 -19.937  0.00  0.00    +0.026 Cl
ATOM      2  N   UNL     1      33.802 -16.720 -20.934  0.00  0.00    -0.259 N 
ATOM      3  N   UNL     1      32.794 -13.881 -24.528  0.00  0.00    -0.258 N 
ATOM      4  N   UNL     1      33.309 -15.323 -22.752  0.00  0.00    -0.247 NA
ATOM      5  N   UNL     1      32.915 -14.594 -20.500  0.00  0.00    -0.249 NA
ATOM      6  N   UNL     1      32.400 -13.141 -22.339  0.00  0.00    -0.249 NA
ATOM      7  C   UNL     1      33.328 -15.511 -21.409  0.00  0.00    +0.221 C 
ATOM      8  C   UNL     1      32.836 -14.128 -23.138  0.00  0.00    +0.221 C 
ATOM      9  C   UNL     1      32.469 -13.445 -21.032  0.00  0.00    +0.227 C 
ATOM     10  H   UNL     1      33.821 -16.863 -19.960  0.00  0.00    +0.160 HD
ATOM     11  H   UNL     1      32.453 -13.012 -24.843  0.00  0.00    +0.160 HD
ENDROOT
BRANCH   2  12
ATOM     12  C   UNL     1      34.273 -17.788 -21.789  0.00  0.00    +0.080 C 
ATOM     13  C   UNL     1      33.831 -19.126 -21.212  0.00  0.00    +0.022 C 
ATOM     14  C   UNL     1      35.790 -17.711 -21.912  0.00  0.00    +0.022 C 
ENDBRANCH   2  12
BRANCH   3  15
ATOM     15  C   UNL     1      33.226 -14.837 -25.499  0.00  0.00    +0.099 C 
ATOM     16  C   UNL     1      33.239 -14.245 -26.893  0.00  0.00    +0.024 C 
ENDBRANCH   3  15
TORSDOF 2
ENDMDL
