MODEL 1
REMARK VINA RESULT:     -12.2      0.000      0.000
REMARK  Name = 10172943
REMARK  7 active torsions:
REMARK  status: ('A' for Active; 'I' for Inactive)
REMARK    1  A    between atoms: O_1  and  C_3
REMARK    2  A    between atoms: O_1  and  C_19
REMARK    3  A    between atoms: C_4  and  C_11
REMARK    4  A    between atoms: C_19  and  C_20
REMARK    5  A    between atoms: C_20  and  N_21
REMARK    6  A    between atoms: C_20  and  C_25
REMARK    7  A    between atoms: C_25  and  C_27
REMARK                            x       y       z     vdW  Elec       q    Type
REMARK                         _______ _______ _______ _____ _____    ______ ____
ROOT
ATOM      1  O   UNL     1      36.246 -22.425 -18.575  0.00  0.00    -0.476 OA
ENDROOT
BRANCH   1   3
ATOM      2  N   UNL     1      32.800 -21.650 -19.473  0.00  0.00    -0.239 NA
ATOM      3  C   UNL     1      35.182 -21.806 -19.177  0.00  0.00    +0.158 C 
ATOM      4  C   UNL     1      34.286 -20.148 -20.649  0.00  0.00    +0.022 C 
ATOM      5  C   UNL     1      35.385 -20.757 -20.056  0.00  0.00    +0.040 C 
ATOM      6  C   UNL     1      33.893 -22.217 -18.915  0.00  0.00    +0.136 C 
ATOM      7  C   UNL     1      33.025 -20.627 -20.329  0.00  0.00    +0.099 C 
BRANCH   4  11
ATOM      8  N   UNL     1      34.580 -14.952 -23.209  0.00  0.00    -0.280 N 
ATOM      9  N   UNL     1      34.903 -15.884 -24.128  0.00  0.00    -0.173 NA
ATOM     10  C   UNL     1      34.423 -16.801 -22.106  0.00  0.00    +0.032 A 
ATOM     11  C   UNL     1      34.452 -19.049 -21.572  0.00  0.00    +0.002 C 
ATOM     12  C   UNL     1      34.814 -17.054 -23.472  0.00  0.00    +0.102 A 
ATOM     13  C   UNL     1      34.222 -17.738 -21.101  0.00  0.00    +0.003 C 
ATOM     14  C   UNL     1      34.282 -15.448 -21.974  0.00  0.00    +0.053 A 
ATOM     15  C   UNL     1      34.842 -19.347 -22.920  0.00  0.00    +0.002 C 
ATOM     16  C   UNL     1      35.039 -18.369 -23.920  0.00  0.00    +0.021 C 
ATOM     17  C   UNL     1      33.910 -14.573 -20.850  0.00  0.00    +0.051 C 
ATOM     18  H   UNL     1      34.561 -13.990 -23.414  0.00  0.00    +0.189 HD
ENDBRANCH   4  11
ENDBRANCH   1   3
BRANCH   1  19
ATOM     19  C   UNL     1      36.526 -22.055 -17.232  0.00  0.00    +0.184 C 
BRANCH  19  20
ATOM     20  C   UNL     1      35.996 -23.090 -16.231  0.00  0.00    -0.017 C 
BRANCH  20  21
ATOM     21  N   UNL     1      37.139 -23.711 -15.549  0.00  0.00    +0.384 N 
ATOM     22  H   UNL     1      37.465 -24.510 -16.092  0.00  0.00    -0.089 HD
ATOM     23  H   UNL     1      36.851 -24.023 -14.622  0.00  0.00    -0.089 HD
ATOM     24  H   UNL     1      37.891 -23.029 -15.459  0.00  0.00    -0.089 HD
ENDBRANCH  20  21
BRANCH  20  25
ATOM     25  C   UNL     1      35.027 -22.495 -15.176  0.00  0.00    +0.009 C 
BRANCH  25  27
ATOM     26  N   UNL     1      33.077 -25.078 -13.485  0.00  0.00    -0.312 N 
ATOM     27  C   UNL     1      34.026 -23.450 -14.658  0.00  0.00    -0.008 C 
ATOM     28  C   UNL     1      32.670 -23.564 -15.071  0.00  0.00    +0.011 C 
ATOM     29  C   UNL     1      32.097 -24.593 -14.321  0.00  0.00    +0.048 C 
ATOM     30  C   UNL     1      34.247 -24.395 -13.682  0.00  0.00    +0.058 C 
ATOM     31  C   UNL     1      31.871 -22.888 -16.015  0.00  0.00    +0.001 C 
ATOM     32  C   UNL     1      30.760 -24.980 -14.467  0.00  0.00    +0.015 C 
ATOM     33  C   UNL     1      30.533 -23.265 -16.172  0.00  0.00    +0.000 C 
ATOM     34  C   UNL     1      29.987 -24.295 -15.409  0.00  0.00    +0.001 C 
ATOM     35  H   UNL     1      32.955 -25.812 -12.841  0.00  0.00    +0.152 HD
ENDBRANCH  25  27
ENDBRANCH  20  25
ENDBRANCH  19  20
ENDBRANCH   1  19
TORSDOF 7
ENDMDL
MODEL 2
REMARK VINA RESULT:     -11.9      1.927      3.677
REMARK  Name = 10172943
REMARK  7 active torsions:
REMARK  status: ('A' for Active; 'I' for Inactive)
REMARK    1  A    between atoms: O_1  and  C_3
REMARK    2  A    between atoms: O_1  and  C_19
REMARK    3  A    between atoms: C_4  and  C_11
REMARK    4  A    between atoms: C_19  and  C_20
REMARK    5  A    between atoms: C_20  and  N_21
REMARK    6  A    between atoms: C_20  and  C_25
REMARK    7  A    between atoms: C_25  and  C_27
REMARK                            x       y       z     vdW  Elec       q    Type
REMARK                         _______ _______ _______ _____ _____    ______ ____
ROOT
ATOM      1  O   UNL     1      33.031 -22.383 -18.762  0.00  0.00    -0.476 OA
ENDROOT
BRANCH   1   3
ATOM      2  N   UNL     1      36.492 -21.396 -19.335  0.00  0.00    -0.239 NA
ATOM      3  C   UNL     1      34.108 -21.706 -19.272  0.00  0.00    +0.158 C 
ATOM      4  C   UNL     1      35.038 -20.028 -20.701  0.00  0.00    +0.022 C 
ATOM      5  C   UNL     1      33.927 -20.696 -20.199  0.00  0.00    +0.040 C 
ATOM      6  C   UNL     1      35.388 -22.022 -18.871  0.00  0.00    +0.136 C 
ATOM      7  C   UNL     1      36.288 -20.411 -20.240  0.00  0.00    +0.099 C 
BRANCH   4  11
ATOM      8  N   UNL     1      34.376 -14.950 -23.422  0.00  0.00    -0.280 N 
ATOM      9  N   UNL     1      34.485 -15.911 -24.362  0.00  0.00    -0.173 NA
ATOM     10  C   UNL     1      34.613 -16.750 -22.254  0.00  0.00    +0.032 A 
ATOM     11  C   UNL     1      34.895 -18.968 -21.671  0.00  0.00    +0.002 C 
ATOM     12  C   UNL     1      34.634 -17.051 -23.666  0.00  0.00    +0.102 A 
ATOM     13  C   UNL     1      34.736 -17.646 -21.201  0.00  0.00    +0.003 C 
ATOM     14  C   UNL     1      34.447 -15.399 -22.136  0.00  0.00    +0.053 A 
ATOM     15  C   UNL     1      34.923 -19.314 -23.063  0.00  0.00    +0.002 C 
ATOM     16  C   UNL     1      34.794 -18.376 -24.112  0.00  0.00    +0.021 C 
ATOM     17  C   UNL     1      34.348 -14.487 -20.984  0.00  0.00    +0.051 C 
ATOM     18  H   UNL     1      34.255 -14.000 -23.647  0.00  0.00    +0.189 HD
ENDBRANCH   4  11
ENDBRANCH   1   3
BRANCH   1  19
ATOM     19  C   UNL     1      33.311 -23.442 -17.855  0.00  0.00    +0.184 C 
BRANCH  19  20
ATOM     20  C   UNL     1      32.950 -23.068 -16.412  0.00  0.00    -0.017 C 
BRANCH  20  21
ATOM     21  N   UNL     1      31.497 -23.194 -16.244  0.00  0.00    +0.384 N 
ATOM     22  H   UNL     1      31.202 -22.659 -15.427  0.00  0.00    -0.089 HD
ATOM     23  H   UNL     1      31.254 -24.176 -16.115  0.00  0.00    -0.089 HD
ATOM     24  H   UNL     1      31.027 -22.834 -17.075  0.00  0.00    -0.089 HD
ENDBRANCH  20  21
BRANCH  20  25
ATOM     25  C   UNL     1      33.668 -23.937 -15.346  0.00  0.00    +0.009 C 
BRANCH  25  27
ATOM     26  N   UNL     1      37.096 -22.687 -15.191  0.00  0.00    -0.312 N 
ATOM     27  C   UNL     1      35.124 -23.705 -15.248  0.00  0.00    -0.008 C 
ATOM     28  C   UNL     1      36.129 -24.693 -15.057  0.00  0.00    +0.011 C 
ATOM     29  C   UNL     1      37.357 -24.029 -15.026  0.00  0.00    +0.048 C 
ATOM     30  C   UNL     1      35.749 -22.481 -15.327  0.00  0.00    +0.058 C 
ATOM     31  C   UNL     1      36.113 -26.094 -14.908  0.00  0.00    +0.001 C 
ATOM     32  C   UNL     1      38.574 -24.698 -14.851  0.00  0.00    +0.015 C 
ATOM     33  C   UNL     1      37.321 -26.777 -14.732  0.00  0.00    +0.000 C 
ATOM     34  C   UNL     1      38.532 -26.087 -14.704  0.00  0.00    +0.001 C 
ATOM     35  H   UNL     1      37.779 -21.979 -15.210  0.00  0.00    +0.152 HD
ENDBRANCH  25  27
ENDBRANCH  20  25
ENDBRANCH  19  20
ENDBRANCH   1  19
TORSDOF 7
ENDMDL
MODEL 3
REMARK VINA RESULT:     -11.8      4.481      8.254
REMARK  Name = 10172943
REMARK  7 active torsions:
REMARK  status: ('A' for Active; 'I' for Inactive)
REMARK    1  A    between atoms: O_1  and  C_3
REMARK    2  A    between atoms: O_1  and  C_19
REMARK    3  A    between atoms: C_4  and  C_11
REMARK    4  A    between atoms: C_19  and  C_20
REMARK    5  A    between atoms: C_20  and  N_21
REMARK    6  A    between atoms: C_20  and  C_25
REMARK    7  A    between atoms: C_25  and  C_27
REMARK                            x       y       z     vdW  Elec       q    Type
REMARK                         _______ _______ _______ _____ _____    ______ ____
ROOT
ATOM      1  O   UNL     1      33.721 -16.024 -23.995  0.00  0.00    -0.476 OA
ENDROOT
BRANCH   1   3
ATOM      2  N   UNL     1      32.990 -14.040 -26.963  0.00  0.00    -0.239 NA
ATOM      3  C   UNL     1      33.571 -14.928 -24.805  0.00  0.00    +0.158 C 
ATOM      4  C   UNL     1      33.665 -12.567 -25.169  0.00  0.00    +0.022 C 
ATOM      5  C   UNL     1      33.828 -13.658 -24.324  0.00  0.00    +0.040 C 
ATOM      6  C   UNL     1      33.159 -15.076 -26.112  0.00  0.00    +0.136 C 
ATOM      7  C   UNL     1      33.249 -12.808 -26.468  0.00  0.00    +0.099 C 
BRANCH   4  11
ATOM      8  N   UNL     1      33.629  -7.470 -22.402  0.00  0.00    -0.280 N 
ATOM      9  N   UNL     1      34.591  -7.421 -23.345  0.00  0.00    -0.173 NA
ATOM     10  C   UNL     1      33.508  -9.418 -23.324  0.00  0.00    +0.032 A 
ATOM     11  C   UNL     1      33.921 -11.222 -24.707  0.00  0.00    +0.002 C 
ATOM     12  C   UNL     1      34.544  -8.624 -23.942  0.00  0.00    +0.102 A 
ATOM     13  C   UNL     1      33.138 -10.717 -23.647  0.00  0.00    +0.003 C 
ATOM     14  C   UNL     1      32.946  -8.649 -22.345  0.00  0.00    +0.053 A 
ATOM     15  C   UNL     1      34.960 -10.470 -25.350  0.00  0.00    +0.002 C 
ATOM     16  C   UNL     1      35.312  -9.149 -24.998  0.00  0.00    +0.021 C 
ATOM     17  C   UNL     1      31.863  -8.877 -21.373  0.00  0.00    +0.051 C 
ATOM     18  H   UNL     1      33.435  -6.714 -21.802  0.00  0.00    +0.189 HD
ENDBRANCH   4  11
ENDBRANCH   1   3
BRANCH   1  19
ATOM     19  C   UNL     1      35.016 -16.250 -23.456  0.00  0.00    +0.184 C 
BRANCH  19  20
ATOM     20  C   UNL     1      34.957 -16.655 -21.977  0.00  0.00    -0.017 C 
BRANCH  20  21
ATOM     21  N   UNL     1      34.275 -15.593 -21.227  0.00  0.00    +0.384 N 
ATOM     22  H   UNL     1      33.529 -16.001 -20.663  0.00  0.00    -0.089 HD
ATOM     23  H   UNL     1      33.878 -14.917 -21.880  0.00  0.00    -0.089 HD
ATOM     24  H   UNL     1      34.945 -15.123 -20.618  0.00  0.00    -0.089 HD
ENDBRANCH  20  21
BRANCH  20  25
ATOM     25  C   UNL     1      34.232 -18.005 -21.731  0.00  0.00    +0.009 C 
BRANCH  25  27
ATOM     26  N   UNL     1      36.783 -20.116 -20.192  0.00  0.00    -0.312 N 
ATOM     27  C   UNL     1      35.043 -19.012 -21.017  0.00  0.00    -0.008 C 
ATOM     28  C   UNL     1      34.555 -20.135 -20.293  0.00  0.00    +0.011 C 
ATOM     29  C   UNL     1      35.667 -20.811 -19.785  0.00  0.00    +0.048 C 
ATOM     30  C   UNL     1      36.417 -19.028 -20.938  0.00  0.00    +0.058 C 
ATOM     31  C   UNL     1      33.270 -20.643 -20.018  0.00  0.00    +0.001 C 
ATOM     32  C   UNL     1      35.557 -21.974 -19.014  0.00  0.00    +0.015 C 
ATOM     33  C   UNL     1      33.144 -21.805 -19.248  0.00  0.00    +0.000 C 
ATOM     34  C   UNL     1      34.272 -22.458 -18.755  0.00  0.00    +0.001 C 
ATOM     35  H   UNL     1      37.711 -20.367 -19.979  0.00  0.00    +0.152 HD
ENDBRANCH  25  27
ENDBRANCH  20  25
ENDBRANCH  19  20
ENDBRANCH   1  19
TORSDOF 7
ENDMDL
MODEL 4
REMARK VINA RESULT:     -11.8      2.016      9.750
REMARK  Name = 10172943
REMARK  7 active torsions:
REMARK  status: ('A' for Active; 'I' for Inactive)
REMARK    1  A    between atoms: O_1  and  C_3
REMARK    2  A    between atoms: O_1  and  C_19
REMARK    3  A    between atoms: C_4  and  C_11
REMARK    4  A    between atoms: C_19  and  C_20
REMARK    5  A    between atoms: C_20  and  N_21
REMARK    6  A    between atoms: C_20  and  C_25
REMARK    7  A    between atoms: C_25  and  C_27
REMARK                            x       y       z     vdW  Elec       q    Type
REMARK                         _______ _______ _______ _____ _____    ______ ____
ROOT
ATOM      1  O   UNL     1      32.751 -22.377 -18.906  0.00  0.00    -0.476 OA
ENDROOT
BRANCH   1   3
ATOM      2  N   UNL     1      31.539 -23.330 -15.605  0.00  0.00    -0.239 NA
ATOM      3  C   UNL     1      32.769 -22.761 -17.590  0.00  0.00    +0.158 C 
ATOM      4  C   UNL     1      33.956 -23.358 -15.602  0.00  0.00    +0.022 C 
ATOM      5  C   UNL     1      33.970 -22.967 -16.936  0.00  0.00    +0.040 C 
ATOM      6  C   UNL     1      31.592 -22.951 -16.901  0.00  0.00    +0.136 C 
ATOM      7  C   UNL     1      32.726 -23.524 -14.986  0.00  0.00    +0.099 C 
BRANCH   4  11
ATOM      8  N   UNL     1      38.011 -24.340 -11.574  0.00  0.00    -0.280 N 
ATOM      9  N   UNL     1      38.631 -24.234 -12.766  0.00  0.00    -0.173 NA
ATOM     10  C   UNL     1      36.380 -23.981 -12.941  0.00  0.00    +0.032 A 
ATOM     11  C   UNL     1      35.187 -23.585 -14.880  0.00  0.00    +0.002 C 
ATOM     12  C   UNL     1      37.640 -24.008 -13.645  0.00  0.00    +0.102 A 
ATOM     13  C   UNL     1      35.117 -23.776 -13.483  0.00  0.00    +0.003 C 
ATOM     14  C   UNL     1      36.655 -24.197 -11.620  0.00  0.00    +0.053 A 
ATOM     15  C   UNL     1      36.415 -23.605 -15.621  0.00  0.00    +0.002 C 
ATOM     16  C   UNL     1      37.685 -23.815 -15.039  0.00  0.00    +0.021 C 
ATOM     17  C   UNL     1      35.818 -24.285 -10.412  0.00  0.00    +0.051 C 
ATOM     18  H   UNL     1      38.498 -24.508 -10.735  0.00  0.00    +0.189 HD
ENDBRANCH   4  11
ENDBRANCH   1   3
BRANCH   1  19
ATOM     19  C   UNL     1      33.973 -21.900 -19.452  0.00  0.00    +0.184 C 
BRANCH  19  20
ATOM     20  C   UNL     1      33.741 -20.802 -20.499  0.00  0.00    -0.017 C 
BRANCH  20  21
ATOM     21  N   UNL     1      32.505 -20.086 -20.161  0.00  0.00    +0.384 N 
ATOM     22  H   UNL     1      32.680 -19.458 -19.376  0.00  0.00    -0.089 HD
ATOM     23  H   UNL     1      31.782 -20.758 -19.905  0.00  0.00    -0.089 HD
ATOM     24  H   UNL     1      32.195 -19.545 -20.968  0.00  0.00    -0.089 HD
ENDBRANCH  20  21
BRANCH  20  25
ATOM     25  C   UNL     1      34.911 -19.788 -20.606  0.00  0.00    +0.009 C 
BRANCH  25  27
ATOM     26  N   UNL     1      34.816 -18.207 -23.896  0.00  0.00    -0.312 N 
ATOM     27  C   UNL     1      34.849 -18.907 -21.790  0.00  0.00    -0.008 C 
ATOM     28  C   UNL     1      34.725 -17.489 -21.785  0.00  0.00    +0.011 C 
ATOM     29  C   UNL     1      34.707 -17.075 -23.119  0.00  0.00    +0.048 C 
ATOM     30  C   UNL     1      34.904 -19.319 -23.102  0.00  0.00    +0.058 C 
ATOM     31  C   UNL     1      34.626 -16.516 -20.772  0.00  0.00    +0.001 C 
ATOM     32  C   UNL     1      34.594 -15.731 -23.491  0.00  0.00    +0.015 C 
ATOM     33  C   UNL     1      34.512 -15.167 -21.129  0.00  0.00    +0.000 C 
ATOM     34  C   UNL     1      34.496 -14.783 -22.469  0.00  0.00    +0.001 C 
ATOM     35  H   UNL     1      34.831 -18.215 -24.880  0.00  0.00    +0.152 HD
ENDBRANCH  25  27
ENDBRANCH  20  25
ENDBRANCH  19  20
ENDBRANCH   1  19
TORSDOF 7
ENDMDL
MODEL 5
REMARK VINA RESULT:     -11.7      4.487     11.218
REMARK  Name = 10172943
REMARK  7 active torsions:
REMARK  status: ('A' for Active; 'I' for Inactive)
REMARK    1  A    between atoms: O_1  and  C_3
REMARK    2  A    between atoms: O_1  and  C_19
REMARK    3  A    between atoms: C_4  and  C_11
REMARK    4  A    between atoms: C_19  and  C_20
REMARK    5  A    between atoms: C_20  and  N_21
REMARK    6  A    between atoms: C_20  and  C_25
REMARK    7  A    between atoms: C_25  and  C_27
REMARK                            x       y       z     vdW  Elec       q    Type
REMARK                         _______ _______ _______ _____ _____    ______ ____
ROOT
ATOM      1  O   UNL     1      33.454 -13.615 -23.779  0.00  0.00    -0.476 OA
ENDROOT
BRANCH   1   3
ATOM      2  N   UNL     1      34.081 -16.578 -25.806  0.00  0.00    -0.239 NA
ATOM      3  C   UNL     1      33.821 -14.894 -24.109  0.00  0.00    +0.158 C 
ATOM      4  C   UNL     1      34.652 -17.053 -23.506  0.00  0.00    +0.022 C 
ATOM      5  C   UNL     1      34.286 -15.764 -23.140  0.00  0.00    +0.040 C 
ATOM      6  C   UNL     1      33.734 -15.332 -25.413  0.00  0.00    +0.136 C 
ATOM      7  C   UNL     1      34.531 -17.409 -24.840  0.00  0.00    +0.099 C 
BRANCH   4  11
ATOM      8  N   UNL     1      35.227 -21.102 -19.393  0.00  0.00    -0.280 N 
ATOM      9  N   UNL     1      36.461 -20.682 -19.734  0.00  0.00    -0.173 NA
ATOM     10  C   UNL     1      34.835 -19.619 -20.912  0.00  0.00    +0.032 A 
ATOM     11  C   UNL     1      35.144 -17.994 -22.526  0.00  0.00    +0.002 C 
ATOM     12  C   UNL     1      36.255 -19.753 -20.683  0.00  0.00    +0.102 A 
ATOM     13  C   UNL     1      34.204 -18.768 -21.810  0.00  0.00    +0.003 C 
ATOM     14  C   UNL     1      34.210 -20.496 -20.071  0.00  0.00    +0.053 A 
ATOM     15  C   UNL     1      36.562 -18.095 -22.332  0.00  0.00    +0.002 C 
ATOM     16  C   UNL     1      37.173 -18.972 -21.409  0.00  0.00    +0.021 C 
ATOM     17  C   UNL     1      32.798 -20.833 -19.826  0.00  0.00    +0.051 C 
ATOM     18  H   UNL     1      35.071 -21.792 -18.709  0.00  0.00    +0.189 HD
ENDBRANCH   4  11
ENDBRANCH   1   3
BRANCH   1  19
ATOM     19  C   UNL     1      33.545 -12.637 -24.806  0.00  0.00    +0.184 C 
BRANCH  19  20
ATOM     20  C   UNL     1      34.020 -11.283 -24.263  0.00  0.00    -0.017 C 
BRANCH  20  21
ATOM     21  N   UNL     1      35.137 -10.811 -25.092  0.00  0.00    +0.384 N 
ATOM     22  H   UNL     1      35.955 -10.656 -24.502  0.00  0.00    -0.089 HD
ATOM     23  H   UNL     1      34.875  -9.937 -25.548  0.00  0.00    -0.089 HD
ATOM     24  H   UNL     1      35.354 -11.512 -25.799  0.00  0.00    -0.089 HD
ENDBRANCH  20  21
BRANCH  20  25
ATOM     25  C   UNL     1      32.908 -10.200 -24.233  0.00  0.00    +0.009 C 
BRANCH  25  27
ATOM     26  N   UNL     1      32.839  -7.967 -21.345  0.00  0.00    -0.312 N 
ATOM     27  C   UNL     1      32.756  -9.516 -22.933  0.00  0.00    -0.008 C 
ATOM     28  C   UNL     1      32.181 -10.060 -21.751  0.00  0.00    +0.011 C 
ATOM     29  C   UNL     1      32.246  -9.068 -20.770  0.00  0.00    +0.048 C 
ATOM     30  C   UNL     1      33.153  -8.228 -22.652  0.00  0.00    +0.058 C 
ATOM     31  C   UNL     1      31.610 -11.304 -21.420  0.00  0.00    +0.001 C 
ATOM     32  C   UNL     1      31.765  -9.259 -19.469  0.00  0.00    +0.015 C 
ATOM     33  C   UNL     1      31.125 -11.510 -20.123  0.00  0.00    +0.000 C 
ATOM     34  C   UNL     1      31.202 -10.502 -19.165  0.00  0.00    +0.001 C 
ATOM     35  H   UNL     1      33.015  -7.116 -20.883  0.00  0.00    +0.152 HD
ENDBRANCH  25  27
ENDBRANCH  20  25
ENDBRANCH  19  20
ENDBRANCH   1  19
TORSDOF 7
ENDMDL
MODEL 6
REMARK VINA RESULT:     -11.7      4.472     11.253
REMARK  Name = 10172943
REMARK  7 active torsions:
REMARK  status: ('A' for Active; 'I' for Inactive)
REMARK    1  A    between atoms: O_1  and  C_3
REMARK    2  A    between atoms: O_1  and  C_19
REMARK    3  A    between atoms: C_4  and  C_11
REMARK    4  A    between atoms: C_19  and  C_20
REMARK    5  A    between atoms: C_20  and  N_21
REMARK    6  A    between atoms: C_20  and  C_25
REMARK    7  A    between atoms: C_25  and  C_27
REMARK                            x       y       z     vdW  Elec       q    Type
REMARK                         _______ _______ _______ _____ _____    ______ ____
ROOT
ATOM      1  O   UNL     1      33.475 -14.129 -24.073  0.00  0.00    -0.476 OA
ENDROOT
BRANCH   1   3
ATOM      2  N   UNL     1      34.071 -17.278 -25.807  0.00  0.00    -0.239 NA
ATOM      3  C   UNL     1      33.837 -15.435 -24.281  0.00  0.00    +0.158 C 
ATOM      4  C   UNL     1      34.676 -17.526 -23.480  0.00  0.00    +0.022 C 
ATOM      5  C   UNL     1      34.316 -16.206 -23.237  0.00  0.00    +0.040 C 
ATOM      6  C   UNL     1      33.731 -15.999 -25.534  0.00  0.00    +0.136 C 
ATOM      7  C   UNL     1      34.536 -18.011 -24.770  0.00  0.00    +0.099 C 
BRANCH   4  11
ATOM      8  N   UNL     1      35.325 -21.276 -19.103  0.00  0.00    -0.280 N 
ATOM      9  N   UNL     1      36.541 -20.776 -19.402  0.00  0.00    -0.173 NA
ATOM     10  C   UNL     1      34.908 -19.917 -20.728  0.00  0.00    +0.032 A 
ATOM     11  C   UNL     1      35.182 -18.367 -22.419  0.00  0.00    +0.002 C 
ATOM     12  C   UNL     1      36.318 -19.921 -20.415  0.00  0.00    +0.102 A 
ATOM     13  C   UNL     1      34.266 -19.173 -21.709  0.00  0.00    +0.003 C 
ATOM     14  C   UNL     1      34.306 -20.794 -19.870  0.00  0.00    +0.053 A 
ATOM     15  C   UNL     1      36.590 -18.339 -22.144  0.00  0.00    +0.002 C 
ATOM     16  C   UNL     1      37.212 -19.110 -21.137  0.00  0.00    +0.021 C 
ATOM     17  C   UNL     1      32.912 -21.232 -19.683  0.00  0.00    +0.051 C 
ATOM     18  H   UNL     1      35.184 -21.936 -18.387  0.00  0.00    +0.189 HD
ENDBRANCH   4  11
ENDBRANCH   1   3
BRANCH   1  19
ATOM     19  C   UNL     1      32.669 -13.861 -22.934  0.00  0.00    +0.184 C 
BRANCH  19  20
ATOM     20  C   UNL     1      32.818 -12.410 -22.458  0.00  0.00    -0.017 C 
BRANCH  20  21
ATOM     21  N   UNL     1      33.250 -11.586 -23.593  0.00  0.00    +0.384 N 
ATOM     22  H   UNL     1      33.496 -12.190 -24.377  0.00  0.00    -0.089 HD
ATOM     23  H   UNL     1      34.062 -11.032 -23.321  0.00  0.00    -0.089 HD
ATOM     24  H   UNL     1      32.491 -10.963 -23.868  0.00  0.00    -0.089 HD
ENDBRANCH  20  21
BRANCH  20  25
ATOM     25  C   UNL     1      31.517 -11.816 -21.856  0.00  0.00    +0.009 C 
BRANCH  25  27
ATOM     26  N   UNL     1      32.035  -9.511 -19.072  0.00  0.00    -0.312 N 
ATOM     27  C   UNL     1      31.732 -10.684 -20.932  0.00  0.00    -0.008 C 
ATOM     28  C   UNL     1      31.859  -9.313 -21.287  0.00  0.00    +0.011 C 
ATOM     29  C   UNL     1      32.048  -8.598 -20.102  0.00  0.00    +0.048 C 
ATOM     30  C   UNL     1      31.843 -10.775 -19.563  0.00  0.00    +0.058 C 
ATOM     31  C   UNL     1      31.832  -8.608 -22.507  0.00  0.00    +0.001 C 
ATOM     32  C   UNL     1      32.213  -7.208 -20.076  0.00  0.00    +0.015 C 
ATOM     33  C   UNL     1      31.996  -7.218 -22.497  0.00  0.00    +0.000 C 
ATOM     34  C   UNL     1      32.183  -6.531 -21.299  0.00  0.00    +0.001 C 
ATOM     35  H   UNL     1      32.145  -9.287 -18.120  0.00  0.00    +0.152 HD
ENDBRANCH  25  27
ENDBRANCH  20  25
ENDBRANCH  19  20
ENDBRANCH   1  19
TORSDOF 7
ENDMDL
MODEL 7
REMARK VINA RESULT:     -11.7      3.561      7.288
REMARK  Name = 10172943
REMARK  7 active torsions:
REMARK  status: ('A' for Active; 'I' for Inactive)
REMARK    1  A    between atoms: O_1  and  C_3
REMARK    2  A    between atoms: O_1  and  C_19
REMARK    3  A    between atoms: C_4  and  C_11
REMARK    4  A    between atoms: C_19  and  C_20
REMARK    5  A    between atoms: C_20  and  N_21
REMARK    6  A    between atoms: C_20  and  C_25
REMARK    7  A    between atoms: C_25  and  C_27
REMARK                            x       y       z     vdW  Elec       q    Type
REMARK                         _______ _______ _______ _____ _____    ______ ____
ROOT
ATOM      1  O   UNL     1      35.098 -17.030 -23.682  0.00  0.00    -0.476 OA
ENDROOT
BRANCH   1   3
ATOM      2  N   UNL     1      33.207 -15.437 -26.360  0.00  0.00    -0.239 NA
ATOM      3  C   UNL     1      34.419 -16.064 -24.379  0.00  0.00    +0.158 C 
ATOM      4  C   UNL     1      33.558 -13.842 -24.577  0.00  0.00    +0.022 C 
ATOM      5  C   UNL     1      34.253 -14.799 -23.847  0.00  0.00    +0.040 C 
ATOM      6  C   UNL     1      33.888 -16.341 -25.621  0.00  0.00    +0.136 C 
ATOM      7  C   UNL     1      33.060 -14.207 -25.818  0.00  0.00    +0.099 C 
BRANCH   4  11
ATOM      8  N   UNL     1      31.880  -9.162 -21.591  0.00  0.00    -0.280 N 
ATOM      9  N   UNL     1      32.752  -8.758 -22.536  0.00  0.00    -0.173 NA
ATOM     10  C   UNL     1      32.397 -11.001 -22.596  0.00  0.00    +0.032 A 
ATOM     11  C   UNL     1      33.361 -12.508 -24.059  0.00  0.00    +0.002 C 
ATOM     12  C   UNL     1      33.097  -9.883 -23.185  0.00  0.00    +0.102 A 
ATOM     13  C   UNL     1      32.474 -12.335 -22.973  0.00  0.00    +0.003 C 
ATOM     14  C   UNL     1      31.629 -10.502 -21.582  0.00  0.00    +0.053 A 
ATOM     15  C   UNL     1      34.077 -11.428 -24.674  0.00  0.00    +0.002 C 
ATOM     16  C   UNL     1      33.976 -10.079 -24.266  0.00  0.00    +0.021 C 
ATOM     17  C   UNL     1      30.704 -11.117 -20.616  0.00  0.00    +0.051 C 
ATOM     18  H   UNL     1      31.457  -8.538 -20.958  0.00  0.00    +0.189 HD
ENDBRANCH   4  11
ENDBRANCH   1   3
BRANCH   1  19
ATOM     19  C   UNL     1      35.438 -16.728 -22.336  0.00  0.00    +0.184 C 
BRANCH  19  20
ATOM     20  C   UNL     1      34.719 -17.652 -21.344  0.00  0.00    -0.017 C 
BRANCH  20  21
ATOM     21  N   UNL     1      33.433 -17.043 -20.983  0.00  0.00    +0.384 N 
ATOM     22  H   UNL     1      33.511 -16.606 -20.065  0.00  0.00    -0.089 HD
ATOM     23  H   UNL     1      32.712 -17.763 -20.957  0.00  0.00    -0.089 HD
ATOM     24  H   UNL     1      33.185 -16.338 -21.676  0.00  0.00    -0.089 HD
ENDBRANCH  20  21
BRANCH  20  25
ATOM     25  C   UNL     1      34.475 -19.083 -21.894  0.00  0.00    +0.009 C 
BRANCH  25  27
ATOM     26  N   UNL     1      32.736 -21.380 -19.651  0.00  0.00    -0.312 N 
ATOM     27  C   UNL     1      34.030 -20.060 -20.879  0.00  0.00    -0.008 C 
ATOM     28  C   UNL     1      34.853 -20.738 -19.937  0.00  0.00    +0.011 C 
ATOM     29  C   UNL     1      34.016 -21.560 -19.179  0.00  0.00    +0.048 C 
ATOM     30  C   UNL     1      32.733 -20.474 -20.678  0.00  0.00    +0.058 C 
ATOM     31  C   UNL     1      36.233 -20.733 -19.657  0.00  0.00    +0.001 C 
ATOM     32  C   UNL     1      34.494 -22.380 -18.150  0.00  0.00    +0.015 C 
ATOM     33  C   UNL     1      36.725 -21.547 -18.631  0.00  0.00    +0.000 C 
ATOM     34  C   UNL     1      35.867 -22.358 -17.890  0.00  0.00    +0.001 C 
ATOM     35  H   UNL     1      31.937 -21.835 -19.299  0.00  0.00    +0.152 HD
ENDBRANCH  25  27
ENDBRANCH  20  25
ENDBRANCH  19  20
ENDBRANCH   1  19
TORSDOF 7
ENDMDL
MODEL 8
REMARK VINA RESULT:     -11.7      2.577      5.290
REMARK  Name = 10172943
REMARK  7 active torsions:
REMARK  status: ('A' for Active; 'I' for Inactive)
REMARK    1  A    between atoms: O_1  and  C_3
REMARK    2  A    between atoms: O_1  and  C_19
REMARK    3  A    between atoms: C_4  and  C_11
REMARK    4  A    between atoms: C_19  and  C_20
REMARK    5  A    between atoms: C_20  and  N_21
REMARK    6  A    between atoms: C_20  and  C_25
REMARK    7  A    between atoms: C_25  and  C_27
REMARK                            x       y       z     vdW  Elec       q    Type
REMARK                         _______ _______ _______ _____ _____    ______ ____
ROOT
ATOM      1  O   UNL     1      35.196 -18.636 -20.657  0.00  0.00    -0.476 OA
ENDROOT
BRANCH   1   3
ATOM      2  N   UNL     1      34.992 -17.724 -24.179  0.00  0.00    -0.239 NA
ATOM      3  C   UNL     1      34.947 -17.892 -21.781  0.00  0.00    +0.158 C 
ATOM      4  C   UNL     1      34.178 -15.887 -22.834  0.00  0.00    +0.022 C 
ATOM      5  C   UNL     1      34.421 -16.617 -21.676  0.00  0.00    +0.040 C 
ATOM      6  C   UNL     1      35.215 -18.403 -23.032  0.00  0.00    +0.136 C 
ATOM      7  C   UNL     1      34.478 -16.479 -24.050  0.00  0.00    +0.099 C 
BRANCH   4  11
ATOM      8  N   UNL     1      32.875 -10.299 -23.676  0.00  0.00    -0.280 N 
ATOM      9  N   UNL     1      32.119 -10.750 -22.656  0.00  0.00    -0.173 NA
ATOM     10  C   UNL     1      33.477 -12.364 -23.498  0.00  0.00    +0.032 A 
ATOM     11  C   UNL     1      33.629 -14.553 -22.771  0.00  0.00    +0.002 C 
ATOM     12  C   UNL     1      32.470 -12.040 -22.516  0.00  0.00    +0.102 A 
ATOM     13  C   UNL     1      34.103 -13.590 -23.689  0.00  0.00    +0.003 C 
ATOM     14  C   UNL     1      33.711 -11.229 -24.221  0.00  0.00    +0.053 A 
ATOM     15  C   UNL     1      32.629 -14.275 -21.780  0.00  0.00    +0.002 C 
ATOM     16  C   UNL     1      32.012 -13.016 -21.612  0.00  0.00    +0.021 C 
ATOM     17  C   UNL     1      34.608 -10.910 -25.345  0.00  0.00    +0.051 C 
ATOM     18  H   UNL     1      32.828  -9.372 -24.002  0.00  0.00    +0.189 HD
ENDBRANCH   4  11
ENDBRANCH   1   3
BRANCH   1  19
ATOM     19  C   UNL     1      35.103 -20.048 -20.790  0.00  0.00    +0.184 C 
BRANCH  19  20
ATOM     20  C   UNL     1      33.961 -20.627 -19.944  0.00  0.00    -0.017 C 
BRANCH  20  21
ATOM     21  N   UNL     1      32.685 -20.304 -20.594  0.00  0.00    +0.384 N 
ATOM     22  H   UNL     1      32.130 -19.713 -19.977  0.00  0.00    -0.089 HD
ATOM     23  H   UNL     1      32.177 -21.166 -20.790  0.00  0.00    -0.089 HD
ATOM     24  H   UNL     1      32.865 -19.811 -21.468  0.00  0.00    -0.089 HD
ENDBRANCH  20  21
BRANCH  20  25
ATOM     25  C   UNL     1      34.059 -22.162 -19.735  0.00  0.00    +0.009 C 
BRANCH  25  27
ATOM     26  N   UNL     1      33.605 -23.404 -16.331  0.00  0.00    -0.312 N 
ATOM     27  C   UNL     1      34.145 -22.582 -18.321  0.00  0.00    -0.008 C 
ATOM     28  C   UNL     1      35.276 -22.456 -17.467  0.00  0.00    +0.011 C 
ATOM     29  C   UNL     1      34.911 -22.979 -16.224  0.00  0.00    +0.048 C 
ATOM     30  C   UNL     1      33.133 -23.167 -17.595  0.00  0.00    +0.058 C 
ATOM     31  C   UNL     1      36.579 -21.948 -17.632  0.00  0.00    +0.001 C 
ATOM     32  C   UNL     1      35.788 -23.019 -15.134  0.00  0.00    +0.015 C 
ATOM     33  C   UNL     1      37.467 -21.980 -16.551  0.00  0.00    +0.000 C 
ATOM     34  C   UNL     1      37.075 -22.509 -15.322  0.00  0.00    +0.001 C 
ATOM     35  H   UNL     1      33.086 -23.816 -15.604  0.00  0.00    +0.152 HD
ENDBRANCH  25  27
ENDBRANCH  20  25
ENDBRANCH  19  20
ENDBRANCH   1  19
TORSDOF 7
ENDMDL
MODEL 9
REMARK VINA RESULT:     -11.6      7.129     12.055
REMARK  Name = 10172943
REMARK  7 active torsions:
REMARK  status: ('A' for Active; 'I' for Inactive)
REMARK    1  A    between atoms: O_1  and  C_3
REMARK    2  A    between atoms: O_1  and  C_19
REMARK    3  A    between atoms: C_4  and  C_11
REMARK    4  A    between atoms: C_19  and  C_20
REMARK    5  A    between atoms: C_20  and  N_21
REMARK    6  A    between atoms: C_20  and  C_25
REMARK    7  A    between atoms: C_25  and  C_27
REMARK                            x       y       z     vdW  Elec       q    Type
REMARK                         _______ _______ _______ _____ _____    ______ ____
ROOT
ATOM      1  O   UNL     1      33.433 -10.234 -24.432  0.00  0.00    -0.476 OA
ENDROOT
BRANCH   1   3
ATOM      2  N   UNL     1      33.399 -13.212 -26.531  0.00  0.00    -0.239 NA
ATOM      3  C   UNL     1      33.525 -11.552 -24.796  0.00  0.00    +0.158 C 
ATOM      4  C   UNL     1      33.917 -13.848 -24.256  0.00  0.00    +0.022 C 
ATOM      5  C   UNL     1      33.828 -12.521 -23.856  0.00  0.00    +0.040 C 
ATOM      6  C   UNL     1      33.321 -11.932 -26.105  0.00  0.00    +0.136 C 
ATOM      7  C   UNL     1      33.695 -14.140 -25.593  0.00  0.00    +0.099 C 
BRANCH   4  11
ATOM      8  N   UNL     1      35.201 -18.858 -21.632  0.00  0.00    -0.280 N 
ATOM      9  N   UNL     1      35.125 -17.903 -20.684  0.00  0.00    -0.173 NA
ATOM     10  C   UNL     1      34.722 -17.083 -22.764  0.00  0.00    +0.032 A 
ATOM     11  C   UNL     1      34.231 -14.892 -23.309  0.00  0.00    +0.002 C 
ATOM     12  C   UNL     1      34.827 -16.778 -21.357  0.00  0.00    +0.102 A 
ATOM     13  C   UNL     1      34.430 -16.203 -23.797  0.00  0.00    +0.003 C 
ATOM     14  C   UNL     1      34.967 -18.421 -22.902  0.00  0.00    +0.053 A 
ATOM     15  C   UNL     1      34.326 -14.543 -21.921  0.00  0.00    +0.002 C 
ATOM     16  C   UNL     1      34.626 -15.465 -20.893  0.00  0.00    +0.021 C 
ATOM     17  C   UNL     1      35.011 -19.328 -24.061  0.00  0.00    +0.051 C 
ATOM     18  H   UNL     1      35.408 -19.797 -21.423  0.00  0.00    +0.189 HD
ENDBRANCH   4  11
ENDBRANCH   1   3
BRANCH   1  19
ATOM     19  C   UNL     1      34.653  -9.554 -24.169  0.00  0.00    +0.184 C 
BRANCH  19  20
ATOM     20  C   UNL     1      34.413  -8.113 -23.700  0.00  0.00    -0.017 C 
BRANCH  20  21
ATOM     21  N   UNL     1      34.736  -7.200 -24.803  0.00  0.00    +0.384 N 
ATOM     22  H   UNL     1      33.951  -7.161 -25.452  0.00  0.00    -0.089 HD
ATOM     23  H   UNL     1      35.566  -7.538 -25.291  0.00  0.00    -0.089 HD
ATOM     24  H   UNL     1      34.917  -6.268 -24.431  0.00  0.00    -0.089 HD
ENDBRANCH  20  21
BRANCH  20  25
ATOM     25  C   UNL     1      32.961  -7.848 -23.221  0.00  0.00    +0.009 C 
BRANCH  25  27
ATOM     26  N   UNL     1      32.645  -7.901 -19.584  0.00  0.00    -0.312 N 
ATOM     27  C   UNL     1      32.728  -8.130 -21.790  0.00  0.00    -0.008 C 
ATOM     28  C   UNL     1      32.188  -9.325 -21.238  0.00  0.00    +0.011 C 
ATOM     29  C   UNL     1      32.147  -9.155 -19.853  0.00  0.00    +0.048 C 
ATOM     30  C   UNL     1      33.000  -7.273 -20.748  0.00  0.00    +0.058 C 
ATOM     31  C   UNL     1      31.728 -10.539 -21.786  0.00  0.00    +0.001 C 
ATOM     32  C   UNL     1      31.667 -10.143 -18.985  0.00  0.00    +0.015 C 
ATOM     33  C   UNL     1      31.245 -11.535 -20.931  0.00  0.00    +0.000 C 
ATOM     34  C   UNL     1      31.216 -11.338 -19.551  0.00  0.00    +0.001 C 
ATOM     35  H   UNL     1      32.735  -7.511 -18.684  0.00  0.00    +0.152 HD
ENDBRANCH  25  27
ENDBRANCH  20  25
ENDBRANCH  19  20
ENDBRANCH   1  19
TORSDOF 7
ENDMDL
