MODEL 1
REMARK VINA RESULT:     -13.3      0.000      0.000
REMARK  Name = 24812719
REMARK  3 active torsions:
REMARK  status: ('A' for Active; 'I' for Inactive)
REMARK    1  A    between atoms: N_2  and  C_22
REMARK    2  A    between atoms: C_3  and  C_12
REMARK    3  A    between atoms: C_25  and  C_31
REMARK                            x       y       z     vdW  Elec       q    Type
REMARK                         _______ _______ _______ _____ _____    ______ ____
ROOT
ATOM      1  O   UNL     1      34.466 -16.020 -21.363  0.00  0.00    -0.269 OA
ATOM      2  N   UNL     1      34.796 -17.797 -22.873  0.00  0.00    -0.233 N 
ATOM      3  C   UNL     1      33.865 -15.595 -23.600  0.00  0.00    +0.046 C 
ATOM      4  C   UNL     1      33.867 -16.024 -24.879  0.00  0.00    -0.016 C 
ATOM      5  C   UNL     1      34.389 -16.494 -22.498  0.00  0.00    +0.256 C 
ATOM      6  C   UNL     1      34.782 -18.164 -24.214  0.00  0.00    +0.072 C 
ATOM      7  C   UNL     1      34.356 -17.349 -25.182  0.00  0.00    +0.012 C 
ATOM      8  C   UNL     1      33.388 -15.248 -26.077  0.00  0.00    +0.031 C 
ENDROOT
BRANCH   3  12
ATOM      9  N   UNL     1      31.980 -10.467 -22.187  0.00  0.00    -0.342 NA
ATOM     10  N   UNL     1      33.457  -9.446 -23.793  0.00  0.00    -0.170 NA
ATOM     11  N   UNL     1      32.031  -8.138 -22.471  0.00  0.00    -0.293 N 
ATOM     12  C   UNL     1      33.377 -14.252 -23.235  0.00  0.00    -0.017 C 
ATOM     13  C   UNL     1      33.889 -13.124 -23.869  0.00  0.00    +0.056 C 
ATOM     14  C   UNL     1      32.402 -14.104 -22.255  0.00  0.00    -0.022 C 
ATOM     15  C   UNL     1      33.420 -11.847 -23.518  0.00  0.00    +0.029 C 
ATOM     16  C   UNL     1      32.435 -11.685 -22.530  0.00  0.00    +0.124 C 
ATOM     17  C   UNL     1      31.941 -12.830 -21.912  0.00  0.00    +0.085 C 
ATOM     18  C   UNL     1      33.891 -10.679 -24.114  0.00  0.00    +0.110 C 
ATOM     19  C   UNL     1      32.516  -9.415 -22.837  0.00  0.00    +0.141 C 
ATOM     20  H   UNL     1      31.340  -8.056 -21.776  0.00  0.00    +0.155 HD
ATOM     21  H   UNL     1      32.385  -7.333 -22.913  0.00  0.00    +0.155 HD
ENDBRANCH   3  12
BRANCH   2  22
ATOM     22  C   UNL     1      35.252 -18.732 -21.862  0.00  0.00    +0.058 C 
ATOM     23  C   UNL     1      34.335 -19.553 -21.208  0.00  0.00    +0.019 C 
ATOM     24  C   UNL     1      36.607 -18.807 -21.543  0.00  0.00    +0.015 C 
ATOM     25  C   UNL     1      34.773 -20.452 -20.236  0.00  0.00    +0.073 C 
ATOM     26  C   UNL     1      37.046 -19.706 -20.570  0.00  0.00    +0.001 C 
ATOM     27  C   UNL     1      36.128 -20.528 -19.916  0.00  0.00    +0.004 C 
BRANCH  25  31
ATOM     28  F   UNL     1      32.635 -20.693 -19.190  0.00  0.00    -0.166 F 
ATOM     29  F   UNL     1      33.398 -22.409 -20.274  0.00  0.00    -0.166 F 
ATOM     30  F   UNL     1      34.287 -21.846 -18.372  0.00  0.00    -0.166 F 
ATOM     31  C   UNL     1      33.792 -21.330 -19.534  0.00  0.00    +0.419 C 
ENDBRANCH  25  31
ENDBRANCH   2  22
TORSDOF 3
ENDMDL
MODEL 2
REMARK VINA RESULT:     -13.0      3.785      8.424
REMARK  Name = 24812719
REMARK  3 active torsions:
REMARK  status: ('A' for Active; 'I' for Inactive)
REMARK    1  A    between atoms: N_2  and  C_22
REMARK    2  A    between atoms: C_3  and  C_12
REMARK    3  A    between atoms: C_25  and  C_31
REMARK                            x       y       z     vdW  Elec       q    Type
REMARK                         _______ _______ _______ _____ _____    ______ ____
ROOT
ATOM      1  O   UNL     1      33.940 -15.253 -21.758  0.00  0.00    -0.269 OA
ATOM      2  N   UNL     1      33.553 -14.509 -23.959  0.00  0.00    -0.233 N 
ATOM      3  C   UNL     1      34.299 -16.841 -23.461  0.00  0.00    +0.046 C 
ATOM      4  C   UNL     1      34.193 -17.148 -24.770  0.00  0.00    -0.016 C 
ATOM      5  C   UNL     1      33.930 -15.454 -22.974  0.00  0.00    +0.256 C 
ATOM      6  C   UNL     1      33.455 -14.903 -25.289  0.00  0.00    +0.072 C 
ATOM      7  C   UNL     1      33.743 -16.139 -25.701  0.00  0.00    +0.012 C 
ATOM      8  C   UNL     1      34.514 -18.477 -25.400  0.00  0.00    +0.031 C 
ENDROOT
BRANCH   3  12
ATOM      9  N   UNL     1      36.060 -20.629 -19.666  0.00  0.00    -0.342 NA
ATOM     10  N   UNL     1      33.804 -21.413 -19.353  0.00  0.00    -0.170 NA
ATOM     11  N   UNL     1      35.583 -22.365 -18.161  0.00  0.00    -0.293 N 
ATOM     12  C   UNL     1      34.752 -17.833 -22.467  0.00  0.00    -0.017 C 
ATOM     13  C   UNL     1      33.835 -18.681 -21.855  0.00  0.00    +0.056 C 
ATOM     14  C   UNL     1      36.100 -17.927 -22.138  0.00  0.00    -0.022 C 
ATOM     15  C   UNL     1      34.273 -19.625 -20.910  0.00  0.00    +0.029 C 
ATOM     16  C   UNL     1      35.631 -19.730 -20.569  0.00  0.00    +0.124 C 
ATOM     17  C   UNL     1      36.527 -18.869 -21.198  0.00  0.00    +0.085 C 
ATOM     18  C   UNL     1      33.408 -20.502 -20.261  0.00  0.00    +0.110 C 
ATOM     19  C   UNL     1      35.124 -21.421 -19.108  0.00  0.00    +0.141 C 
ATOM     20  H   UNL     1      36.541 -22.415 -17.943  0.00  0.00    +0.155 HD
ATOM     21  H   UNL     1      34.944 -22.971 -17.722  0.00  0.00    +0.155 HD
ENDBRANCH   3  12
BRANCH   2  22
ATOM     22  C   UNL     1      33.244 -13.145 -23.573  0.00  0.00    +0.058 C 
ATOM     23  C   UNL     1      32.428 -12.900 -22.470  0.00  0.00    +0.019 C 
ATOM     24  C   UNL     1      33.763 -12.079 -24.307  0.00  0.00    +0.015 C 
ATOM     25  C   UNL     1      32.130 -11.589 -22.100  0.00  0.00    +0.073 C 
ATOM     26  C   UNL     1      33.466 -10.768 -23.937  0.00  0.00    +0.001 C 
ATOM     27  C   UNL     1      32.649 -10.522 -22.834  0.00  0.00    +0.004 C 
BRANCH  25  31
ATOM     28  F   UNL     1      29.930 -11.550 -21.161  0.00  0.00    -0.166 F 
ATOM     29  F   UNL     1      31.556 -12.098 -19.834  0.00  0.00    -0.166 F 
ATOM     30  F   UNL     1      31.336 -10.035 -20.485  0.00  0.00    -0.166 F 
ATOM     31  C   UNL     1      31.256 -11.326 -20.921  0.00  0.00    +0.419 C 
ENDBRANCH  25  31
ENDBRANCH   2  22
TORSDOF 3
ENDMDL
MODEL 3
REMARK VINA RESULT:     -12.9      4.597      9.003
REMARK  Name = 24812719
REMARK  3 active torsions:
REMARK  status: ('A' for Active; 'I' for Inactive)
REMARK    1  A    between atoms: N_2  and  C_22
REMARK    2  A    between atoms: C_3  and  C_12
REMARK    3  A    between atoms: C_25  and  C_31
REMARK                            x       y       z     vdW  Elec       q    Type
REMARK                         _______ _______ _______ _____ _____    ______ ____
ROOT
ATOM      1  O   UNL     1      33.641 -16.445 -21.225  0.00  0.00    -0.269 OA
ATOM      2  N   UNL     1      33.781 -15.675 -23.446  0.00  0.00    -0.233 N 
ATOM      3  C   UNL     1      34.455 -17.993 -22.802  0.00  0.00    +0.046 C 
ATOM      4  C   UNL     1      34.683 -18.281 -24.100  0.00  0.00    -0.016 C 
ATOM      5  C   UNL     1      33.935 -16.626 -22.408  0.00  0.00    +0.256 C 
ATOM      6  C   UNL     1      34.024 -16.049 -24.763  0.00  0.00    +0.072 C 
ATOM      7  C   UNL     1      34.443 -17.270 -25.103  0.00  0.00    +0.012 C 
ATOM      8  C   UNL     1      35.190 -19.589 -24.644  0.00  0.00    +0.031 C 
ENDROOT
BRANCH   3  12
ATOM      9  N   UNL     1      35.352 -21.797 -18.731  0.00  0.00    -0.342 NA
ATOM     10  N   UNL     1      32.995 -22.283 -18.621  0.00  0.00    -0.170 NA
ATOM     11  N   UNL     1      34.517 -23.393 -17.227  0.00  0.00    -0.293 N 
ATOM     12  C   UNL     1      34.682 -18.988 -21.737  0.00  0.00    -0.017 C 
ATOM     13  C   UNL     1      33.611 -19.689 -21.193  0.00  0.00    +0.056 C 
ATOM     14  C   UNL     1      35.970 -19.233 -21.272  0.00  0.00    -0.022 C 
ATOM     15  C   UNL     1      33.833 -20.637 -20.180  0.00  0.00    +0.029 C 
ATOM     16  C   UNL     1      35.129 -20.893 -19.701  0.00  0.00    +0.124 C 
ATOM     17  C   UNL     1      36.182 -20.177 -20.264  0.00  0.00    +0.085 C 
ATOM     18  C   UNL     1      32.806 -21.371 -19.593  0.00  0.00    +0.110 C 
ATOM     19  C   UNL     1      34.274 -22.443 -18.245  0.00  0.00    +0.141 C 
ATOM     20  H   UNL     1      35.435 -23.551 -16.912  0.00  0.00    +0.155 HD
ATOM     21  H   UNL     1      33.767 -23.895 -16.834  0.00  0.00    +0.155 HD
ENDBRANCH   3  12
BRANCH   2  22
ATOM     22  C   UNL     1      33.345 -14.327 -23.135  0.00  0.00    +0.058 C 
ATOM     23  C   UNL     1      33.804 -13.253 -23.896  0.00  0.00    +0.019 C 
ATOM     24  C   UNL     1      32.469 -14.106 -22.073  0.00  0.00    +0.015 C 
ATOM     25  C   UNL     1      33.386 -11.957 -23.596  0.00  0.00    +0.073 C 
ATOM     26  C   UNL     1      32.050 -12.809 -21.773  0.00  0.00    +0.001 C 
ATOM     27  C   UNL     1      32.509 -11.734 -22.534  0.00  0.00    +0.004 C 
BRANCH  25  31
ATOM     28  F   UNL     1      35.055 -10.281 -23.959  0.00  0.00    -0.166 F 
ATOM     29  F   UNL     1      34.105 -11.121 -25.719  0.00  0.00    -0.166 F 
ATOM     30  F   UNL     1      32.996  -9.765 -24.431  0.00  0.00    -0.166 F 
ATOM     31  C   UNL     1      33.877 -10.806 -24.409  0.00  0.00    +0.419 C 
ENDBRANCH  25  31
ENDBRANCH   2  22
TORSDOF 3
ENDMDL
MODEL 4
REMARK VINA RESULT:     -12.8      0.784      1.505
REMARK  Name = 24812719
REMARK  3 active torsions:
REMARK  status: ('A' for Active; 'I' for Inactive)
REMARK    1  A    between atoms: N_2  and  C_22
REMARK    2  A    between atoms: C_3  and  C_12
REMARK    3  A    between atoms: C_25  and  C_31
REMARK                            x       y       z     vdW  Elec       q    Type
REMARK                         _______ _______ _______ _____ _____    ______ ____
ROOT
ATOM      1  O   UNL     1      34.606 -15.520 -21.927  0.00  0.00    -0.269 OA
ATOM      2  N   UNL     1      34.570 -17.417 -23.320  0.00  0.00    -0.233 N 
ATOM      3  C   UNL     1      33.812 -15.174 -24.117  0.00  0.00    +0.046 C 
ATOM      4  C   UNL     1      33.626 -15.683 -25.352  0.00  0.00    -0.016 C 
ATOM      5  C   UNL     1      34.353 -16.054 -23.008  0.00  0.00    +0.256 C 
ATOM      6  C   UNL     1      34.367 -17.867 -24.620  0.00  0.00    +0.072 C 
ATOM      7  C   UNL     1      33.930 -17.073 -25.601  0.00  0.00    +0.012 C 
ATOM      8  C   UNL     1      33.106 -14.936 -26.552  0.00  0.00    +0.031 C 
ENDROOT
BRANCH   3  12
ATOM      9  N   UNL     1      32.709  -9.762 -22.958  0.00  0.00    -0.342 NA
ATOM     10  N   UNL     1      31.183 -10.414 -21.212  0.00  0.00    -0.170 NA
ATOM     11  N   UNL     1      31.569  -8.152 -21.688  0.00  0.00    -0.293 N 
ATOM     12  C   UNL     1      33.519 -13.762 -23.810  0.00  0.00    -0.017 C 
ATOM     13  C   UNL     1      32.623 -13.437 -22.796  0.00  0.00    +0.056 C 
ATOM     14  C   UNL     1      34.137 -12.746 -24.531  0.00  0.00    -0.022 C 
ATOM     15  C   UNL     1      32.348 -12.090 -22.506  0.00  0.00    +0.029 C 
ATOM     16  C   UNL     1      32.966 -11.055 -23.227  0.00  0.00    +0.124 C 
ATOM     17  C   UNL     1      33.858 -11.408 -24.236  0.00  0.00    +0.085 C 
ATOM     18  C   UNL     1      31.462 -11.697 -21.506  0.00  0.00    +0.110 C 
ATOM     19  C   UNL     1      31.832  -9.513 -21.965  0.00  0.00    +0.141 C 
ATOM     20  H   UNL     1      32.017  -7.449 -22.209  0.00  0.00    +0.155 HD
ATOM     21  H   UNL     1      30.938  -7.910 -20.973  0.00  0.00    +0.155 HD
ENDBRANCH   3  12
BRANCH   2  22
ATOM     22  C   UNL     1      35.029 -18.332 -22.292  0.00  0.00    +0.058 C 
ATOM     23  C   UNL     1      34.113 -19.128 -21.607  0.00  0.00    +0.019 C 
ATOM     24  C   UNL     1      36.388 -18.411 -21.986  0.00  0.00    +0.015 C 
ATOM     25  C   UNL     1      34.554 -20.006 -20.618  0.00  0.00    +0.073 C 
ATOM     26  C   UNL     1      36.829 -19.290 -20.996  0.00  0.00    +0.001 C 
ATOM     27  C   UNL     1      35.912 -20.087 -20.311  0.00  0.00    +0.004 C 
BRANCH  25  31
ATOM     28  F   UNL     1      32.458 -20.184 -19.478  0.00  0.00    -0.166 F 
ATOM     29  F   UNL     1      33.105 -21.910 -20.620  0.00  0.00    -0.166 F 
ATOM     30  F   UNL     1      34.101 -21.410 -18.753  0.00  0.00    -0.166 F 
ATOM     31  C   UNL     1      33.573 -20.858 -19.884  0.00  0.00    +0.419 C 
ENDBRANCH  25  31
ENDBRANCH   2  22
TORSDOF 3
ENDMDL
MODEL 5
REMARK VINA RESULT:     -12.1      4.814      9.029
REMARK  Name = 24812719
REMARK  3 active torsions:
REMARK  status: ('A' for Active; 'I' for Inactive)
REMARK    1  A    between atoms: N_2  and  C_22
REMARK    2  A    between atoms: C_3  and  C_12
REMARK    3  A    between atoms: C_25  and  C_31
REMARK                            x       y       z     vdW  Elec       q    Type
REMARK                         _______ _______ _______ _____ _____    ______ ____
ROOT
ATOM      1  O   UNL     1      33.148 -15.032 -20.968  0.00  0.00    -0.269 OA
ATOM      2  N   UNL     1      32.978 -13.759 -22.942  0.00  0.00    -0.233 N 
ATOM      3  C   UNL     1      33.919 -16.073 -22.935  0.00  0.00    +0.046 C 
ATOM      4  C   UNL     1      34.028 -16.026 -24.278  0.00  0.00    -0.016 C 
ATOM      5  C   UNL     1      33.326 -14.900 -22.180  0.00  0.00    +0.256 C 
ATOM      6  C   UNL     1      33.108 -13.788 -24.326  0.00  0.00    +0.072 C 
ATOM      7  C   UNL     1      33.593 -14.843 -24.984  0.00  0.00    +0.012 C 
ATOM      8  C   UNL     1      34.586 -17.108 -25.163  0.00  0.00    +0.031 C 
ENDROOT
BRANCH   3  12
ATOM      9  N   UNL     1      35.585 -20.592 -19.994  0.00  0.00    -0.342 NA
ATOM     10  N   UNL     1      33.296 -21.281 -19.693  0.00  0.00    -0.170 NA
ATOM     11  N   UNL     1      35.057 -22.542 -18.799  0.00  0.00    -0.293 N 
ATOM     12  C   UNL     1      34.347 -17.256 -22.165  0.00  0.00    -0.017 C 
ATOM     13  C   UNL     1      33.402 -18.144 -21.661  0.00  0.00    +0.056 C 
ATOM     14  C   UNL     1      35.699 -17.491 -21.939  0.00  0.00    -0.022 C 
ATOM     15  C   UNL     1      33.816 -19.270 -20.929  0.00  0.00    +0.029 C 
ATOM     16  C   UNL     1      35.178 -19.518 -20.694  0.00  0.00    +0.124 C 
ATOM     17  C   UNL     1      36.102 -18.614 -21.210  0.00  0.00    +0.085 C 
ATOM     18  C   UNL     1      32.922 -20.196 -20.397  0.00  0.00    +0.110 C 
ATOM     19  C   UNL     1      34.621 -21.415 -19.532  0.00  0.00    +0.141 C 
ATOM     20  H   UNL     1      36.018 -22.690 -18.651  0.00  0.00    +0.155 HD
ATOM     21  H   UNL     1      34.398 -23.178 -18.438  0.00  0.00    +0.155 HD
ENDBRANCH   3  12
BRANCH   2  22
ATOM     22  C   UNL     1      32.461 -12.576 -22.279  0.00  0.00    +0.058 C 
ATOM     23  C   UNL     1      32.519 -11.338 -22.916  0.00  0.00    +0.019 C 
ATOM     24  C   UNL     1      31.909 -12.678 -21.002  0.00  0.00    +0.015 C 
ATOM     25  C   UNL     1      32.024 -10.201 -22.279  0.00  0.00    +0.073 C 
ATOM     26  C   UNL     1      31.413 -11.541 -20.364  0.00  0.00    +0.001 C 
ATOM     27  C   UNL     1      31.472 -10.302 -21.002  0.00  0.00    +0.004 C 
BRANCH  25  31
ATOM     28  F   UNL     1      30.907  -8.498 -23.534  0.00  0.00    -0.166 F 
ATOM     29  F   UNL     1      32.421  -7.847 -22.125  0.00  0.00    -0.166 F 
ATOM     30  F   UNL     1      33.010  -8.845 -23.965  0.00  0.00    -0.166 F 
ATOM     31  C   UNL     1      32.087  -8.875 -22.960  0.00  0.00    +0.419 C 
ENDBRANCH  25  31
ENDBRANCH   2  22
TORSDOF 3
ENDMDL
MODEL 6
REMARK VINA RESULT:     -11.7      1.371      1.915
REMARK  Name = 24812719
REMARK  3 active torsions:
REMARK  status: ('A' for Active; 'I' for Inactive)
REMARK    1  A    between atoms: N_2  and  C_22
REMARK    2  A    between atoms: C_3  and  C_12
REMARK    3  A    between atoms: C_25  and  C_31
REMARK                            x       y       z     vdW  Elec       q    Type
REMARK                         _______ _______ _______ _____ _____    ______ ____
ROOT
ATOM      1  O   UNL     1      33.597 -16.625 -21.031  0.00  0.00    -0.269 OA
ATOM      2  N   UNL     1      34.236 -18.404 -22.436  0.00  0.00    -0.233 N 
ATOM      3  C   UNL     1      33.849 -16.096 -23.313  0.00  0.00    +0.046 C 
ATOM      4  C   UNL     1      34.245 -16.502 -24.537  0.00  0.00    -0.016 C 
ATOM      5  C   UNL     1      33.865 -17.068 -22.150  0.00  0.00    +0.256 C 
ATOM      6  C   UNL     1      34.643 -18.745 -23.721  0.00  0.00    +0.072 C 
ATOM      7  C   UNL     1      34.665 -17.870 -24.729  0.00  0.00    +0.012 C 
ATOM      8  C   UNL     1      34.291 -15.656 -25.781  0.00  0.00    +0.031 C 
ENDROOT
BRANCH   3  12
ATOM      9  N   UNL     1      32.155 -10.804 -22.329  0.00  0.00    -0.342 NA
ATOM     10  N   UNL     1      33.609  -9.981 -24.064  0.00  0.00    -0.170 NA
ATOM     11  N   UNL     1      32.262  -8.514 -22.830  0.00  0.00    -0.293 N 
ATOM     12  C   UNL     1      33.411 -14.711 -23.060  0.00  0.00    -0.017 C 
ATOM     13  C   UNL     1      33.935 -13.662 -23.810  0.00  0.00    +0.056 C 
ATOM     14  C   UNL     1      32.471 -14.444 -22.071  0.00  0.00    -0.022 C 
ATOM     15  C   UNL     1      33.513 -12.345 -23.567  0.00  0.00    +0.029 C 
ATOM     16  C   UNL     1      32.564 -12.062 -22.571  0.00  0.00    +0.124 C 
ATOM     17  C   UNL     1      32.057 -13.130 -21.835  0.00  0.00    +0.085 C 
ATOM     18  C   UNL     1      33.998 -11.252 -24.281  0.00  0.00    +0.110 C 
ATOM     19  C   UNL     1      32.699  -9.833 -23.089  0.00  0.00    +0.141 C 
ATOM     20  H   UNL     1      31.596  -8.347 -22.126  0.00  0.00    +0.155 HD
ATOM     21  H   UNL     1      32.625  -7.764 -23.354  0.00  0.00    +0.155 HD
ENDBRANCH   3  12
BRANCH   2  22
ATOM     22  C   UNL     1      34.215 -19.403 -21.384  0.00  0.00    +0.058 C 
ATOM     23  C   UNL     1      35.410 -19.837 -20.812  0.00  0.00    +0.019 C 
ATOM     24  C   UNL     1      33.000 -19.930 -20.948  0.00  0.00    +0.015 C 
ATOM     25  C   UNL     1      35.390 -20.798 -19.802  0.00  0.00    +0.073 C 
ATOM     26  C   UNL     1      32.980 -20.891 -19.937  0.00  0.00    +0.001 C 
ATOM     27  C   UNL     1      34.175 -21.326 -19.364  0.00  0.00    +0.004 C 
BRANCH  25  31
ATOM     28  F   UNL     1      36.500 -22.239 -18.247  0.00  0.00    -0.166 F 
ATOM     29  F   UNL     1      37.547 -21.791 -20.093  0.00  0.00    -0.166 F 
ATOM     30  F   UNL     1      37.347 -20.260 -18.562  0.00  0.00    -0.166 F 
ATOM     31  C   UNL     1      36.668 -21.265 -19.189  0.00  0.00    +0.419 C 
ENDBRANCH  25  31
ENDBRANCH   2  22
TORSDOF 3
ENDMDL
MODEL 7
REMARK VINA RESULT:     -11.3      2.873      5.407
REMARK  Name = 24812719
REMARK  3 active torsions:
REMARK  status: ('A' for Active; 'I' for Inactive)
REMARK    1  A    between atoms: N_2  and  C_22
REMARK    2  A    between atoms: C_3  and  C_12
REMARK    3  A    between atoms: C_25  and  C_31
REMARK                            x       y       z     vdW  Elec       q    Type
REMARK                         _______ _______ _______ _____ _____    ______ ____
ROOT
ATOM      1  O   UNL     1      33.555 -12.040 -24.545  0.00  0.00    -0.269 OA
ATOM      2  N   UNL     1      32.970 -13.564 -22.847  0.00  0.00    -0.233 N 
ATOM      3  C   UNL     1      32.594 -11.105 -22.609  0.00  0.00    +0.046 C 
ATOM      4  C   UNL     1      31.984 -11.320 -21.425  0.00  0.00    -0.016 C 
ATOM      5  C   UNL     1      33.102 -12.277 -23.424  0.00  0.00    +0.256 C 
ATOM      6  C   UNL     1      32.319 -13.708 -21.627  0.00  0.00    +0.072 C 
ATOM      7  C   UNL     1      31.838 -12.671 -20.937  0.00  0.00    +0.012 C 
ATOM      8  C   UNL     1      31.424 -10.264 -20.510  0.00  0.00    +0.031 C 
ENDROOT
BRANCH   3  12
ATOM      9  N   UNL     1      33.291  -5.907 -24.693  0.00  0.00    -0.342 NA
ATOM     10  N   UNL     1      30.907  -5.557 -24.704  0.00  0.00    -0.170 NA
ATOM     11  N   UNL     1      32.371  -3.882 -25.440  0.00  0.00    -0.293 N 
ATOM     12  C   UNL     1      32.769  -9.746 -23.154  0.00  0.00    -0.017 C 
ATOM     13  C   UNL     1      31.660  -8.946 -23.411  0.00  0.00    +0.056 C 
ATOM     14  C   UNL     1      34.044  -9.256 -23.415  0.00  0.00    -0.022 C 
ATOM     15  C   UNL     1      31.833  -7.651 -23.929  0.00  0.00    +0.029 C 
ATOM     16  C   UNL     1      33.115  -7.144 -24.196  0.00  0.00    +0.124 C 
ATOM     17  C   UNL     1      34.207  -7.967 -23.931  0.00  0.00    +0.085 C 
ATOM     18  C   UNL     1      30.766  -6.800 -24.207  0.00  0.00    +0.110 C 
ATOM     19  C   UNL     1      32.178  -5.181 -24.920  0.00  0.00    +0.141 C 
ATOM     20  H   UNL     1      33.282  -3.554 -25.617  0.00  0.00    +0.155 HD
ATOM     21  H   UNL     1      31.595  -3.306 -25.625  0.00  0.00    +0.155 HD
ENDBRANCH   3  12
BRANCH   2  22
ATOM     22  C   UNL     1      33.489 -14.726 -23.543  0.00  0.00    +0.058 C 
ATOM     23  C   UNL     1      34.126 -15.739 -22.830  0.00  0.00    +0.019 C 
ATOM     24  C   UNL     1      33.352 -14.828 -24.928  0.00  0.00    +0.015 C 
ATOM     25  C   UNL     1      34.626 -16.856 -23.499  0.00  0.00    +0.073 C 
ATOM     26  C   UNL     1      33.852 -15.945 -25.597  0.00  0.00    +0.001 C 
ATOM     27  C   UNL     1      34.490 -16.959 -24.883  0.00  0.00    +0.004 C 
BRANCH  25  31
ATOM     28  F   UNL     1      36.446 -18.401 -23.336  0.00  0.00    -0.166 F 
ATOM     29  F   UNL     1      35.697 -17.565 -21.480  0.00  0.00    -0.166 F 
ATOM     30  F   UNL     1      34.517 -19.038 -22.560  0.00  0.00    -0.166 F 
ATOM     31  C   UNL     1      35.309 -17.941 -22.735  0.00  0.00    +0.419 C 
ENDBRANCH  25  31
ENDBRANCH   2  22
TORSDOF 3
ENDMDL
MODEL 8
REMARK VINA RESULT:     -10.8      6.207     10.582
REMARK  Name = 24812719
REMARK  3 active torsions:
REMARK  status: ('A' for Active; 'I' for Inactive)
REMARK    1  A    between atoms: N_2  and  C_22
REMARK    2  A    between atoms: C_3  and  C_12
REMARK    3  A    between atoms: C_25  and  C_31
REMARK                            x       y       z     vdW  Elec       q    Type
REMARK                         _______ _______ _______ _____ _____    ______ ____
ROOT
ATOM      1  O   UNL     1      34.019 -10.701 -24.524  0.00  0.00    -0.269 OA
ATOM      2  N   UNL     1      32.815  -9.250 -23.114  0.00  0.00    -0.233 N 
ATOM      3  C   UNL     1      32.765 -11.730 -22.816  0.00  0.00    +0.046 C 
ATOM      4  C   UNL     1      32.014 -11.575 -21.706  0.00  0.00    -0.016 C 
ATOM      5  C   UNL     1      33.249 -10.514 -23.580  0.00  0.00    +0.256 C 
ATOM      6  C   UNL     1      32.052  -9.168 -21.955  0.00  0.00    +0.072 C 
ATOM      7  C   UNL     1      31.665 -10.244 -21.266  0.00  0.00    +0.012 C 
ATOM      8  C   UNL     1      31.468 -12.679 -20.842  0.00  0.00    +0.031 C 
ENDROOT
BRANCH   3  12
ATOM      9  N   UNL     1      34.227 -16.835 -24.726  0.00  0.00    -0.342 NA
ATOM     10  N   UNL     1      35.287 -17.353 -22.625  0.00  0.00    -0.170 NA
ATOM     11  N   UNL     1      35.267 -18.909 -24.376  0.00  0.00    -0.293 N 
ATOM     12  C   UNL     1      33.151 -13.065 -23.309  0.00  0.00    -0.017 C 
ATOM     13  C   UNL     1      33.857 -13.938 -22.487  0.00  0.00    +0.056 C 
ATOM     14  C   UNL     1      32.810 -13.460 -24.598  0.00  0.00    -0.022 C 
ATOM     15  C   UNL     1      34.220 -15.210 -22.962  0.00  0.00    +0.029 C 
ATOM     16  C   UNL     1      33.883 -15.620 -24.262  0.00  0.00    +0.124 C 
ATOM     17  C   UNL     1      33.177 -14.727 -25.062  0.00  0.00    +0.085 C 
ATOM     18  C   UNL     1      34.927 -16.130 -22.191  0.00  0.00    +0.110 C 
ATOM     19  C   UNL     1      34.910 -17.634 -23.882  0.00  0.00    +0.141 C 
ATOM     20  H   UNL     1      35.016 -19.169 -25.291  0.00  0.00    +0.155 HD
ATOM     21  H   UNL     1      35.765 -19.536 -23.804  0.00  0.00    +0.155 HD
ENDBRANCH   3  12
BRANCH   2  22
ATOM     22  C   UNL     1      33.189  -8.046 -23.832  0.00  0.00    +0.058 C 
ATOM     23  C   UNL     1      32.241  -7.052 -24.070  0.00  0.00    +0.019 C 
ATOM     24  C   UNL     1      34.498  -7.884 -24.285  0.00  0.00    +0.015 C 
ATOM     25  C   UNL     1      32.601  -5.895 -24.760  0.00  0.00    +0.073 C 
ATOM     26  C   UNL     1      34.859  -6.727 -24.976  0.00  0.00    +0.001 C 
ATOM     27  C   UNL     1      33.910  -5.733 -25.214  0.00  0.00    +0.004 C 
BRANCH  25  31
ATOM     28  F   UNL     1      31.690  -3.761 -24.175  0.00  0.00    -0.166 F 
ATOM     29  F   UNL     1      31.654  -4.304 -26.275  0.00  0.00    -0.166 F 
ATOM     30  F   UNL     1      30.306  -5.284 -24.878  0.00  0.00    -0.166 F 
ATOM     31  C   UNL     1      31.586  -4.832 -25.016  0.00  0.00    +0.419 C 
ENDBRANCH  25  31
ENDBRANCH   2  22
TORSDOF 3
ENDMDL
MODEL 9
REMARK VINA RESULT:     -10.4      4.552      6.834
REMARK  Name = 24812719
REMARK  3 active torsions:
REMARK  status: ('A' for Active; 'I' for Inactive)
REMARK    1  A    between atoms: N_2  and  C_22
REMARK    2  A    between atoms: C_3  and  C_12
REMARK    3  A    between atoms: C_25  and  C_31
REMARK                            x       y       z     vdW  Elec       q    Type
REMARK                         _______ _______ _______ _____ _____    ______ ____
ROOT
ATOM      1  O   UNL     1      32.889 -10.937 -23.494  0.00  0.00    -0.269 OA
ATOM      2  N   UNL     1      32.646 -12.755 -22.016  0.00  0.00    -0.233 N 
ATOM      3  C   UNL     1      32.029 -10.424 -21.362  0.00  0.00    +0.046 C 
ATOM      4  C   UNL     1      31.567 -10.884 -20.181  0.00  0.00    -0.016 C 
ATOM      5  C   UNL     1      32.579 -11.391 -22.391  0.00  0.00    +0.256 C 
ATOM      6  C   UNL     1      32.139 -13.157 -20.785  0.00  0.00    +0.072 C 
ATOM      7  C   UNL     1      31.619 -12.300 -19.903  0.00  0.00    +0.012 C 
ATOM      8  C   UNL     1      30.988 -10.052 -19.068  0.00  0.00    +0.031 C 
ENDROOT
BRANCH   3  12
ATOM      9  N   UNL     1      31.926  -4.924 -22.622  0.00  0.00    -0.342 NA
ATOM     10  N   UNL     1      30.829  -5.390 -24.715  0.00  0.00    -0.170 NA
ATOM     11  N   UNL     1      31.350  -3.192 -24.097  0.00  0.00    -0.293 N 
ATOM     12  C   UNL     1      31.999  -8.988 -21.698  0.00  0.00    -0.017 C 
ATOM     13  C   UNL     1      31.438  -8.560 -22.897  0.00  0.00    +0.056 C 
ATOM     14  C   UNL     1      32.532  -8.052 -20.817  0.00  0.00    -0.022 C 
ATOM     15  C   UNL     1      31.411  -7.191 -23.211  0.00  0.00    +0.029 C 
ATOM     16  C   UNL     1      31.946  -6.236 -22.330  0.00  0.00    +0.124 C 
ATOM     17  C   UNL     1      32.502  -6.692 -21.138  0.00  0.00    +0.085 C 
ATOM     18  C   UNL     1      30.865  -6.697 -24.393  0.00  0.00    +0.110 C 
ATOM     19  C   UNL     1      31.369  -4.573 -23.798  0.00  0.00    +0.141 C 
ATOM     20  H   UNL     1      31.732  -2.546 -23.460  0.00  0.00    +0.155 HD
ATOM     21  H   UNL     1      30.955  -2.876 -24.941  0.00  0.00    +0.155 HD
ENDBRANCH   3  12
BRANCH   2  22
ATOM     22  C   UNL     1      33.216 -13.729 -22.927  0.00  0.00    +0.058 C 
ATOM     23  C   UNL     1      32.774 -13.792 -24.248  0.00  0.00    +0.019 C 
ATOM     24  C   UNL     1      34.206 -14.604 -22.481  0.00  0.00    +0.015 C 
ATOM     25  C   UNL     1      33.321 -14.729 -25.123  0.00  0.00    +0.073 C 
ATOM     26  C   UNL     1      34.755 -15.541 -23.356  0.00  0.00    +0.001 C 
ATOM     27  C   UNL     1      34.312 -15.605 -24.677  0.00  0.00    +0.004 C 
BRANCH  25  31
ATOM     28  F   UNL     1      31.844 -13.917 -26.820  0.00  0.00    -0.166 F 
ATOM     29  F   UNL     1      33.824 -14.533 -27.453  0.00  0.00    -0.166 F 
ATOM     30  F   UNL     1      32.360 -16.029 -26.866  0.00  0.00    -0.166 F 
ATOM     31  C   UNL     1      32.848 -14.798 -26.536  0.00  0.00    +0.419 C 
ENDBRANCH  25  31
ENDBRANCH   2  22
TORSDOF 3
ENDMDL
