MODEL 1
REMARK VINA RESULT:      -6.2      0.000      0.000
REMARK  Name = 208925
REMARK  9 active torsions:
REMARK  status: ('A' for Active; 'I' for Inactive)
REMARK    1  A    between atoms: C_1  and  C_3
REMARK    2  A    between atoms: C_1  and  C_6
REMARK    3  A    between atoms: C_1  and  C_12
REMARK    4  A    between atoms: C_3  and  O_4
REMARK    5  A    between atoms: C_6  and  C_7
REMARK    6  A    between atoms: C_7  and  C_8
REMARK    7  A    between atoms: C_8  and  C_9
REMARK    8  A    between atoms: C_9  and  C_10
REMARK    9  A    between atoms: C_12  and  C_13
REMARK                            x       y       z     vdW  Elec       q    Type
REMARK                         _______ _______ _______ _____ _____    ______ ____
ROOT
ATOM      1  C   UNL     1      34.296 -16.572 -23.586  0.00  0.00    +0.099 C 
ENDROOT
BRANCH   1   3
ATOM      2  O   UNL     1      33.454 -15.334 -25.521  0.00  0.00    -0.250 OA
ATOM      3  C   UNL     1      34.145 -16.235 -25.066  0.00  0.00    +0.313 C 
BRANCH   3   4
ATOM      4  O   UNL     1      34.875 -17.065 -25.857  0.00  0.00    -0.480 OA
ATOM      5  H   UNL     1      34.485 -17.842 -26.206  0.00  0.00    +0.295 HD
ENDBRANCH   3   4
ENDBRANCH   1   3
BRANCH   1   6
ATOM      6  C   UNL     1      35.278 -17.743 -23.368  0.00  0.00    +0.011 C 
BRANCH   6   7
ATOM      7  C   UNL     1      34.637 -19.081 -22.969  0.00  0.00    +0.001 C 
BRANCH   7   8
ATOM      8  C   UNL     1      34.668 -19.269 -21.449  0.00  0.00    +0.000 C 
BRANCH   8   9
ATOM      9  C   UNL     1      33.304 -19.631 -20.853  0.00  0.00    +0.000 C 
BRANCH   9  10
ATOM     10  C   UNL     1      33.351 -20.840 -19.918  0.00  0.00    +0.000 C 
ATOM     11  C   UNL     1      34.783 -21.280 -19.653  0.00  0.00    +0.000 C 
ENDBRANCH   9  10
ENDBRANCH   8   9
ENDBRANCH   7   8
ENDBRANCH   6   7
ENDBRANCH   1   6
BRANCH   1  12
ATOM     12  C   UNL     1      34.631 -15.296 -22.795  0.00  0.00    +0.011 C 
BRANCH  12  13
ATOM     13  C   UNL     1      34.470 -15.407 -21.275  0.00  0.00    +0.001 C 
ATOM     14  C   UNL     1      33.044 -15.706 -20.837  0.00  0.00    +0.000 C 
ENDBRANCH  12  13
ENDBRANCH   1  12
TORSDOF 9
ENDMDL
MODEL 2
REMARK VINA RESULT:      -6.1      1.407      1.918
REMARK  Name = 208925
REMARK  9 active torsions:
REMARK  status: ('A' for Active; 'I' for Inactive)
REMARK    1  A    between atoms: C_1  and  C_3
REMARK    2  A    between atoms: C_1  and  C_6
REMARK    3  A    between atoms: C_1  and  C_12
REMARK    4  A    between atoms: C_3  and  O_4
REMARK    5  A    between atoms: C_6  and  C_7
REMARK    6  A    between atoms: C_7  and  C_8
REMARK    7  A    between atoms: C_8  and  C_9
REMARK    8  A    between atoms: C_9  and  C_10
REMARK    9  A    between atoms: C_12  and  C_13
REMARK                            x       y       z     vdW  Elec       q    Type
REMARK                         _______ _______ _______ _____ _____    ______ ____
ROOT
ATOM      1  C   UNL     1      34.520 -16.895 -21.757  0.00  0.00    +0.099 C 
ENDROOT
BRANCH   1   3
ATOM      2  O   UNL     1      35.005 -15.140 -23.392  0.00  0.00    -0.250 OA
ATOM      3  C   UNL     1      35.062 -16.317 -23.060  0.00  0.00    +0.313 C 
BRANCH   3   4
ATOM      4  O   UNL     1      35.629 -17.270 -23.847  0.00  0.00    -0.480 OA
ATOM      5  H   UNL     1      36.506 -17.159 -24.158  0.00  0.00    +0.295 HD
ENDBRANCH   3   4
ENDBRANCH   1   3
BRANCH   1   6
ATOM      6  C   UNL     1      35.432 -18.014 -21.211  0.00  0.00    +0.011 C 
BRANCH   6   7
ATOM      7  C   UNL     1      34.882 -19.442 -21.342  0.00  0.00    +0.001 C 
BRANCH   7   8
ATOM      8  C   UNL     1      33.404 -19.497 -20.939  0.00  0.00    +0.000 C 
BRANCH   8   9
ATOM      9  C   UNL     1      33.084 -20.623 -19.953  0.00  0.00    +0.000 C 
BRANCH   9  10
ATOM     10  C   UNL     1      34.306 -21.454 -19.560  0.00  0.00    +0.000 C 
ATOM     11  C   UNL     1      33.924 -22.596 -18.631  0.00  0.00    +0.000 C 
ENDBRANCH   9  10
ENDBRANCH   8   9
ENDBRANCH   7   8
ENDBRANCH   6   7
ENDBRANCH   1   6
BRANCH   1  12
ATOM     12  C   UNL     1      34.233 -15.757 -20.764  0.00  0.00    +0.011 C 
BRANCH  12  13
ATOM     13  C   UNL     1      32.770 -15.306 -20.689  0.00  0.00    +0.001 C 
ATOM     14  C   UNL     1      32.585 -13.812 -20.906  0.00  0.00    +0.000 C 
ENDBRANCH  12  13
ENDBRANCH   1  12
TORSDOF 9
ENDMDL
MODEL 3
REMARK VINA RESULT:      -6.1      1.438      2.251
REMARK  Name = 208925
REMARK  9 active torsions:
REMARK  status: ('A' for Active; 'I' for Inactive)
REMARK    1  A    between atoms: C_1  and  C_3
REMARK    2  A    between atoms: C_1  and  C_6
REMARK    3  A    between atoms: C_1  and  C_12
REMARK    4  A    between atoms: C_3  and  O_4
REMARK    5  A    between atoms: C_6  and  C_7
REMARK    6  A    between atoms: C_7  and  C_8
REMARK    7  A    between atoms: C_8  and  C_9
REMARK    8  A    between atoms: C_9  and  C_10
REMARK    9  A    between atoms: C_12  and  C_13
REMARK                            x       y       z     vdW  Elec       q    Type
REMARK                         _______ _______ _______ _____ _____    ______ ____
ROOT
ATOM      1  C   UNL     1      33.780 -15.806 -24.366  0.00  0.00    +0.099 C 
ENDROOT
BRANCH   1   3
ATOM      2  O   UNL     1      33.346 -15.422 -26.743  0.00  0.00    -0.250 OA
ATOM      3  C   UNL     1      33.375 -14.999 -25.595  0.00  0.00    +0.313 C 
BRANCH   3   4
ATOM      4  O   UNL     1      33.042 -13.719 -25.280  0.00  0.00    -0.480 OA
ATOM      5  H   UNL     1      33.610 -13.206 -24.740  0.00  0.00    +0.295 HD
ENDBRANCH   3   4
ENDBRANCH   1   3
BRANCH   1   6
ATOM      6  C   UNL     1      34.921 -16.795 -24.688  0.00  0.00    +0.011 C 
BRANCH   6   7
ATOM      7  C   UNL     1      34.487 -18.242 -24.963  0.00  0.00    +0.001 C 
BRANCH   7   8
ATOM      8  C   UNL     1      34.855 -19.156 -23.790  0.00  0.00    +0.000 C 
BRANCH   8   9
ATOM      9  C   UNL     1      35.766 -18.484 -22.758  0.00  0.00    +0.000 C 
BRANCH   9  10
ATOM     10  C   UNL     1      35.473 -18.911 -21.319  0.00  0.00    +0.000 C 
ATOM     11  C   UNL     1      33.990 -19.180 -21.112  0.00  0.00    +0.000 C 
ENDBRANCH   9  10
ENDBRANCH   8   9
ENDBRANCH   7   8
ENDBRANCH   6   7
ENDBRANCH   1   6
BRANCH   1  12
ATOM     12  C   UNL     1      34.066 -14.855 -23.191  0.00  0.00    +0.011 C 
BRANCH  12  13
ATOM     13  C   UNL     1      33.480 -15.286 -21.842  0.00  0.00    +0.001 C 
ATOM     14  C   UNL     1      34.524 -15.430 -20.747  0.00  0.00    +0.000 C 
ENDBRANCH  12  13
ENDBRANCH   1  12
TORSDOF 9
ENDMDL
MODEL 4
REMARK VINA RESULT:      -6.0      4.423      6.619
REMARK  Name = 208925
REMARK  9 active torsions:
REMARK  status: ('A' for Active; 'I' for Inactive)
REMARK    1  A    between atoms: C_1  and  C_3
REMARK    2  A    between atoms: C_1  and  C_6
REMARK    3  A    between atoms: C_1  and  C_12
REMARK    4  A    between atoms: C_3  and  O_4
REMARK    5  A    between atoms: C_6  and  C_7
REMARK    6  A    between atoms: C_7  and  C_8
REMARK    7  A    between atoms: C_8  and  C_9
REMARK    8  A    between atoms: C_9  and  C_10
REMARK    9  A    between atoms: C_12  and  C_13
REMARK                            x       y       z     vdW  Elec       q    Type
REMARK                         _______ _______ _______ _____ _____    ______ ____
ROOT
ATOM      1  C   UNL     1      33.960 -21.826 -19.375  0.00  0.00    +0.099 C 
ENDROOT
BRANCH   1   3
ATOM      2  O   UNL     1      32.124 -22.580 -17.945  0.00  0.00    -0.250 OA
ATOM      3  C   UNL     1      33.298 -22.657 -18.281  0.00  0.00    +0.313 C 
BRANCH   3   4
ATOM      4  O   UNL     1      34.170 -23.519 -17.693  0.00  0.00    -0.480 OA
ATOM      5  H   UNL     1      34.553 -23.305 -16.865  0.00  0.00    +0.295 HD
ENDBRANCH   3   4
ENDBRANCH   1   3
BRANCH   1   6
ATOM      6  C   UNL     1      33.109 -20.592 -19.743  0.00  0.00    +0.011 C 
BRANCH   6   7
ATOM      7  C   UNL     1      33.328 -20.031 -21.156  0.00  0.00    +0.001 C 
BRANCH   7   8
ATOM      8  C   UNL     1      33.799 -18.574 -21.098  0.00  0.00    +0.000 C 
BRANCH   8   9
ATOM      9  C   UNL     1      34.692 -18.176 -22.276  0.00  0.00    +0.000 C 
BRANCH   9  10
ATOM     10  C   UNL     1      34.863 -19.287 -23.313  0.00  0.00    +0.000 C 
ATOM     11  C   UNL     1      34.467 -18.814 -24.703  0.00  0.00    +0.000 C 
ENDBRANCH   9  10
ENDBRANCH   8   9
ENDBRANCH   7   8
ENDBRANCH   6   7
ENDBRANCH   1   6
BRANCH   1  12
ATOM     12  C   UNL     1      35.413 -21.512 -18.982  0.00  0.00    +0.011 C 
BRANCH  12  13
ATOM     13  C   UNL     1      36.392 -21.365 -20.151  0.00  0.00    +0.001 C 
ATOM     14  C   UNL     1      37.003 -19.977 -20.258  0.00  0.00    +0.000 C 
ENDBRANCH  12  13
ENDBRANCH   1  12
TORSDOF 9
ENDMDL
MODEL 5
REMARK VINA RESULT:      -5.9      2.099      3.048
REMARK  Name = 208925
REMARK  9 active torsions:
REMARK  status: ('A' for Active; 'I' for Inactive)
REMARK    1  A    between atoms: C_1  and  C_3
REMARK    2  A    between atoms: C_1  and  C_6
REMARK    3  A    between atoms: C_1  and  C_12
REMARK    4  A    between atoms: C_3  and  O_4
REMARK    5  A    between atoms: C_6  and  C_7
REMARK    6  A    between atoms: C_7  and  C_8
REMARK    7  A    between atoms: C_8  and  C_9
REMARK    8  A    between atoms: C_9  and  C_10
REMARK    9  A    between atoms: C_12  and  C_13
REMARK                            x       y       z     vdW  Elec       q    Type
REMARK                         _______ _______ _______ _____ _____    ______ ____
ROOT
ATOM      1  C   UNL     1      34.949 -16.449 -22.283  0.00  0.00    +0.099 C 
ENDROOT
BRANCH   1   3
ATOM      2  O   UNL     1      34.196 -14.124 -22.179  0.00  0.00    -0.250 OA
ATOM      3  C   UNL     1      34.627 -15.119 -21.611  0.00  0.00    +0.313 C 
BRANCH   3   4
ATOM      4  O   UNL     1      34.878 -15.145 -20.275  0.00  0.00    -0.480 OA
ATOM      5  H   UNL     1      34.341 -14.650 -19.688  0.00  0.00    +0.295 HD
ENDBRANCH   3   4
ENDBRANCH   1   3
BRANCH   1   6
ATOM      6  C   UNL     1      34.685 -17.641 -21.338  0.00  0.00    +0.011 C 
BRANCH   6   7
ATOM      7  C   UNL     1      35.816 -18.675 -21.240  0.00  0.00    +0.001 C 
BRANCH   7   8
ATOM      8  C   UNL     1      35.287 -20.016 -20.721  0.00  0.00    +0.000 C 
BRANCH   8   9
ATOM      9  C   UNL     1      33.760 -20.066 -20.609  0.00  0.00    +0.000 C 
BRANCH   9  10
ATOM     10  C   UNL     1      33.250 -21.242 -19.776  0.00  0.00    +0.000 C 
ATOM     11  C   UNL     1      34.398 -22.005 -19.133  0.00  0.00    +0.000 C 
ENDBRANCH   9  10
ENDBRANCH   8   9
ENDBRANCH   7   8
ENDBRANCH   6   7
ENDBRANCH   1   6
BRANCH   1  12
ATOM     12  C   UNL     1      34.232 -16.533 -23.641  0.00  0.00    +0.011 C 
BRANCH  12  13
ATOM     13  C   UNL     1      34.924 -17.402 -24.695  0.00  0.00    +0.001 C 
ATOM     14  C   UNL     1      34.431 -18.841 -24.714  0.00  0.00    +0.000 C 
ENDBRANCH  12  13
ENDBRANCH   1  12
TORSDOF 9
ENDMDL
MODEL 6
REMARK VINA RESULT:      -5.9      2.352      4.889
REMARK  Name = 208925
REMARK  9 active torsions:
REMARK  status: ('A' for Active; 'I' for Inactive)
REMARK    1  A    between atoms: C_1  and  C_3
REMARK    2  A    between atoms: C_1  and  C_6
REMARK    3  A    between atoms: C_1  and  C_12
REMARK    4  A    between atoms: C_3  and  O_4
REMARK    5  A    between atoms: C_6  and  C_7
REMARK    6  A    between atoms: C_7  and  C_8
REMARK    7  A    between atoms: C_8  and  C_9
REMARK    8  A    between atoms: C_9  and  C_10
REMARK    9  A    between atoms: C_12  and  C_13
REMARK                            x       y       z     vdW  Elec       q    Type
REMARK                         _______ _______ _______ _____ _____    ______ ____
ROOT
ATOM      1  C   UNL     1      34.977 -18.463 -22.103  0.00  0.00    +0.099 C 
ENDROOT
BRANCH   1   3
ATOM      2  O   UNL     1      36.534 -19.185 -20.359  0.00  0.00    -0.250 OA
ATOM      3  C   UNL     1      36.343 -18.729 -21.479  0.00  0.00    +0.313 C 
BRANCH   3   4
ATOM      4  O   UNL     1      37.362 -18.395 -22.314  0.00  0.00    -0.480 OA
ATOM      5  H   UNL     1      37.290 -18.565 -23.232  0.00  0.00    +0.295 HD
ENDBRANCH   3   4
ENDBRANCH   1   3
BRANCH   1   6
ATOM      6  C   UNL     1      34.748 -19.331 -23.359  0.00  0.00    +0.011 C 
BRANCH   6   7
ATOM      7  C   UNL     1      34.296 -18.574 -24.616  0.00  0.00    +0.001 C 
BRANCH   7   8
ATOM      8  C   UNL     1      34.989 -17.211 -24.713  0.00  0.00    +0.000 C 
BRANCH   8   9
ATOM      9  C   UNL     1      34.020 -16.028 -24.636  0.00  0.00    +0.000 C 
BRANCH   9  10
ATOM     10  C   UNL     1      34.327 -15.064 -23.490  0.00  0.00    +0.000 C 
ATOM     11  C   UNL     1      33.193 -15.028 -22.477  0.00  0.00    +0.000 C 
ENDBRANCH   9  10
ENDBRANCH   8   9
ENDBRANCH   7   8
ENDBRANCH   6   7
ENDBRANCH   1   6
BRANCH   1  12
ATOM     12  C   UNL     1      33.883 -18.583 -21.029  0.00  0.00    +0.011 C 
BRANCH  12  13
ATOM     13  C   UNL     1      33.080 -19.888 -21.055  0.00  0.00    +0.001 C 
ATOM     14  C   UNL     1      33.421 -20.831 -19.912  0.00  0.00    +0.000 C 
ENDBRANCH  12  13
ENDBRANCH   1  12
TORSDOF 9
ENDMDL
MODEL 7
REMARK VINA RESULT:      -5.9      4.471      6.657
REMARK  Name = 208925
REMARK  9 active torsions:
REMARK  status: ('A' for Active; 'I' for Inactive)
REMARK    1  A    between atoms: C_1  and  C_3
REMARK    2  A    between atoms: C_1  and  C_6
REMARK    3  A    between atoms: C_1  and  C_12
REMARK    4  A    between atoms: C_3  and  O_4
REMARK    5  A    between atoms: C_6  and  C_7
REMARK    6  A    between atoms: C_7  and  C_8
REMARK    7  A    between atoms: C_8  and  C_9
REMARK    8  A    between atoms: C_9  and  C_10
REMARK    9  A    between atoms: C_12  and  C_13
REMARK                            x       y       z     vdW  Elec       q    Type
REMARK                         _______ _______ _______ _____ _____    ______ ____
ROOT
ATOM      1  C   UNL     1      35.806 -21.228 -19.085  0.00  0.00    +0.099 C 
ENDROOT
BRANCH   1   3
ATOM      2  O   UNL     1      36.289 -22.686 -17.181  0.00  0.00    -0.250 OA
ATOM      3  C   UNL     1      36.462 -21.625 -17.767  0.00  0.00    +0.313 C 
BRANCH   3   4
ATOM      4  O   UNL     1      37.280 -20.651 -17.287  0.00  0.00    -0.480 OA
ATOM      5  H   UNL     1      37.280 -20.447 -16.373  0.00  0.00    +0.295 HD
ENDBRANCH   3   4
ENDBRANCH   1   3
BRANCH   1   6
ATOM      6  C   UNL     1      36.851 -21.053 -20.208  0.00  0.00    +0.011 C 
BRANCH   6   7
ATOM      7  C   UNL     1      37.119 -19.606 -20.647  0.00  0.00    +0.001 C 
BRANCH   7   8
ATOM      8  C   UNL     1      35.805 -18.869 -20.930  0.00  0.00    +0.000 C 
BRANCH   8   9
ATOM      9  C   UNL     1      35.676 -18.390 -22.378  0.00  0.00    +0.000 C 
BRANCH   9  10
ATOM     10  C   UNL     1      34.805 -19.300 -23.244  0.00  0.00    +0.000 C 
ATOM     11  C   UNL     1      34.567 -18.695 -24.619  0.00  0.00    +0.000 C 
ENDBRANCH   9  10
ENDBRANCH   8   9
ENDBRANCH   7   8
ENDBRANCH   6   7
ENDBRANCH   1   6
BRANCH   1  12
ATOM     12  C   UNL     1      34.665 -22.205 -19.414  0.00  0.00    +0.011 C 
BRANCH  12  13
ATOM     13  C   UNL     1      33.250 -21.645 -19.237  0.00  0.00    +0.001 C 
ATOM     14  C   UNL     1      32.930 -20.498 -20.183  0.00  0.00    +0.000 C 
ENDBRANCH  12  13
ENDBRANCH   1  12
TORSDOF 9
ENDMDL
MODEL 8
REMARK VINA RESULT:      -5.8      2.889      4.859
REMARK  Name = 208925
REMARK  9 active torsions:
REMARK  status: ('A' for Active; 'I' for Inactive)
REMARK    1  A    between atoms: C_1  and  C_3
REMARK    2  A    between atoms: C_1  and  C_6
REMARK    3  A    between atoms: C_1  and  C_12
REMARK    4  A    between atoms: C_3  and  O_4
REMARK    5  A    between atoms: C_6  and  C_7
REMARK    6  A    between atoms: C_7  and  C_8
REMARK    7  A    between atoms: C_8  and  C_9
REMARK    8  A    between atoms: C_9  and  C_10
REMARK    9  A    between atoms: C_12  and  C_13
REMARK                            x       y       z     vdW  Elec       q    Type
REMARK                         _______ _______ _______ _____ _____    ______ ____
ROOT
ATOM      1  C   UNL     1      35.449 -18.055 -21.551  0.00  0.00    +0.099 C 
ENDROOT
BRANCH   1   3
ATOM      2  O   UNL     1      34.239 -19.979 -20.646  0.00  0.00    -0.250 OA
ATOM      3  C   UNL     1      35.286 -19.359 -20.777  0.00  0.00    +0.313 C 
BRANCH   3   4
ATOM      4  O   UNL     1      36.456 -19.777 -20.226  0.00  0.00    -0.480 OA
ATOM      5  H   UNL     1      36.564 -19.772 -19.295  0.00  0.00    +0.295 HD
ENDBRANCH   3   4
ENDBRANCH   1   3
BRANCH   1   6
ATOM      6  C   UNL     1      35.818 -18.314 -23.028  0.00  0.00    +0.011 C 
BRANCH   6   7
ATOM      7  C   UNL     1      34.741 -19.016 -23.868  0.00  0.00    +0.001 C 
BRANCH   7   8
ATOM      8  C   UNL     1      34.315 -18.142 -25.051  0.00  0.00    +0.000 C 
BRANCH   8   9
ATOM      9  C   UNL     1      34.861 -16.713 -24.981  0.00  0.00    +0.000 C 
BRANCH   9  10
ATOM     10  C   UNL     1      33.775 -15.657 -24.771  0.00  0.00    +0.000 C 
ATOM     11  C   UNL     1      33.168 -15.216 -26.094  0.00  0.00    +0.000 C 
ENDBRANCH   9  10
ENDBRANCH   8   9
ENDBRANCH   7   8
ENDBRANCH   6   7
ENDBRANCH   1   6
BRANCH   1  12
ATOM     12  C   UNL     1      34.209 -17.169 -21.343  0.00  0.00    +0.011 C 
BRANCH  12  13
ATOM     13  C   UNL     1      34.489 -15.771 -20.783  0.00  0.00    +0.001 C 
ATOM     14  C   UNL     1      33.240 -14.917 -20.634  0.00  0.00    +0.000 C 
ENDBRANCH  12  13
ENDBRANCH   1  12
TORSDOF 9
ENDMDL
MODEL 9
REMARK VINA RESULT:      -5.8      1.617      4.763
REMARK  Name = 208925
REMARK  9 active torsions:
REMARK  status: ('A' for Active; 'I' for Inactive)
REMARK    1  A    between atoms: C_1  and  C_3
REMARK    2  A    between atoms: C_1  and  C_6
REMARK    3  A    between atoms: C_1  and  C_12
REMARK    4  A    between atoms: C_3  and  O_4
REMARK    5  A    between atoms: C_6  and  C_7
REMARK    6  A    between atoms: C_7  and  C_8
REMARK    7  A    between atoms: C_8  and  C_9
REMARK    8  A    between atoms: C_9  and  C_10
REMARK    9  A    between atoms: C_12  and  C_13
REMARK                            x       y       z     vdW  Elec       q    Type
REMARK                         _______ _______ _______ _____ _____    ______ ____
ROOT
ATOM      1  C   UNL     1      35.234 -18.068 -22.171  0.00  0.00    +0.099 C 
ENDROOT
BRANCH   1   3
ATOM      2  O   UNL     1      34.499 -17.979 -24.503  0.00  0.00    -0.250 OA
ATOM      3  C   UNL     1      35.117 -17.478 -23.573  0.00  0.00    +0.313 C 
BRANCH   3   4
ATOM      4  O   UNL     1      35.793 -16.305 -23.694  0.00  0.00    -0.480 OA
ATOM      5  H   UNL     1      36.479 -16.095 -23.091  0.00  0.00    +0.295 HD
ENDBRANCH   3   4
ENDBRANCH   1   3
BRANCH   1   6
ATOM      6  C   UNL     1      35.034 -16.989 -21.085  0.00  0.00    +0.011 C 
BRANCH   6   7
ATOM      7  C   UNL     1      33.646 -16.333 -21.049  0.00  0.00    +0.001 C 
BRANCH   7   8
ATOM      8  C   UNL     1      33.761 -14.808 -21.143  0.00  0.00    +0.000 C 
BRANCH   8   9
ATOM      9  C   UNL     1      32.425 -14.113 -21.422  0.00  0.00    +0.000 C 
BRANCH   9  10
ATOM     10  C   UNL     1      32.414 -13.319 -22.729  0.00  0.00    +0.000 C 
ATOM     11  C   UNL     1      33.139 -14.067 -23.838  0.00  0.00    +0.000 C 
ENDBRANCH   9  10
ENDBRANCH   8   9
ENDBRANCH   7   8
ENDBRANCH   6   7
ENDBRANCH   1   6
BRANCH   1  12
ATOM     12  C   UNL     1      34.311 -19.290 -22.043  0.00  0.00    +0.011 C 
BRANCH  12  13
ATOM     13  C   UNL     1      34.429 -20.066 -20.726  0.00  0.00    +0.001 C 
ATOM     14  C   UNL     1      33.087 -20.477 -20.143  0.00  0.00    +0.000 C 
ENDBRANCH  12  13
ENDBRANCH   1  12
TORSDOF 9
ENDMDL
