MODEL 1
REMARK VINA RESULT:      -8.7      0.000      0.000
REMARK  Name = 5288855
REMARK  6 active torsions:
REMARK  status: ('A' for Active; 'I' for Inactive)
REMARK    1  A    between atoms: C_2  and  C_11
REMARK    2  A    between atoms: C_3  and  C_24
REMARK    3  A    between atoms: C_4  and  O_20
REMARK    4  A    between atoms: C_5  and  O_22
REMARK    5  A    between atoms: C_15  and  O_18
REMARK    6  A    between atoms: C_24  and  S_25
REMARK                            x       y       z     vdW  Elec       q    Type
REMARK                         _______ _______ _______ _____ _____    ______ ____
ROOT
ATOM      1  N   UNL     1      34.902 -17.024 -20.725  0.00  0.00    +0.393 N 
ATOM      2  C   UNL     1      34.858 -18.285 -21.574  0.00  0.00    -0.006 C 
ATOM      3  C   UNL     1      34.544 -15.823 -21.581  0.00  0.00    -0.020 C 
ATOM      4  C   UNL     1      34.156 -17.826 -22.853  0.00  0.00    +0.120 C 
ATOM      5  C   UNL     1      34.581 -16.368 -23.005  0.00  0.00    +0.117 C 
ATOM      6  H   UNL     1      35.840 -16.903 -20.344  0.00  0.00    -0.084 HD
ATOM      7  H   UNL     1      34.231 -17.107 -19.960  0.00  0.00    -0.084 HD
ENDROOT
BRANCH   2  11
ATOM      8  N   UNL     1      32.725 -20.989 -20.260  0.00  0.00    -0.322 N 
ATOM      9  N   UNL     1      36.155 -20.467 -19.647  0.00  0.00    -0.247 NA
ATOM     10  N   UNL     1      35.538 -22.467 -18.403  0.00  0.00    -0.213 NA
ATOM     11  C   UNL     1      34.225 -19.472 -20.908  0.00  0.00    -0.010 C 
ATOM     12  C   UNL     1      34.865 -20.409 -20.059  0.00  0.00    +0.078 C 
ATOM     13  C   UNL     1      32.905 -19.856 -21.013  0.00  0.00    +0.053 C 
ATOM     14  C   UNL     1      33.910 -21.344 -19.668  0.00  0.00    +0.186 C 
ATOM     15  C   UNL     1      34.258 -22.387 -18.827  0.00  0.00    +0.219 C 
ATOM     16  C   UNL     1      36.396 -21.515 -18.833  0.00  0.00    +0.253 C 
ATOM     17  H   UNL     1      31.874 -21.474 -20.159  0.00  0.00    +0.148 HD
BRANCH  15  18
ATOM     18  O   UNL     1      33.365 -23.339 -18.407  0.00  0.00    -0.494 OA
ATOM     19  H   UNL     1      33.611 -24.243 -18.406  0.00  0.00    +0.293 HD
ENDBRANCH  15  18
ENDBRANCH   2  11
BRANCH   4  20
ATOM     20  O   UNL     1      34.562 -18.605 -23.965  0.00  0.00    -0.384 OA
ATOM     21  H   UNL     1      35.531 -18.670 -23.978  0.00  0.00    +0.210 HD
ENDBRANCH   4  20
BRANCH   5  22
ATOM     22  O   UNL     1      35.906 -16.265 -23.526  0.00  0.00    -0.384 OA
ATOM     23  H   UNL     1      36.505 -16.816 -22.998  0.00  0.00    +0.210 HD
ENDBRANCH   5  22
BRANCH   3  24
ATOM     24  C   UNL     1      33.172 -15.318 -21.159  0.00  0.00    +0.039 C 
BRANCH  24  25
ATOM     25  S   UNL     1      32.604 -14.015 -22.284  0.00  0.00    -0.141 S 
ATOM     26  C   UNL     1      32.003 -12.840 -21.048  0.00  0.00    +0.069 C 
ENDBRANCH  24  25
ENDBRANCH   3  24
TORSDOF 6
ENDMDL
MODEL 2
REMARK VINA RESULT:      -8.2      6.330      9.873
REMARK  Name = 5288855
REMARK  6 active torsions:
REMARK  status: ('A' for Active; 'I' for Inactive)
REMARK    1  A    between atoms: C_2  and  C_11
REMARK    2  A    between atoms: C_3  and  C_24
REMARK    3  A    between atoms: C_4  and  O_20
REMARK    4  A    between atoms: C_5  and  O_22
REMARK    5  A    between atoms: C_15  and  O_18
REMARK    6  A    between atoms: C_24  and  S_25
REMARK                            x       y       z     vdW  Elec       q    Type
REMARK                         _______ _______ _______ _____ _____    ______ ____
ROOT
ATOM      1  N   UNL     1      37.516 -23.551 -13.735  0.00  0.00    +0.393 N 
ATOM      2  C   UNL     1      36.057 -23.174 -13.533  0.00  0.00    -0.006 C 
ATOM      3  C   UNL     1      37.982 -24.415 -12.576  0.00  0.00    -0.020 C 
ATOM      4  C   UNL     1      35.604 -24.101 -12.404  0.00  0.00    +0.120 C 
ATOM      5  C   UNL     1      36.858 -24.286 -11.553  0.00  0.00    +0.117 C 
ATOM      6  H   UNL     1      38.084 -22.705 -13.778  0.00  0.00    -0.084 HD
ATOM      7  H   UNL     1      37.614 -24.073 -14.607  0.00  0.00    -0.084 HD
ENDROOT
BRANCH   2  11
ATOM      8  N   UNL     1      33.515 -23.651 -16.159  0.00  0.00    -0.322 N 
ATOM      9  N   UNL     1      36.682 -22.143 -16.483  0.00  0.00    -0.247 NA
ATOM     10  N   UNL     1      35.653 -22.043 -18.687  0.00  0.00    -0.213 NA
ATOM     11  C   UNL     1      35.211 -23.242 -14.771  0.00  0.00    -0.010 C 
ATOM     12  C   UNL     1      35.552 -22.759 -16.059  0.00  0.00    +0.078 C 
ATOM     13  C   UNL     1      33.947 -23.787 -14.864  0.00  0.00    +0.053 C 
ATOM     14  C   UNL     1      34.480 -23.026 -16.906  0.00  0.00    +0.186 C 
ATOM     15  C   UNL     1      34.537 -22.659 -18.240  0.00  0.00    +0.219 C 
ATOM     16  C   UNL     1      36.643 -21.825 -17.793  0.00  0.00    +0.253 C 
ATOM     17  H   UNL     1      32.643 -23.956 -16.501  0.00  0.00    +0.148 HD
BRANCH  15  18
ATOM     18  O   UNL     1      33.516 -22.894 -19.124  0.00  0.00    -0.494 OA
ATOM     19  H   UNL     1      33.412 -23.743 -19.505  0.00  0.00    +0.293 HD
ENDBRANCH  15  18
ENDBRANCH   2  11
BRANCH   4  20
ATOM     20  O   UNL     1      34.551 -23.518 -11.656  0.00  0.00    -0.384 OA
ATOM     21  H   UNL     1      34.172 -22.777 -12.155  0.00  0.00    +0.210 HD
ENDBRANCH   4  20
BRANCH   5  22
ATOM     22  O   UNL     1      37.093 -23.152 -10.719  0.00  0.00    -0.384 OA
ATOM     23  H   UNL     1      36.774 -23.339  -9.822  0.00  0.00    +0.210 HD
ENDBRANCH   5  22
BRANCH   3  24
ATOM     24  C   UNL     1      38.185 -25.836 -13.081  0.00  0.00    +0.039 C 
BRANCH  24  25
ATOM     25  S   UNL     1      38.259 -25.858 -14.892  0.00  0.00    -0.141 S 
ATOM     26  C   UNL     1      36.692 -26.700 -15.213  0.00  0.00    +0.069 C 
ENDBRANCH  24  25
ENDBRANCH   3  24
TORSDOF 6
ENDMDL
MODEL 3
REMARK VINA RESULT:      -8.1      6.728      8.749
REMARK  Name = 5288855
REMARK  6 active torsions:
REMARK  status: ('A' for Active; 'I' for Inactive)
REMARK    1  A    between atoms: C_2  and  C_11
REMARK    2  A    between atoms: C_3  and  C_24
REMARK    3  A    between atoms: C_4  and  O_20
REMARK    4  A    between atoms: C_5  and  O_22
REMARK    5  A    between atoms: C_15  and  O_18
REMARK    6  A    between atoms: C_24  and  S_25
REMARK                            x       y       z     vdW  Elec       q    Type
REMARK                         _______ _______ _______ _____ _____    ______ ____
ROOT
ATOM      1  N   UNL     1      35.456 -24.514 -15.168  0.00  0.00    +0.393 N 
ATOM      2  C   UNL     1      35.379 -23.562 -16.351  0.00  0.00    -0.006 C 
ATOM      3  C   UNL     1      36.536 -24.046 -14.209  0.00  0.00    -0.020 C 
ATOM      4  C   UNL     1      36.211 -22.361 -15.895  0.00  0.00    +0.120 C 
ATOM      5  C   UNL     1      37.283 -22.976 -14.998  0.00  0.00    +0.117 C 
ATOM      6  H   UNL     1      35.681 -25.452 -15.501  0.00  0.00    -0.084 HD
ATOM      7  H   UNL     1      34.557 -24.528 -14.685  0.00  0.00    -0.084 HD
ENDROOT
BRANCH   2  11
ATOM      8  N   UNL     1      32.259 -22.593 -18.058  0.00  0.00    -0.322 N 
ATOM      9  N   UNL     1      32.647 -23.623 -14.711  0.00  0.00    -0.247 NA
ATOM     10  N   UNL     1      30.273 -23.178 -15.015  0.00  0.00    -0.213 NA
ATOM     11  C   UNL     1      33.987 -23.220 -16.797  0.00  0.00    -0.010 C 
ATOM     12  C   UNL     1      32.809 -23.271 -16.010  0.00  0.00    +0.078 C 
ATOM     13  C   UNL     1      33.615 -22.798 -18.056  0.00  0.00    +0.053 C 
ATOM     14  C   UNL     1      31.746 -22.876 -16.818  0.00  0.00    +0.186 C 
ATOM     15  C   UNL     1      30.461 -22.831 -16.307  0.00  0.00    +0.219 C 
ATOM     16  C   UNL     1      31.363 -23.548 -14.306  0.00  0.00    +0.253 C 
ATOM     17  H   UNL     1      31.733 -22.289 -18.833  0.00  0.00    +0.148 HD
BRANCH  15  18
ATOM     18  O   UNL     1      29.373 -22.451 -17.050  0.00  0.00    -0.494 OA
ATOM     19  H   UNL     1      28.508 -22.633 -16.741  0.00  0.00    +0.293 HD
ENDBRANCH  15  18
ENDBRANCH   2  11
BRANCH   4  20
ATOM     20  O   UNL     1      36.784 -21.687 -17.002  0.00  0.00    -0.384 OA
ATOM     21  H   UNL     1      37.646 -21.320 -16.747  0.00  0.00    +0.210 HD
ENDBRANCH   4  20
BRANCH   5  22
ATOM     22  O   UNL     1      38.320 -23.582 -15.769  0.00  0.00    -0.384 OA
ATOM     23  H   UNL     1      38.574 -22.988 -16.492  0.00  0.00    +0.210 HD
ENDBRANCH   5  22
BRANCH   3  24
ATOM     24  C   UNL     1      35.867 -23.516 -12.949  0.00  0.00    +0.039 C 
BRANCH  24  25
ATOM     25  S   UNL     1      37.111 -23.133 -11.687  0.00  0.00    -0.141 S 
ATOM     26  C   UNL     1      38.227 -24.525 -11.982  0.00  0.00    +0.069 C 
ENDBRANCH  24  25
ENDBRANCH   3  24
TORSDOF 6
ENDMDL
MODEL 4
REMARK VINA RESULT:      -8.0      1.101      1.997
REMARK  Name = 5288855
REMARK  6 active torsions:
REMARK  status: ('A' for Active; 'I' for Inactive)
REMARK    1  A    between atoms: C_2  and  C_11
REMARK    2  A    between atoms: C_3  and  C_24
REMARK    3  A    between atoms: C_4  and  O_20
REMARK    4  A    between atoms: C_5  and  O_22
REMARK    5  A    between atoms: C_15  and  O_18
REMARK    6  A    between atoms: C_24  and  S_25
REMARK                            x       y       z     vdW  Elec       q    Type
REMARK                         _______ _______ _______ _____ _____    ______ ____
ROOT
ATOM      1  N   UNL     1      35.408 -16.901 -20.850  0.00  0.00    +0.393 N 
ATOM      2  C   UNL     1      35.820 -18.156 -21.605  0.00  0.00    -0.006 C 
ATOM      3  C   UNL     1      34.515 -16.048 -21.733  0.00  0.00    -0.020 C 
ATOM      4  C   UNL     1      34.886 -18.163 -22.817  0.00  0.00    +0.120 C 
ATOM      5  C   UNL     1      34.655 -16.683 -23.112  0.00  0.00    +0.117 C 
ATOM      6  H   UNL     1      36.241 -16.370 -20.594  0.00  0.00    -0.084 HD
ATOM      7  H   UNL     1      34.898 -17.165 -20.006  0.00  0.00    -0.084 HD
ENDROOT
BRANCH   2  11
ATOM      8  N   UNL     1      36.447 -21.201 -19.624  0.00  0.00    -0.322 N 
ATOM      9  N   UNL     1      33.331 -19.858 -20.573  0.00  0.00    -0.247 NA
ATOM     10  N   UNL     1      32.842 -21.866 -19.287  0.00  0.00    -0.213 NA
ATOM     11  C   UNL     1      35.793 -19.418 -20.793  0.00  0.00    -0.010 C 
ATOM     12  C   UNL     1      34.643 -20.127 -20.365  0.00  0.00    +0.078 C 
ATOM     13  C   UNL     1      36.892 -20.106 -20.320  0.00  0.00    +0.053 C 
ATOM     14  C   UNL     1      35.076 -21.233 -19.638  0.00  0.00    +0.186 C 
ATOM     15  C   UNL     1      34.156 -22.112 -19.093  0.00  0.00    +0.219 C 
ATOM     16  C   UNL     1      32.515 -20.769 -20.005  0.00  0.00    +0.253 C 
ATOM     17  H   UNL     1      37.024 -21.863 -19.180  0.00  0.00    +0.148 HD
BRANCH  15  18
ATOM     18  O   UNL     1      34.518 -23.219 -18.369  0.00  0.00    -0.494 OA
ATOM     19  H   UNL     1      35.362 -23.606 -18.495  0.00  0.00    +0.293 HD
ENDBRANCH  15  18
ENDBRANCH   2  11
BRANCH   4  20
ATOM     20  O   UNL     1      35.484 -18.825 -23.918  0.00  0.00    -0.384 OA
ATOM     21  H   UNL     1      36.341 -19.191 -23.648  0.00  0.00    +0.210 HD
ENDBRANCH   4  20
BRANCH   5  22
ATOM     22  O   UNL     1      35.770 -16.109 -23.795  0.00  0.00    -0.384 OA
ATOM     23  H   UNL     1      36.456 -15.872 -23.152  0.00  0.00    +0.210 HD
ENDBRANCH   5  22
BRANCH   3  24
ATOM     24  C   UNL     1      33.098 -16.100 -21.181  0.00  0.00    +0.039 C 
BRANCH  24  25
ATOM     25  S   UNL     1      32.595 -14.466 -20.579  0.00  0.00    -0.141 S 
ATOM     26  C   UNL     1      32.353 -13.655 -22.177  0.00  0.00    +0.069 C 
ENDBRANCH  24  25
ENDBRANCH   3  24
TORSDOF 6
ENDMDL
MODEL 5
REMARK VINA RESULT:      -7.8      7.912     10.500
REMARK  Name = 5288855
REMARK  6 active torsions:
REMARK  status: ('A' for Active; 'I' for Inactive)
REMARK    1  A    between atoms: C_2  and  C_11
REMARK    2  A    between atoms: C_3  and  C_24
REMARK    3  A    between atoms: C_4  and  O_20
REMARK    4  A    between atoms: C_5  and  O_22
REMARK    5  A    between atoms: C_15  and  O_18
REMARK    6  A    between atoms: C_24  and  S_25
REMARK                            x       y       z     vdW  Elec       q    Type
REMARK                         _______ _______ _______ _____ _____    ______ ____
ROOT
ATOM      1  N   UNL     1      37.087 -23.488 -14.029  0.00  0.00    +0.393 N 
ATOM      2  C   UNL     1      35.654 -23.613 -13.534  0.00  0.00    -0.006 C 
ATOM      3  C   UNL     1      37.947 -24.549 -13.366  0.00  0.00    -0.020 C 
ATOM      4  C   UNL     1      35.642 -24.967 -12.821  0.00  0.00    +0.120 C 
ATOM      5  C   UNL     1      37.055 -25.100 -12.259  0.00  0.00    +0.117 C 
ATOM      6  H   UNL     1      37.448 -22.563 -13.796  0.00  0.00    -0.084 HD
ATOM      7  H   UNL     1      37.108 -23.619 -15.041  0.00  0.00    -0.084 HD
ENDROOT
BRANCH   2  11
ATOM      8  N   UNL     1      33.614 -23.198 -16.576  0.00  0.00    -0.322 N 
ATOM      9  N   UNL     1      32.479 -23.577 -13.262  0.00  0.00    -0.247 NA
ATOM     10  N   UNL     1      30.486 -23.369 -14.644  0.00  0.00    -0.213 NA
ATOM     11  C   UNL     1      34.604 -23.460 -14.595  0.00  0.00    -0.010 C 
ATOM     12  C   UNL     1      33.200 -23.454 -14.404  0.00  0.00    +0.078 C 
ATOM     13  C   UNL     1      34.829 -23.299 -15.946  0.00  0.00    +0.053 C 
ATOM     14  C   UNL     1      32.605 -23.290 -15.652  0.00  0.00    +0.186 C 
ATOM     15  C   UNL     1      31.227 -23.248 -15.767  0.00  0.00    +0.219 C 
ATOM     16  C   UNL     1      31.149 -23.525 -13.477  0.00  0.00    +0.253 C 
ATOM     17  H   UNL     1      33.486 -23.077 -17.545  0.00  0.00    +0.148 HD
BRANCH  15  18
ATOM     18  O   UNL     1      30.581 -23.088 -16.967  0.00  0.00    -0.494 OA
ATOM     19  H   UNL     1      31.075 -22.945 -17.749  0.00  0.00    +0.293 HD
ENDBRANCH  15  18
ENDBRANCH   2  11
BRANCH   4  20
ATOM     20  O   UNL     1      34.669 -24.994 -11.792  0.00  0.00    -0.384 OA
ATOM     21  H   UNL     1      34.491 -24.088 -11.491  0.00  0.00    +0.210 HD
ENDBRANCH   4  20
BRANCH   5  22
ATOM     22  O   UNL     1      37.219 -24.319 -11.075  0.00  0.00    -0.384 OA
ATOM     23  H   UNL     1      37.783 -24.798 -10.448  0.00  0.00    +0.210 HD
ENDBRANCH   5  22
BRANCH   3  24
ATOM     24  C   UNL     1      38.328 -25.587 -14.412  0.00  0.00    +0.039 C 
BRANCH  24  25
ATOM     25  S   UNL     1      39.998 -25.267 -15.040  0.00  0.00    -0.141 S 
ATOM     26  C   UNL     1      40.863 -26.611 -14.193  0.00  0.00    +0.069 C 
ENDBRANCH  24  25
ENDBRANCH   3  24
TORSDOF 6
ENDMDL
MODEL 6
REMARK VINA RESULT:      -7.6      7.498     10.239
REMARK  Name = 5288855
REMARK  6 active torsions:
REMARK  status: ('A' for Active; 'I' for Inactive)
REMARK    1  A    between atoms: C_2  and  C_11
REMARK    2  A    between atoms: C_3  and  C_24
REMARK    3  A    between atoms: C_4  and  O_20
REMARK    4  A    between atoms: C_5  and  O_22
REMARK    5  A    between atoms: C_15  and  O_18
REMARK    6  A    between atoms: C_24  and  S_25
REMARK                            x       y       z     vdW  Elec       q    Type
REMARK                         _______ _______ _______ _____ _____    ______ ____
ROOT
ATOM      1  N   UNL     1      31.199  -7.924 -23.040  0.00  0.00    +0.393 N 
ATOM      2  C   UNL     1      31.554  -8.693 -21.777  0.00  0.00    -0.006 C 
ATOM      3  C   UNL     1      31.983  -6.625 -23.081  0.00  0.00    -0.020 C 
ATOM      4  C   UNL     1      32.795  -7.964 -21.256  0.00  0.00    +0.120 C 
ATOM      5  C   UNL     1      32.575  -6.514 -21.680  0.00  0.00    +0.117 C 
ATOM      6  H   UNL     1      30.200  -7.718 -23.043  0.00  0.00    -0.084 HD
ATOM      7  H   UNL     1      31.435  -8.488 -23.858  0.00  0.00    -0.084 HD
ENDROOT
BRANCH   2  11
ATOM      8  N   UNL     1      31.557 -12.378 -21.715  0.00  0.00    -0.322 N 
ATOM      9  N   UNL     1      33.338 -10.265 -23.900  0.00  0.00    -0.247 NA
ATOM     10  N   UNL     1      33.903 -12.543 -24.546  0.00  0.00    -0.213 NA
ATOM     11  C   UNL     1      31.736 -10.171 -21.968  0.00  0.00    -0.010 C 
ATOM     12  C   UNL     1      32.549 -10.807 -22.939  0.00  0.00    +0.078 C 
ATOM     13  C   UNL     1      31.136 -11.167 -21.227  0.00  0.00    +0.053 C 
ATOM     14  C   UNL     1      32.421 -12.182 -22.762  0.00  0.00    +0.186 C 
ATOM     15  C   UNL     1      33.111 -13.058 -23.581  0.00  0.00    +0.219 C 
ATOM     16  C   UNL     1      33.967 -11.196 -24.645  0.00  0.00    +0.253 C 
ATOM     17  H   UNL     1      31.280 -13.257 -21.367  0.00  0.00    +0.148 HD
BRANCH  15  18
ATOM     18  O   UNL     1      33.027 -14.421 -23.457  0.00  0.00    -0.494 OA
ATOM     19  H   UNL     1      32.541 -14.798 -22.751  0.00  0.00    +0.293 HD
ENDBRANCH  15  18
ENDBRANCH   2  11
BRANCH   4  20
ATOM     20  O   UNL     1      32.902  -8.083 -19.848  0.00  0.00    -0.384 OA
ATOM     21  H   UNL     1      33.836  -8.171 -19.601  0.00  0.00    +0.210 HD
ENDBRANCH   4  20
BRANCH   5  22
ATOM     22  O   UNL     1      31.650  -5.854 -20.816  0.00  0.00    -0.384 OA
ATOM     23  H   UNL     1      30.759  -5.910 -21.195  0.00  0.00    +0.210 HD
ENDBRANCH   5  22
BRANCH   3  24
ATOM     24  C   UNL     1      33.033  -6.726 -24.178  0.00  0.00    +0.039 C 
BRANCH  24  25
ATOM     25  S   UNL     1      32.794  -5.413 -25.404  0.00  0.00    -0.141 S 
ATOM     26  C   UNL     1      31.239  -4.739 -24.774  0.00  0.00    +0.069 C 
ENDBRANCH  24  25
ENDBRANCH   3  24
TORSDOF 6
ENDMDL
MODEL 7
REMARK VINA RESULT:      -7.6      2.890      4.365
REMARK  Name = 5288855
REMARK  6 active torsions:
REMARK  status: ('A' for Active; 'I' for Inactive)
REMARK    1  A    between atoms: C_2  and  C_11
REMARK    2  A    between atoms: C_3  and  C_24
REMARK    3  A    between atoms: C_4  and  O_20
REMARK    4  A    between atoms: C_5  and  O_22
REMARK    5  A    between atoms: C_15  and  O_18
REMARK    6  A    between atoms: C_24  and  S_25
REMARK                            x       y       z     vdW  Elec       q    Type
REMARK                         _______ _______ _______ _____ _____    ______ ____
ROOT
ATOM      1  N   UNL     1      34.319 -13.156 -22.789  0.00  0.00    +0.393 N 
ATOM      2  C   UNL     1      34.428 -14.545 -23.400  0.00  0.00    -0.006 C 
ATOM      3  C   UNL     1      33.209 -12.384 -23.480  0.00  0.00    -0.020 C 
ATOM      4  C   UNL     1      33.150 -14.668 -24.232  0.00  0.00    +0.120 C 
ATOM      5  C   UNL     1      32.875 -13.240 -24.697  0.00  0.00    +0.117 C 
ATOM      6  H   UNL     1      35.202 -12.662 -22.909  0.00  0.00    -0.084 HD
ATOM      7  H   UNL     1      34.105 -13.239 -21.794  0.00  0.00    -0.084 HD
ENDROOT
BRANCH   2  11
ATOM      8  N   UNL     1      34.902 -16.764 -20.495  0.00  0.00    -0.322 N 
ATOM      9  N   UNL     1      34.783 -17.673 -23.897  0.00  0.00    -0.247 NA
ATOM     10  N   UNL     1      35.121 -19.738 -22.654  0.00  0.00    -0.213 NA
ATOM     11  C   UNL     1      34.635 -15.655 -22.410  0.00  0.00    -0.010 C 
ATOM     12  C   UNL     1      34.785 -17.033 -22.702  0.00  0.00    +0.078 C 
ATOM     13  C   UNL     1      34.712 -15.520 -21.040  0.00  0.00    +0.053 C 
ATOM     14  C   UNL     1      34.950 -17.704 -21.493  0.00  0.00    +0.186 C 
ATOM     15  C   UNL     1      35.120 -19.078 -21.475  0.00  0.00    +0.219 C 
ATOM     16  C   UNL     1      34.954 -19.005 -23.777  0.00  0.00    +0.253 C 
ATOM     17  H   UNL     1      34.991 -16.955 -19.533  0.00  0.00    +0.148 HD
BRANCH  15  18
ATOM     18  O   UNL     1      35.287 -19.796 -20.319  0.00  0.00    -0.494 OA
ATOM     19  H   UNL     1      36.141 -20.090 -20.070  0.00  0.00    +0.293 HD
ENDBRANCH  15  18
ENDBRANCH   2  11
BRANCH   4  20
ATOM     20  O   UNL     1      33.338 -15.544 -25.329  0.00  0.00    -0.384 OA
ATOM     21  H   UNL     1      33.995 -16.219 -25.095  0.00  0.00    +0.210 HD
ENDBRANCH   4  20
BRANCH   5  22
ATOM     22  O   UNL     1      33.720 -12.877 -25.788  0.00  0.00    -0.384 OA
ATOM     23  H   UNL     1      33.984 -13.675 -26.272  0.00  0.00    +0.210 HD
ENDBRANCH   5  22
BRANCH   3  24
ATOM     24  C   UNL     1      32.048 -12.230 -22.508  0.00  0.00    +0.039 C 
BRANCH  24  25
ATOM     25  S   UNL     1      31.726 -10.476 -22.182  0.00  0.00    -0.141 S 
ATOM     26  C   UNL     1      32.873  -9.766 -23.386  0.00  0.00    +0.069 C 
ENDBRANCH  24  25
ENDBRANCH   3  24
TORSDOF 6
ENDMDL
MODEL 8
REMARK VINA RESULT:      -7.5      6.436      9.174
REMARK  Name = 5288855
REMARK  6 active torsions:
REMARK  status: ('A' for Active; 'I' for Inactive)
REMARK    1  A    between atoms: C_2  and  C_11
REMARK    2  A    between atoms: C_3  and  C_24
REMARK    3  A    between atoms: C_4  and  O_20
REMARK    4  A    between atoms: C_5  and  O_22
REMARK    5  A    between atoms: C_15  and  O_18
REMARK    6  A    between atoms: C_24  and  S_25
REMARK                            x       y       z     vdW  Elec       q    Type
REMARK                         _______ _______ _______ _____ _____    ______ ____
ROOT
ATOM      1  N   UNL     1      33.223 -24.272 -16.089  0.00  0.00    +0.393 N 
ATOM      2  C   UNL     1      33.402 -24.053 -14.595  0.00  0.00    -0.006 C 
ATOM      3  C   UNL     1      31.936 -23.613 -16.549  0.00  0.00    -0.020 C 
ATOM      4  C   UNL     1      32.360 -22.982 -14.268  0.00  0.00    +0.120 C 
ATOM      5  C   UNL     1      31.223 -23.262 -15.248  0.00  0.00    +0.117 C 
ATOM      6  H   UNL     1      33.181 -25.273 -16.283  0.00  0.00    -0.084 HD
ATOM      7  H   UNL     1      34.012 -23.860 -16.589  0.00  0.00    -0.084 HD
ENDROOT
BRANCH   2  11
ATOM      8  N   UNL     1      36.917 -23.012 -14.213  0.00  0.00    -0.322 N 
ATOM      9  N   UNL     1      34.786 -24.335 -11.739  0.00  0.00    -0.247 NA
ATOM     10  N   UNL     1      36.921 -23.919 -10.646  0.00  0.00    -0.213 NA
ATOM     11  C   UNL     1      34.800 -23.710 -14.171  0.00  0.00    -0.010 C 
ATOM     12  C   UNL     1      35.354 -23.860 -12.875  0.00  0.00    +0.078 C 
ATOM     13  C   UNL     1      35.790 -23.184 -14.975  0.00  0.00    +0.053 C 
ATOM     14  C   UNL     1      36.673 -23.419 -12.926  0.00  0.00    +0.186 C 
ATOM     15  C   UNL     1      37.464 -23.451 -11.791  0.00  0.00    +0.219 C 
ATOM     16  C   UNL     1      35.633 -24.326 -10.689  0.00  0.00    +0.253 C 
ATOM     17  H   UNL     1      37.773 -22.651 -14.540  0.00  0.00    +0.148 HD
BRANCH  15  18
ATOM     18  O   UNL     1      38.769 -23.031 -11.776  0.00  0.00    -0.494 OA
ATOM     19  H   UNL     1      39.391 -23.453 -11.216  0.00  0.00    +0.293 HD
ENDBRANCH  15  18
ENDBRANCH   2  11
BRANCH   4  20
ATOM     20  O   UNL     1      31.924 -23.087 -12.923  0.00  0.00    -0.384 OA
ATOM     21  H   UNL     1      31.171 -22.493 -12.779  0.00  0.00    +0.210 HD
ENDBRANCH   4  20
BRANCH   5  22
ATOM     22  O   UNL     1      30.429 -24.368 -14.820  0.00  0.00    -0.384 OA
ATOM     23  H   UNL     1      29.659 -24.042 -14.327  0.00  0.00    +0.210 HD
ENDBRANCH   5  22
BRANCH   3  24
ATOM     24  C   UNL     1      32.289 -22.399 -17.396  0.00  0.00    +0.039 C 
BRANCH  24  25
ATOM     25  S   UNL     1      33.745 -22.744 -18.420  0.00  0.00    -0.141 S 
ATOM     26  C   UNL     1      33.576 -21.377 -19.592  0.00  0.00    +0.069 C 
ENDBRANCH  24  25
ENDBRANCH   3  24
TORSDOF 6
ENDMDL
MODEL 9
REMARK VINA RESULT:      -7.5      6.496      8.678
REMARK  Name = 5288855
REMARK  6 active torsions:
REMARK  status: ('A' for Active; 'I' for Inactive)
REMARK    1  A    between atoms: C_2  and  C_11
REMARK    2  A    between atoms: C_3  and  C_24
REMARK    3  A    between atoms: C_4  and  O_20
REMARK    4  A    between atoms: C_5  and  O_22
REMARK    5  A    between atoms: C_15  and  O_18
REMARK    6  A    between atoms: C_24  and  S_25
REMARK                            x       y       z     vdW  Elec       q    Type
REMARK                         _______ _______ _______ _____ _____    ______ ____
ROOT
ATOM      1  N   UNL     1      35.934 -22.746 -14.689  0.00  0.00    +0.393 N 
ATOM      2  C   UNL     1      34.923 -23.872 -14.845  0.00  0.00    -0.006 C 
ATOM      3  C   UNL     1      37.339 -23.301 -14.835  0.00  0.00    -0.020 C 
ATOM      4  C   UNL     1      35.761 -25.024 -15.404  0.00  0.00    +0.120 C 
ATOM      5  C   UNL     1      37.140 -24.812 -14.783  0.00  0.00    +0.117 C 
ATOM      6  H   UNL     1      35.830 -22.322 -13.767  0.00  0.00    -0.084 HD
ATOM      7  H   UNL     1      35.771 -22.042 -15.410  0.00  0.00    -0.084 HD
ENDROOT
BRANCH   2  11
ATOM      8  N   UNL     1      32.408 -22.983 -17.389  0.00  0.00    -0.322 N 
ATOM      9  N   UNL     1      31.871 -23.614 -13.965  0.00  0.00    -0.247 NA
ATOM     10  N   UNL     1      29.688 -23.106 -14.913  0.00  0.00    -0.213 NA
ATOM     11  C   UNL     1      33.715 -23.527 -15.667  0.00  0.00    -0.010 C 
ATOM     12  C   UNL     1      32.378 -23.430 -15.209  0.00  0.00    +0.078 C 
ATOM     13  C   UNL     1      33.702 -23.245 -17.017  0.00  0.00    +0.053 C 
ATOM     14  C   UNL     1      31.582 -23.090 -16.299  0.00  0.00    +0.186 C 
ATOM     15  C   UNL     1      30.217 -22.927 -16.143  0.00  0.00    +0.219 C 
ATOM     16  C   UNL     1      30.536 -23.434 -13.913  0.00  0.00    +0.253 C 
ATOM     17  H   UNL     1      32.116 -22.752 -18.301  0.00  0.00    +0.148 HD
BRANCH  15  18
ATOM     18  O   UNL     1      29.380 -22.593 -17.176  0.00  0.00    -0.494 OA
ATOM     19  H   UNL     1      29.510 -21.793 -17.645  0.00  0.00    +0.293 HD
ENDBRANCH  15  18
ENDBRANCH   2  11
BRANCH   4  20
ATOM     20  O   UNL     1      35.213 -26.279 -15.036  0.00  0.00    -0.384 OA
ATOM     21  H   UNL     1      35.626 -26.583 -14.213  0.00  0.00    +0.210 HD
ENDBRANCH   4  20
BRANCH   5  22
ATOM     22  O   UNL     1      37.173 -25.257 -13.428  0.00  0.00    -0.384 OA
ATOM     23  H   UNL     1      37.855 -24.765 -12.943  0.00  0.00    +0.210 HD
ENDBRANCH   5  22
BRANCH   3  24
ATOM     24  C   UNL     1      37.920 -22.809 -16.152  0.00  0.00    +0.039 C 
BRANCH  24  25
ATOM     25  S   UNL     1      37.104 -21.275 -16.669  0.00  0.00    -0.141 S 
ATOM     26  C   UNL     1      36.665 -21.762 -18.355  0.00  0.00    +0.069 C 
ENDBRANCH  24  25
ENDBRANCH   3  24
TORSDOF 6
ENDMDL
