MODEL 1
REMARK VINA RESULT:      -9.5      0.000      0.000
REMARK  Name = 10160238
REMARK  3 active torsions:
REMARK  status: ('A' for Active; 'I' for Inactive)
REMARK    1  A    between atoms: N_2  and  S_13
REMARK    2  A    between atoms: C_3  and  C_7
REMARK    3  A    between atoms: S_13  and  C_18
REMARK                            x       y       z     vdW  Elec       q    Type
REMARK                         _______ _______ _______ _____ _____    ______ ____
ROOT
ATOM      1  O   UNL     1      35.498 -16.064 -23.196  0.00  0.00    -0.269 OA
ATOM      2  N   UNL     1      34.184 -17.317 -21.718  0.00  0.00    -0.181 N 
ATOM      3  C   UNL     1      34.522 -16.112 -22.437  0.00  0.00    +0.265 C 
ATOM      4  H   UNL     1      33.393 -17.290 -21.131  0.00  0.00    +0.177 HD
ENDROOT
BRANCH   3   7
ATOM      5 CL   UNL     1      33.398 -14.697 -24.927  0.00  0.00    -0.082 Cl
ATOM      6 CL   UNL     1      30.982 -11.418 -21.412  0.00  0.00    -0.082 Cl
ATOM      7  C   UNL     1      33.654 -14.960 -22.224  0.00  0.00    +0.065 C 
ATOM      8  C   UNL     1      33.093 -14.251 -23.287  0.00  0.00    +0.063 C 
ATOM      9  C   UNL     1      33.387 -14.575 -20.910  0.00  0.00    +0.006 C 
ATOM     10  C   UNL     1      32.266 -13.156 -23.035  0.00  0.00    +0.023 C 
ATOM     11  C   UNL     1      32.560 -13.479 -20.659  0.00  0.00    +0.012 C 
ATOM     12  C   UNL     1      32.000 -12.771 -21.722  0.00  0.00    +0.059 C 
ENDBRANCH   3   7
BRANCH   2  13
ATOM     13  S   UNL     1      35.053 -18.792 -21.807  0.00  0.00    +0.082 S 
ATOM     14  O   UNL     1      36.350 -18.617 -21.185  0.00  0.00    -0.149 OA
ATOM     15  O   UNL     1      34.920 -19.349 -23.138  0.00  0.00    -0.149 OA
BRANCH  13  18
ATOM     16 BR   UNL     1      34.142 -23.174 -17.874  0.00  0.00    -0.042 Br
ATOM     17  S   UNL     1      35.275 -20.984 -19.886  0.00  0.00    -0.060 S 
ATOM     18  C   UNL     1      34.219 -19.954 -20.725  0.00  0.00    +0.155 C 
ATOM     19  C   UNL     1      32.909 -20.160 -20.453  0.00  0.00    +0.028 C 
ATOM     20  C   UNL     1      32.744 -21.216 -19.510  0.00  0.00    +0.015 C 
ATOM     21  C   UNL     1      33.951 -21.752 -19.118  0.00  0.00    +0.065 C 
ENDBRANCH  13  18
ENDBRANCH   2  13
TORSDOF 3
ENDMDL
MODEL 2
REMARK VINA RESULT:      -9.3      4.511      7.355
REMARK  Name = 10160238
REMARK  3 active torsions:
REMARK  status: ('A' for Active; 'I' for Inactive)
REMARK    1  A    between atoms: N_2  and  S_13
REMARK    2  A    between atoms: C_3  and  C_7
REMARK    3  A    between atoms: S_13  and  C_18
REMARK                            x       y       z     vdW  Elec       q    Type
REMARK                         _______ _______ _______ _____ _____    ______ ____
ROOT
ATOM      1  O   UNL     1      35.115 -18.890 -23.253  0.00  0.00    -0.269 OA
ATOM      2  N   UNL     1      34.142 -17.331 -21.802  0.00  0.00    -0.181 N 
ATOM      3  C   UNL     1      34.600 -18.654 -22.152  0.00  0.00    +0.265 C 
ATOM      4  H   UNL     1      33.743 -17.209 -20.910  0.00  0.00    +0.177 HD
ENDROOT
BRANCH   3   7
ATOM      5 CL   UNL     1      37.125 -19.686 -20.728  0.00  0.00    -0.082 Cl
ATOM      6 CL   UNL     1      33.744 -22.898 -18.045  0.00  0.00    -0.082 Cl
ATOM      7  C   UNL     1      34.429 -19.692 -21.143  0.00  0.00    +0.065 C 
ATOM      8  C   UNL     1      35.509 -20.226 -20.441  0.00  0.00    +0.063 C 
ATOM      9  C   UNL     1      33.136 -20.149 -20.886  0.00  0.00    +0.006 C 
ATOM     10  C   UNL     1      35.297 -21.217 -19.482  0.00  0.00    +0.023 C 
ATOM     11  C   UNL     1      32.923 -21.140 -19.928  0.00  0.00    +0.012 C 
ATOM     12  C   UNL     1      34.005 -21.674 -19.226  0.00  0.00    +0.059 C 
ENDBRANCH   3   7
BRANCH   2  13
ATOM     13  S   UNL     1      34.237 -15.955 -22.820  0.00  0.00    +0.082 S 
ATOM     14  O   UNL     1      33.492 -16.213 -24.036  0.00  0.00    -0.149 OA
ATOM     15  O   UNL     1      35.605 -15.477 -22.856  0.00  0.00    -0.149 OA
BRANCH  13  18
ATOM     16 BR   UNL     1      31.098 -10.956 -22.011  0.00  0.00    -0.042 Br
ATOM     17  S   UNL     1      32.785 -13.431 -23.084  0.00  0.00    -0.060 S 
ATOM     18  C   UNL     1      33.302 -14.650 -22.021  0.00  0.00    +0.155 C 
ATOM     19  C   UNL     1      32.932 -14.457 -20.733  0.00  0.00    +0.028 C 
ATOM     20  C   UNL     1      32.187 -13.251 -20.592  0.00  0.00    +0.015 C 
ATOM     21  C   UNL     1      32.032 -12.594 -21.793  0.00  0.00    +0.065 C 
ENDBRANCH  13  18
ENDBRANCH   2  13
TORSDOF 3
ENDMDL
MODEL 3
REMARK VINA RESULT:      -9.0      1.372      1.709
REMARK  Name = 10160238
REMARK  3 active torsions:
REMARK  status: ('A' for Active; 'I' for Inactive)
REMARK    1  A    between atoms: N_2  and  S_13
REMARK    2  A    between atoms: C_3  and  C_7
REMARK    3  A    between atoms: S_13  and  C_18
REMARK                            x       y       z     vdW  Elec       q    Type
REMARK                         _______ _______ _______ _____ _____    ______ ____
ROOT
ATOM      1  O   UNL     1      34.147 -16.621 -24.513  0.00  0.00    -0.269 OA
ATOM      2  N   UNL     1      34.688 -16.860 -22.247  0.00  0.00    -0.181 N 
ATOM      3  C   UNL     1      34.141 -16.140 -23.372  0.00  0.00    +0.265 C 
ATOM      4  H   UNL     1      34.650 -16.422 -21.365  0.00  0.00    +0.177 HD
ENDROOT
BRANCH   3   7
ATOM      5 CL   UNL     1      32.320 -15.860 -20.907  0.00  0.00    -0.082 Cl
ATOM      6 CL   UNL     1      31.920 -10.695 -22.356  0.00  0.00    -0.082 Cl
ATOM      7  C   UNL     1      33.580 -14.824 -23.093  0.00  0.00    +0.065 C 
ATOM      8  C   UNL     1      32.744 -14.593 -22.000  0.00  0.00    +0.063 C 
ATOM      9  C   UNL     1      33.903 -13.777 -23.958  0.00  0.00    +0.006 C 
ATOM     10  C   UNL     1      32.231 -13.315 -21.772  0.00  0.00    +0.023 C 
ATOM     11  C   UNL     1      33.390 -12.500 -23.729  0.00  0.00    +0.012 C 
ATOM     12  C   UNL     1      32.555 -12.270 -22.637  0.00  0.00    +0.059 C 
ENDBRANCH   3   7
BRANCH   2  13
ATOM     13  S   UNL     1      35.399 -18.418 -22.327  0.00  0.00    +0.082 S 
ATOM     14  O   UNL     1      36.706 -18.375 -21.704  0.00  0.00    -0.149 OA
ATOM     15  O   UNL     1      35.211 -18.964 -23.657  0.00  0.00    -0.149 OA
BRANCH  13  18
ATOM     16 BR   UNL     1      34.030 -22.675 -18.390  0.00  0.00    -0.042 Br
ATOM     17  S   UNL     1      35.388 -20.622 -20.407  0.00  0.00    -0.060 S 
ATOM     18  C   UNL     1      34.447 -19.481 -21.242  0.00  0.00    +0.155 C 
ATOM     19  C   UNL     1      33.124 -19.543 -20.963  0.00  0.00    +0.028 C 
ATOM     20  C   UNL     1      32.848 -20.575 -20.020  0.00  0.00    +0.015 C 
ATOM     21  C   UNL     1      33.991 -21.241 -19.633  0.00  0.00    +0.065 C 
ENDBRANCH  13  18
ENDBRANCH   2  13
TORSDOF 3
ENDMDL
MODEL 4
REMARK VINA RESULT:      -8.9      6.998      9.984
REMARK  Name = 10160238
REMARK  3 active torsions:
REMARK  status: ('A' for Active; 'I' for Inactive)
REMARK    1  A    between atoms: N_2  and  S_13
REMARK    2  A    between atoms: C_3  and  C_7
REMARK    3  A    between atoms: S_13  and  C_18
REMARK                            x       y       z     vdW  Elec       q    Type
REMARK                         _______ _______ _______ _____ _____    ______ ____
ROOT
ATOM      1  O   UNL     1      32.556 -23.640 -16.311  0.00  0.00    -0.269 OA
ATOM      2  N   UNL     1      34.478 -22.800 -17.354  0.00  0.00    -0.181 N 
ATOM      3  C   UNL     1      33.753 -23.334 -16.226  0.00  0.00    +0.265 C 
ATOM      4  H   UNL     1      35.428 -22.579 -17.221  0.00  0.00    +0.177 HD
ENDROOT
BRANCH   3   7
ATOM      5 CL   UNL     1      32.358 -24.779 -13.896  0.00  0.00    -0.082 Cl
ATOM      6 CL   UNL     1      36.946 -23.926 -11.218  0.00  0.00    -0.082 Cl
ATOM      7  C   UNL     1      34.503 -23.496 -14.986  0.00  0.00    +0.065 C 
ATOM      8  C   UNL     1      33.960 -24.137 -13.872  0.00  0.00    +0.063 C 
ATOM      9  C   UNL     1      35.802 -22.988 -14.935  0.00  0.00    +0.006 C 
ATOM     10  C   UNL     1      34.716 -24.270 -12.707  0.00  0.00    +0.023 C 
ATOM     11  C   UNL     1      36.558 -23.122 -13.770  0.00  0.00    +0.012 C 
ATOM     12  C   UNL     1      36.014 -23.763 -12.657  0.00  0.00    +0.059 C 
ENDBRANCH   3   7
BRANCH   2  13
ATOM     13  S   UNL     1      33.811 -22.522 -18.909  0.00  0.00    +0.082 S 
ATOM     14  O   UNL     1      32.532 -21.856 -18.764  0.00  0.00    -0.149 OA
ATOM     15  O   UNL     1      33.956 -23.717 -19.715  0.00  0.00    -0.149 OA
BRANCH  13  18
ATOM     16 BR   UNL     1      35.479 -17.853 -22.213  0.00  0.00    -0.042 Br
ATOM     17  S   UNL     1      33.972 -20.183 -20.655  0.00  0.00    -0.060 S 
ATOM     18  C   UNL     1      34.842 -21.288 -19.704  0.00  0.00    +0.155 C 
ATOM     19  C   UNL     1      36.178 -21.075 -19.686  0.00  0.00    +0.028 C 
ATOM     20  C   UNL     1      36.526 -19.951 -20.490  0.00  0.00    +0.015 C 
ATOM     21  C   UNL     1      35.421 -19.371 -21.075  0.00  0.00    +0.065 C 
ENDBRANCH  13  18
ENDBRANCH   2  13
TORSDOF 3
ENDMDL
MODEL 5
REMARK VINA RESULT:      -8.8      5.523      7.258
REMARK  Name = 10160238
REMARK  3 active torsions:
REMARK  status: ('A' for Active; 'I' for Inactive)
REMARK    1  A    between atoms: N_2  and  S_13
REMARK    2  A    between atoms: C_3  and  C_7
REMARK    3  A    between atoms: S_13  and  C_18
REMARK                            x       y       z     vdW  Elec       q    Type
REMARK                         _______ _______ _______ _____ _____    ______ ____
ROOT
ATOM      1  O   UNL     1      33.846 -23.689 -18.958  0.00  0.00    -0.269 OA
ATOM      2  N   UNL     1      34.436 -22.251 -17.206  0.00  0.00    -0.181 N 
ATOM      3  C   UNL     1      34.163 -22.550 -18.592  0.00  0.00    +0.265 C 
ATOM      4  H   UNL     1      34.681 -21.325 -16.980  0.00  0.00    +0.177 HD
ENDROOT
BRANCH   3   7
ATOM      5 CL   UNL     1      36.994 -21.613 -19.351  0.00  0.00    -0.082 Cl
ATOM      6 CL   UNL     1      34.476 -18.010 -22.453  0.00  0.00    -0.082 Cl
ATOM      7  C   UNL     1      34.278 -21.442 -19.532  0.00  0.00    +0.065 C 
ATOM      8  C   UNL     1      35.516 -20.944 -19.940  0.00  0.00    +0.063 C 
ATOM      9  C   UNL     1      33.101 -20.879 -20.028  0.00  0.00    +0.006 C 
ATOM     10  C   UNL     1      35.577 -19.882 -20.844  0.00  0.00    +0.023 C 
ATOM     11  C   UNL     1      33.162 -19.818 -20.932  0.00  0.00    +0.012 C 
ATOM     12  C   UNL     1      34.400 -19.321 -21.339  0.00  0.00    +0.059 C 
ENDBRANCH   3   7
BRANCH   2  13
ATOM     13  S   UNL     1      34.366 -23.387 -15.923  0.00  0.00    +0.082 S 
ATOM     14  O   UNL     1      35.156 -22.897 -14.813  0.00  0.00    -0.149 OA
ATOM     15  O   UNL     1      34.550 -24.723 -16.453  0.00  0.00    -0.149 OA
BRANCH  13  18
ATOM     16 BR   UNL     1      28.430 -22.915 -15.723  0.00  0.00    -0.042 Br
ATOM     17  S   UNL     1      31.517 -23.040 -16.483  0.00  0.00    -0.060 S 
ATOM     18  C   UNL     1      32.687 -23.357 -15.293  0.00  0.00    +0.155 C 
ATOM     19  C   UNL     1      32.180 -23.540 -14.052  0.00  0.00    +0.028 C 
ATOM     20  C   UNL     1      30.761 -23.417 -14.056  0.00  0.00    +0.015 C 
ATOM     21  C   UNL     1      30.269 -23.146 -15.314  0.00  0.00    +0.065 C 
ENDBRANCH  13  18
ENDBRANCH   2  13
TORSDOF 3
ENDMDL
MODEL 6
REMARK VINA RESULT:      -8.6      4.770      7.353
REMARK  Name = 10160238
REMARK  3 active torsions:
REMARK  status: ('A' for Active; 'I' for Inactive)
REMARK    1  A    between atoms: N_2  and  S_13
REMARK    2  A    between atoms: C_3  and  C_7
REMARK    3  A    between atoms: S_13  and  C_18
REMARK                            x       y       z     vdW  Elec       q    Type
REMARK                         _______ _______ _______ _____ _____    ______ ____
ROOT
ATOM      1  O   UNL     1      35.658 -17.448 -22.341  0.00  0.00    -0.269 OA
ATOM      2  N   UNL     1      33.818 -16.646 -21.135  0.00  0.00    -0.181 N 
ATOM      3  C   UNL     1      34.744 -17.677 -21.538  0.00  0.00    +0.265 C 
ATOM      4  H   UNL     1      33.115 -16.893 -20.491  0.00  0.00    +0.177 HD
ENDROOT
BRANCH   3   7
ATOM      5 CL   UNL     1      37.256 -19.273 -20.757  0.00  0.00    -0.082 Cl
ATOM      6 CL   UNL     1      33.791 -23.055 -19.134  0.00  0.00    -0.082 Cl
ATOM      7  C   UNL     1      34.549 -18.996 -20.949  0.00  0.00    +0.065 C 
ATOM      8  C   UNL     1      35.622 -19.798 -20.560  0.00  0.00    +0.063 C 
ATOM      9  C   UNL     1      33.241 -19.448 -20.775  0.00  0.00    +0.006 C 
ATOM     10  C   UNL     1      35.388 -21.053 -19.998  0.00  0.00    +0.023 C 
ATOM     11  C   UNL     1      33.006 -20.704 -20.213  0.00  0.00    +0.012 C 
ATOM     12  C   UNL     1      34.080 -21.505 -19.825  0.00  0.00    +0.059 C 
ENDBRANCH   3   7
BRANCH   2  13
ATOM     13  S   UNL     1      33.848 -15.025 -21.692  0.00  0.00    +0.082 S 
ATOM     14  O   UNL     1      35.172 -14.476 -21.483  0.00  0.00    -0.149 OA
ATOM     15  O   UNL     1      32.661 -14.335 -21.228  0.00  0.00    -0.149 OA
BRANCH  13  18
ATOM     16 BR   UNL     1      32.938 -13.323 -27.329  0.00  0.00    -0.042 Br
ATOM     17  S   UNL     1      33.295 -13.590 -24.178  0.00  0.00    -0.060 S 
ATOM     18  C   UNL     1      33.692 -15.085 -23.478  0.00  0.00    +0.155 C 
ATOM     19  C   UNL     1      33.832 -16.095 -24.367  0.00  0.00    +0.028 C 
ATOM     20  C   UNL     1      33.603 -15.639 -25.698  0.00  0.00    +0.015 C 
ATOM     21  C   UNL     1      33.303 -14.295 -25.739  0.00  0.00    +0.065 C 
ENDBRANCH  13  18
ENDBRANCH   2  13
TORSDOF 3
ENDMDL
MODEL 7
REMARK VINA RESULT:      -8.5      6.060      8.560
REMARK  Name = 10160238
REMARK  3 active torsions:
REMARK  status: ('A' for Active; 'I' for Inactive)
REMARK    1  A    between atoms: N_2  and  S_13
REMARK    2  A    between atoms: C_3  and  C_7
REMARK    3  A    between atoms: S_13  and  C_18
REMARK                            x       y       z     vdW  Elec       q    Type
REMARK                         _______ _______ _______ _____ _____    ______ ____
ROOT
ATOM      1  O   UNL     1      32.367 -13.758 -24.032  0.00  0.00    -0.269 OA
ATOM      2  N   UNL     1      34.441 -12.686 -23.842  0.00  0.00    -0.181 N 
ATOM      3  C   UNL     1      33.540 -13.795 -23.637  0.00  0.00    +0.265 C 
ATOM      4  H   UNL     1      35.361 -12.780 -23.505  0.00  0.00    +0.177 HD
ENDROOT
BRANCH   3   7
ATOM      5 CL   UNL     1      32.933 -14.083 -20.635  0.00  0.00    -0.082 Cl
ATOM      6 CL   UNL     1      35.829 -18.606 -20.948  0.00  0.00    -0.082 Cl
ATOM      7  C   UNL     1      34.085 -14.958 -22.947  0.00  0.00    +0.065 C 
ATOM      8  C   UNL     1      33.866 -15.181 -21.588  0.00  0.00    +0.063 C 
ATOM      9  C   UNL     1      34.842 -15.865 -23.689  0.00  0.00    +0.006 C 
ATOM     10  C   UNL     1      34.405 -16.309 -20.970  0.00  0.00    +0.023 C 
ATOM     11  C   UNL     1      35.382 -16.994 -23.071  0.00  0.00    +0.012 C 
ATOM     12  C   UNL     1      35.162 -17.215 -21.712  0.00  0.00    +0.059 C 
ENDBRANCH   3   7
BRANCH   2  13
ATOM     13  S   UNL     1      34.030 -11.217 -24.624  0.00  0.00    +0.082 S 
ATOM     14  O   UNL     1      33.081 -11.493 -25.684  0.00  0.00    -0.149 OA
ATOM     15  O   UNL     1      35.234 -10.448 -24.867  0.00  0.00    -0.149 OA
BRANCH  13  18
ATOM     16 BR   UNL     1      32.008  -6.583 -21.472  0.00  0.00    -0.042 Br
ATOM     17  S   UNL     1      33.491  -8.601 -23.435  0.00  0.00    -0.060 S 
ATOM     18  C   UNL     1      33.081 -10.249 -23.449  0.00  0.00    +0.155 C 
ATOM     19  C   UNL     1      32.103 -10.586 -22.576  0.00  0.00    +0.028 C 
ATOM     20  C   UNL     1      31.655  -9.446 -21.848  0.00  0.00    +0.015 C 
ATOM     21  C   UNL     1      32.325  -8.300 -22.216  0.00  0.00    +0.065 C 
ENDBRANCH  13  18
ENDBRANCH   2  13
TORSDOF 3
ENDMDL
MODEL 8
REMARK VINA RESULT:      -8.5      4.667      7.382
REMARK  Name = 10160238
REMARK  3 active torsions:
REMARK  status: ('A' for Active; 'I' for Inactive)
REMARK    1  A    between atoms: N_2  and  S_13
REMARK    2  A    between atoms: C_3  and  C_7
REMARK    3  A    between atoms: S_13  and  C_18
REMARK                            x       y       z     vdW  Elec       q    Type
REMARK                         _______ _______ _______ _____ _____    ______ ____
ROOT
ATOM      1  O   UNL     1      36.099 -18.925 -20.706  0.00  0.00    -0.269 OA
ATOM      2  N   UNL     1      34.428 -19.407 -22.273  0.00  0.00    -0.181 N 
ATOM      3  C   UNL     1      35.090 -19.577 -21.002  0.00  0.00    +0.265 C 
ATOM      4  H   UNL     1      33.628 -19.955 -22.446  0.00  0.00    +0.177 HD
ENDROOT
BRANCH   3   7
ATOM      5 CL   UNL     1      37.008 -21.501 -19.557  0.00  0.00    -0.082 Cl
ATOM      6 CL   UNL     1      32.560 -23.508 -17.291  0.00  0.00    -0.082 Cl
ATOM      7  C   UNL     1      34.506 -20.552 -20.088  0.00  0.00    +0.065 C 
ATOM      8  C   UNL     1      35.290 -21.467 -19.385  0.00  0.00    +0.063 C 
ATOM      9  C   UNL     1      33.120 -20.550 -19.926  0.00  0.00    +0.006 C 
ATOM     10  C   UNL     1      34.688 -22.381 -18.519  0.00  0.00    +0.023 C 
ATOM     11  C   UNL     1      32.518 -21.464 -19.060  0.00  0.00    +0.012 C 
ATOM     12  C   UNL     1      33.303 -22.379 -18.357  0.00  0.00    +0.059 C 
ENDBRANCH   3   7
BRANCH   2  13
ATOM     13  S   UNL     1      34.927 -18.324 -23.505  0.00  0.00    +0.082 S 
ATOM     14  O   UNL     1      34.091 -18.515 -24.672  0.00  0.00    -0.149 OA
ATOM     15  O   UNL     1      36.373 -18.338 -23.599  0.00  0.00    -0.149 OA
BRANCH  13  18
ATOM     16 BR   UNL     1      33.342 -12.582 -23.593  0.00  0.00    -0.042 Br
ATOM     17  S   UNL     1      34.137 -15.600 -24.212  0.00  0.00    -0.060 S 
ATOM     18  C   UNL     1      34.506 -16.673 -22.948  0.00  0.00    +0.155 C 
ATOM     19  C   UNL     1      34.426 -16.124 -21.713  0.00  0.00    +0.028 C 
ATOM     20  C   UNL     1      34.046 -14.753 -21.788  0.00  0.00    +0.015 C 
ATOM     21  C   UNL     1      33.856 -14.338 -23.088  0.00  0.00    +0.065 C 
ENDBRANCH  13  18
ENDBRANCH   2  13
TORSDOF 3
ENDMDL
MODEL 9
REMARK VINA RESULT:      -8.5      6.158      8.445
REMARK  Name = 10160238
REMARK  3 active torsions:
REMARK  status: ('A' for Active; 'I' for Inactive)
REMARK    1  A    between atoms: N_2  and  S_13
REMARK    2  A    between atoms: C_3  and  C_7
REMARK    3  A    between atoms: S_13  and  C_18
REMARK                            x       y       z     vdW  Elec       q    Type
REMARK                         _______ _______ _______ _____ _____    ______ ____
ROOT
ATOM      1  O   UNL     1      32.337 -13.687 -23.983  0.00  0.00    -0.269 OA
ATOM      2  N   UNL     1      34.446 -12.674 -23.887  0.00  0.00    -0.181 N 
ATOM      3  C   UNL     1      33.527 -13.761 -23.650  0.00  0.00    +0.265 C 
ATOM      4  H   UNL     1      35.380 -12.797 -23.600  0.00  0.00    +0.177 HD
ENDROOT
BRANCH   3   7
ATOM      5 CL   UNL     1      34.212 -16.169 -25.438  0.00  0.00    -0.082 Cl
ATOM      6 CL   UNL     1      35.759 -18.544 -20.865  0.00  0.00    -0.082 Cl
ATOM      7  C   UNL     1      34.073 -14.947 -23.003  0.00  0.00    +0.065 C 
ATOM      8  C   UNL     1      34.417 -16.091 -23.725  0.00  0.00    +0.063 C 
ATOM      9  C   UNL     1      34.253 -14.916 -21.620  0.00  0.00    +0.006 C 
ATOM     10  C   UNL     1      34.939 -17.203 -23.064  0.00  0.00    +0.023 C 
ATOM     11  C   UNL     1      34.774 -16.028 -20.958  0.00  0.00    +0.012 C 
ATOM     12  C   UNL     1      35.117 -17.171 -21.681  0.00  0.00    +0.059 C 
ENDBRANCH   3   7
BRANCH   2  13
ATOM     13  S   UNL     1      34.036 -11.184 -24.630  0.00  0.00    +0.082 S 
ATOM     14  O   UNL     1      33.083 -11.430 -25.693  0.00  0.00    -0.149 OA
ATOM     15  O   UNL     1      35.241 -10.412 -24.857  0.00  0.00    -0.149 OA
BRANCH  13  18
ATOM     16 BR   UNL     1      32.023  -6.624 -21.366  0.00  0.00    -0.042 Br
ATOM     17  S   UNL     1      33.496  -8.596 -23.383  0.00  0.00    -0.060 S 
ATOM     18  C   UNL     1      33.094 -10.245 -23.427  0.00  0.00    +0.155 C 
ATOM     19  C   UNL     1      32.125 -10.603 -22.553  0.00  0.00    +0.028 C 
ATOM     20  C   UNL     1      31.679  -9.481 -21.797  0.00  0.00    +0.015 C 
ATOM     21  C   UNL     1      32.341  -8.325 -22.147  0.00  0.00    +0.065 C 
ENDBRANCH  13  18
ENDBRANCH   2  13
TORSDOF 3
ENDMDL
