MODEL 1
REMARK VINA RESULT:     -11.3      0.000      0.000
REMARK  Name = 51001932
REMARK  5 active torsions:
REMARK  status: ('A' for Active; 'I' for Inactive)
REMARK    1  A    between atoms: C_8  and  C_18
REMARK    2  A    between atoms: C_11  and  C_26
REMARK    3  A    between atoms: N_15  and  C_21
REMARK    4  A    between atoms: N_24  and  C_29
REMARK    5  A    between atoms: C_29  and  C_34
REMARK                            x       y       z     vdW  Elec       q    Type
REMARK                         _______ _______ _______ _____ _____    ______ ____
ROOT
ATOM      1  O   UNL     1      32.661 -22.409 -18.804  0.00  0.00    -0.473 OA
ATOM      2  N   UNL     1      34.347 -23.528 -16.546  0.00  0.00    -0.273 N 
ATOM      3  N   UNL     1      36.470 -22.945 -16.680  0.00  0.00    -0.385 NA
ATOM      4  C   UNL     1      35.273 -22.764 -17.228  0.00  0.00    +0.186 C 
ATOM      5  C   UNL     1      32.922 -23.646 -16.777  0.00  0.00    +0.141 C 
ATOM      6  C   UNL     1      35.034 -21.873 -18.382  0.00  0.00    +0.078 C 
ATOM      7  C   UNL     1      33.825 -21.750 -19.088  0.00  0.00    +0.142 C 
ATOM      8  C   UNL     1      36.305 -23.834 -15.654  0.00  0.00    +0.177 C 
ATOM      9  C   UNL     1      32.322 -22.418 -17.421  0.00  0.00    +0.227 C 
ATOM     10  C   UNL     1      34.995 -24.213 -15.552  0.00  0.00    +0.157 C 
ATOM     11  C   UNL     1      34.838 -20.195 -20.661  0.00  0.00    +0.006 C 
ATOM     12  C   UNL     1      33.741 -20.934 -20.229  0.00  0.00    +0.037 C 
ATOM     13  C   UNL     1      36.129 -21.108 -18.842  0.00  0.00    +0.007 C 
ATOM     14  C   UNL     1      36.032 -20.277 -19.962  0.00  0.00    +0.000 C 
ENDROOT
BRANCH   8  18
ATOM     15  N   UNL     1      37.403 -24.134 -13.467  0.00  0.00    -0.175 N 
ATOM     16  N   UNL     1      38.473 -24.962 -15.311  0.00  0.00    -0.334 NA
ATOM     17  N   UNL     1      38.565 -24.719 -13.142  0.00  0.00    -0.114 NA
ATOM     18  C   UNL     1      37.392 -24.308 -14.790  0.00  0.00    +0.241 C 
ATOM     19  C   UNL     1      39.195 -25.208 -14.243  0.00  0.00    +0.082 C 
ATOM     20  C   UNL     1      40.480 -25.901 -14.217  0.00  0.00    +0.131 C 
BRANCH  15  21
ATOM     21  C   UNL     1      36.514 -23.529 -12.520  0.00  0.00    +0.100 C 
ATOM     22  C   UNL     1      35.600 -24.567 -11.862  0.00  0.00    +0.024 C 
ATOM     23  C   UNL     1      37.276 -22.727 -11.463  0.00  0.00    +0.024 C 
ENDBRANCH  15  21
ENDBRANCH   8  18
BRANCH  11  26
ATOM     24  N   UNL     1      34.481 -17.582 -23.071  0.00  0.00    -0.205 N 
ATOM     25  N   UNL     1      34.658 -18.570 -23.964  0.00  0.00    -0.176 NA
ATOM     26  C   UNL     1      34.732 -19.355 -21.820  0.00  0.00    +0.037 C 
ATOM     27  C   UNL     1      34.517 -17.999 -21.772  0.00  0.00    +0.086 C 
ATOM     28  C   UNL     1      34.811 -19.651 -23.194  0.00  0.00    +0.119 C 
BRANCH  24  29
ATOM     29  C   UNL     1      34.277 -16.229 -23.530  0.00  0.00    +0.147 C 
ATOM     30  C   UNL     1      33.018 -15.539 -22.959  0.00  0.00    +0.031 C 
ATOM     31  C   UNL     1      35.494 -15.382 -23.089  0.00  0.00    +0.031 C 
BRANCH  29  34
ATOM     32  O   UNL     1      34.958 -16.758 -25.818  0.00  0.00    -0.274 OA
ATOM     33  N   UNL     1      33.089 -15.466 -25.544  0.00  0.00    -0.327 N 
ATOM     34  C   UNL     1      34.162 -16.193 -25.070  0.00  0.00    +0.237 C 
ATOM     35  H   UNL     1      32.937 -15.387 -26.514  0.00  0.00    +0.145 HD
ATOM     36  H   UNL     1      32.476 -15.025 -24.912  0.00  0.00    +0.145 HD
ENDBRANCH  29  34
ENDBRANCH  24  29
ENDBRANCH  11  26
TORSDOF 5
ENDMDL
MODEL 2
REMARK VINA RESULT:     -11.1      3.220     11.742
REMARK  Name = 51001932
REMARK  5 active torsions:
REMARK  status: ('A' for Active; 'I' for Inactive)
REMARK    1  A    between atoms: C_8  and  C_18
REMARK    2  A    between atoms: C_11  and  C_26
REMARK    3  A    between atoms: N_15  and  C_21
REMARK    4  A    between atoms: N_24  and  C_29
REMARK    5  A    between atoms: C_29  and  C_34
REMARK                            x       y       z     vdW  Elec       q    Type
REMARK                         _______ _______ _______ _____ _____    ______ ____
ROOT
ATOM      1  O   UNL     1      33.985 -17.940 -24.778  0.00  0.00    -0.473 OA
ATOM      2  N   UNL     1      33.783 -14.917 -24.915  0.00  0.00    -0.273 N 
ATOM      3  N   UNL     1      34.001 -13.945 -22.947  0.00  0.00    -0.385 NA
ATOM      4  C   UNL     1      34.060 -15.114 -23.576  0.00  0.00    +0.186 C 
ATOM      5  C   UNL     1      33.741 -15.893 -25.985  0.00  0.00    +0.141 C 
ATOM      6  C   UNL     1      34.376 -16.388 -22.897  0.00  0.00    +0.078 C 
ATOM      7  C   UNL     1      34.315 -17.665 -23.479  0.00  0.00    +0.142 C 
ATOM      8  C   UNL     1      33.678 -13.005 -23.886  0.00  0.00    +0.177 C 
ATOM      9  C   UNL     1      34.622 -17.093 -25.729  0.00  0.00    +0.227 C 
ATOM     10  C   UNL     1      33.534 -13.585 -25.117  0.00  0.00    +0.157 C 
ATOM     11  C   UNL     1      34.895 -18.717 -21.364  0.00  0.00    +0.006 C 
ATOM     12  C   UNL     1      34.551 -18.816 -22.708  0.00  0.00    +0.037 C 
ATOM     13  C   UNL     1      34.731 -16.318 -21.532  0.00  0.00    +0.007 C 
ATOM     14  C   UNL     1      34.991 -17.465 -20.776  0.00  0.00    +0.000 C 
ENDROOT
BRANCH   8  18
ATOM     15  N   UNL     1      32.569 -11.101 -22.780  0.00  0.00    -0.175 N 
ATOM     16  N   UNL     1      34.322 -10.642 -24.176  0.00  0.00    -0.334 NA
ATOM     17  N   UNL     1      32.814  -9.784 -22.849  0.00  0.00    -0.114 NA
ATOM     18  C   UNL     1      33.509 -11.576 -23.600  0.00  0.00    +0.241 C 
ATOM     19  C   UNL     1      33.856  -9.519 -23.680  0.00  0.00    +0.082 C 
ATOM     20  C   UNL     1      34.366  -8.180 -23.962  0.00  0.00    +0.131 C 
BRANCH  15  21
ATOM     21  C   UNL     1      31.534 -11.687 -21.983  0.00  0.00    +0.100 C 
ATOM     22  C   UNL     1      32.091 -12.297 -20.694  0.00  0.00    +0.024 C 
ATOM     23  C   UNL     1      30.423 -10.681 -21.674  0.00  0.00    +0.024 C 
ENDBRANCH  15  21
ENDBRANCH   8  18
BRANCH  11  26
ATOM     24  N   UNL     1      34.823 -21.646 -19.321  0.00  0.00    -0.205 N 
ATOM     25  N   UNL     1      36.145 -21.675 -19.556  0.00  0.00    -0.176 NA
ATOM     26  C   UNL     1      35.148 -19.901 -20.593  0.00  0.00    +0.037 C 
ATOM     27  C   UNL     1      34.178 -20.604 -19.919  0.00  0.00    +0.086 C 
ATOM     28  C   UNL     1      36.338 -20.606 -20.333  0.00  0.00    +0.119 C 
BRANCH  24  29
ATOM     29  C   UNL     1      34.219 -22.667 -18.498  0.00  0.00    +0.147 C 
ATOM     30  C   UNL     1      32.781 -22.348 -18.029  0.00  0.00    +0.031 C 
ATOM     31  C   UNL     1      34.144 -23.971 -19.324  0.00  0.00    +0.031 C 
BRANCH  29  34
ATOM     32  O   UNL     1      34.916 -23.888 -16.498  0.00  0.00    -0.274 OA
ATOM     33  N   UNL     1      36.018 -21.942 -16.984  0.00  0.00    -0.327 N 
ATOM     34  C   UNL     1      35.069 -22.913 -17.231  0.00  0.00    +0.237 C 
ATOM     35  H   UNL     1      36.606 -22.016 -16.197  0.00  0.00    +0.145 HD
ATOM     36  H   UNL     1      36.107 -21.174 -17.594  0.00  0.00    +0.145 HD
ENDBRANCH  29  34
ENDBRANCH  24  29
ENDBRANCH  11  26
TORSDOF 5
ENDMDL
MODEL 3
REMARK VINA RESULT:     -11.1      4.566      8.457
REMARK  Name = 51001932
REMARK  5 active torsions:
REMARK  status: ('A' for Active; 'I' for Inactive)
REMARK    1  A    between atoms: C_8  and  C_18
REMARK    2  A    between atoms: C_11  and  C_26
REMARK    3  A    between atoms: N_15  and  C_21
REMARK    4  A    between atoms: N_24  and  C_29
REMARK    5  A    between atoms: C_29  and  C_34
REMARK                            x       y       z     vdW  Elec       q    Type
REMARK                         _______ _______ _______ _____ _____    ______ ____
ROOT
ATOM      1  O   UNL     1      34.262 -15.312 -24.854  0.00  0.00    -0.473 OA
ATOM      2  N   UNL     1      34.861 -17.876 -23.352  0.00  0.00    -0.273 N 
ATOM      3  N   UNL     1      34.477 -17.721 -21.186  0.00  0.00    -0.385 NA
ATOM      4  C   UNL     1      34.366 -17.075 -22.342  0.00  0.00    +0.186 C 
ATOM      5  C   UNL     1      34.940 -17.601 -24.772  0.00  0.00    +0.141 C 
ATOM      6  C   UNL     1      33.794 -15.719 -22.464  0.00  0.00    +0.078 C 
ATOM      7  C   UNL     1      33.780 -14.936 -23.631  0.00  0.00    +0.142 C 
ATOM      8  C   UNL     1      35.053 -18.930 -21.460  0.00  0.00    +0.177 C 
ATOM      9  C   UNL     1      33.886 -16.628 -25.247  0.00  0.00    +0.227 C 
ATOM     10  C   UNL     1      35.304 -19.050 -22.800  0.00  0.00    +0.157 C 
ATOM     11  C   UNL     1      32.762 -13.077 -22.437  0.00  0.00    +0.006 C 
ATOM     12  C   UNL     1      33.287 -13.620 -23.605  0.00  0.00    +0.037 C 
ATOM     13  C   UNL     1      33.251 -15.142 -21.295  0.00  0.00    +0.007 C 
ATOM     14  C   UNL     1      32.738 -13.841 -21.282  0.00  0.00    +0.000 C 
ENDROOT
BRANCH   8  18
ATOM     15  N   UNL     1      34.440 -20.787 -19.959  0.00  0.00    -0.175 N 
ATOM     16  N   UNL     1      36.618 -20.089 -19.946  0.00  0.00    -0.334 NA
ATOM     17  N   UNL     1      35.180 -21.497 -19.095  0.00  0.00    -0.114 NA
ATOM     18  C   UNL     1      35.356 -19.949 -20.449  0.00  0.00    +0.241 C 
ATOM     19  C   UNL     1      36.473 -21.076 -19.093  0.00  0.00    +0.082 C 
ATOM     20  C   UNL     1      37.526 -21.652 -18.260  0.00  0.00    +0.131 C 
BRANCH  15  21
ATOM     21  C   UNL     1      33.041 -21.000 -20.185  0.00  0.00    +0.100 C 
ATOM     22  C   UNL     1      32.373 -21.679 -18.986  0.00  0.00    +0.024 C 
ATOM     23  C   UNL     1      32.323 -19.697 -20.542  0.00  0.00    +0.024 C 
ENDBRANCH  15  21
ENDBRANCH   8  18
BRANCH  11  26
ATOM     24  N   UNL     1      32.114  -9.575 -22.715  0.00  0.00    -0.205 N 
ATOM     25  N   UNL     1      30.933  -9.890 -22.156  0.00  0.00    -0.176 NA
ATOM     26  C   UNL     1      32.250 -11.736 -22.430  0.00  0.00    +0.037 C 
ATOM     27  C   UNL     1      32.940 -10.645 -22.902  0.00  0.00    +0.086 C 
ATOM     28  C   UNL     1      31.023 -11.211 -21.983  0.00  0.00    +0.119 C 
BRANCH  24  29
ATOM     29  C   UNL     1      32.401  -8.202 -23.058  0.00  0.00    +0.147 C 
ATOM     30  C   UNL     1      33.721  -7.997 -23.835  0.00  0.00    +0.031 C 
ATOM     31  C   UNL     1      31.260  -7.682 -23.963  0.00  0.00    +0.031 C 
BRANCH  29  34
ATOM     32  O   UNL     1      32.149  -6.148 -21.757  0.00  0.00    -0.274 OA
ATOM     33  N   UNL     1      32.956  -7.993 -20.670  0.00  0.00    -0.327 N 
ATOM     34  C   UNL     1      32.479  -7.332 -21.783  0.00  0.00    +0.237 C 
ATOM     35  H   UNL     1      33.040  -7.516 -19.813  0.00  0.00    +0.145 HD
ATOM     36  H   UNL     1      33.213  -8.941 -20.733  0.00  0.00    +0.145 HD
ENDBRANCH  29  34
ENDBRANCH  24  29
ENDBRANCH  11  26
TORSDOF 5
ENDMDL
MODEL 4
REMARK VINA RESULT:     -11.0      6.652     14.425
REMARK  Name = 51001932
REMARK  5 active torsions:
REMARK  status: ('A' for Active; 'I' for Inactive)
REMARK    1  A    between atoms: C_8  and  C_18
REMARK    2  A    between atoms: C_11  and  C_26
REMARK    3  A    between atoms: N_15  and  C_21
REMARK    4  A    between atoms: N_24  and  C_29
REMARK    5  A    between atoms: C_29  and  C_34
REMARK                            x       y       z     vdW  Elec       q    Type
REMARK                         _______ _______ _______ _____ _____    ______ ____
ROOT
ATOM      1  O   UNL     1      32.216 -12.207 -20.428  0.00  0.00    -0.473 OA
ATOM      2  N   UNL     1      31.711  -9.404 -21.468  0.00  0.00    -0.273 N 
ATOM      3  N   UNL     1      32.403  -9.112 -23.542  0.00  0.00    -0.385 NA
ATOM      4  C   UNL     1      32.246 -10.019 -22.583  0.00  0.00    +0.186 C 
ATOM      5  C   UNL     1      31.361  -9.989 -20.190  0.00  0.00    +0.141 C 
ATOM      6  C   UNL     1      32.605 -11.443 -22.744  0.00  0.00    +0.078 C 
ATOM      7  C   UNL     1      32.592 -12.412 -21.727  0.00  0.00    +0.142 C 
ATOM      8  C   UNL     1      31.977  -7.918 -23.032  0.00  0.00    +0.177 C 
ATOM      9  C   UNL     1      31.014 -11.456 -20.284  0.00  0.00    +0.227 C 
ATOM     10  C   UNL     1      31.544  -8.072 -21.743  0.00  0.00    +0.157 C 
ATOM     11  C   UNL     1      33.465 -14.099 -23.247  0.00  0.00    +0.006 C 
ATOM     12  C   UNL     1      33.041 -13.720 -21.978  0.00  0.00    +0.037 C 
ATOM     13  C   UNL     1      33.037 -11.857 -24.023  0.00  0.00    +0.007 C 
ATOM     14  C   UNL     1      33.457 -13.167 -24.273  0.00  0.00    +0.000 C 
ENDROOT
BRANCH   8  18
ATOM     15  N   UNL     1      32.989  -6.284 -24.576  0.00  0.00    -0.175 N 
ATOM     16  N   UNL     1      30.951  -5.768 -23.674  0.00  0.00    -0.334 NA
ATOM     17  N   UNL     1      32.547  -5.092 -25.005  0.00  0.00    -0.114 NA
ATOM     18  C   UNL     1      31.987  -6.652 -23.774  0.00  0.00    +0.241 C 
ATOM     19  C   UNL     1      31.335  -4.793 -24.465  0.00  0.00    +0.082 C 
ATOM     20  C   UNL     1      30.592  -3.566 -24.739  0.00  0.00    +0.131 C 
BRANCH  15  21
ATOM     21  C   UNL     1      34.234  -6.871 -24.973  0.00  0.00    +0.100 C 
ATOM     22  C   UNL     1      34.976  -5.991 -25.983  0.00  0.00    +0.024 C 
ATOM     23  C   UNL     1      35.121  -7.180 -23.765  0.00  0.00    +0.024 C 
ENDBRANCH  15  21
ENDBRANCH   8  18
BRANCH  11  26
ATOM     24  N   UNL     1      34.523 -17.509 -23.147  0.00  0.00    -0.205 N 
ATOM     25  N   UNL     1      34.604 -17.378 -24.482  0.00  0.00    -0.176 NA
ATOM     26  C   UNL     1      33.908 -15.442 -23.491  0.00  0.00    +0.037 C 
ATOM     27  C   UNL     1      34.110 -16.378 -22.506  0.00  0.00    +0.086 C 
ATOM     28  C   UNL     1      34.228 -16.114 -24.686  0.00  0.00    +0.119 C 
BRANCH  24  29
ATOM     29  C   UNL     1      34.861 -18.769 -22.529  0.00  0.00    +0.147 C 
ATOM     30  C   UNL     1      33.772 -19.336 -21.590  0.00  0.00    +0.031 C 
ATOM     31  C   UNL     1      35.079 -19.813 -23.648  0.00  0.00    +0.031 C 
BRANCH  29  34
ATOM     32  O   UNL     1      36.201 -18.831 -20.485  0.00  0.00    -0.274 OA
ATOM     33  N   UNL     1      37.266 -18.265 -22.430  0.00  0.00    -0.327 N 
ATOM     34  C   UNL     1      36.157 -18.633 -21.698  0.00  0.00    +0.237 C 
ATOM     35  H   UNL     1      38.137 -18.154 -21.983  0.00  0.00    +0.145 HD
ATOM     36  H   UNL     1      37.188 -18.112 -23.399  0.00  0.00    +0.145 HD
ENDBRANCH  29  34
ENDBRANCH  24  29
ENDBRANCH  11  26
TORSDOF 5
ENDMDL
MODEL 5
REMARK VINA RESULT:     -10.6      3.672     10.889
REMARK  Name = 51001932
REMARK  5 active torsions:
REMARK  status: ('A' for Active; 'I' for Inactive)
REMARK    1  A    between atoms: C_8  and  C_18
REMARK    2  A    between atoms: C_11  and  C_26
REMARK    3  A    between atoms: N_15  and  C_21
REMARK    4  A    between atoms: N_24  and  C_29
REMARK    5  A    between atoms: C_29  and  C_34
REMARK                            x       y       z     vdW  Elec       q    Type
REMARK                         _______ _______ _______ _____ _____    ______ ____
ROOT
ATOM      1  O   UNL     1      36.622 -20.682 -20.604  0.00  0.00    -0.473 OA
ATOM      2  N   UNL     1      35.998 -18.283 -22.350  0.00  0.00    -0.273 N 
ATOM      3  N   UNL     1      33.848 -17.794 -22.414  0.00  0.00    -0.385 NA
ATOM      4  C   UNL     1      34.749 -18.585 -21.842  0.00  0.00    +0.186 C 
ATOM      5  C   UNL     1      37.279 -18.874 -22.021  0.00  0.00    +0.141 C 
ATOM      6  C   UNL     1      34.410 -19.607 -20.831  0.00  0.00    +0.078 C 
ATOM      7  C   UNL     1      35.294 -20.561 -20.299  0.00  0.00    +0.142 C 
ATOM      8  C   UNL     1      34.523 -16.993 -23.293  0.00  0.00    +0.177 C 
ATOM      9  C   UNL     1      37.327 -19.445 -20.623  0.00  0.00    +0.227 C 
ATOM     10  C   UNL     1      35.861 -17.280 -23.274  0.00  0.00    +0.157 C 
ATOM     11  C   UNL     1      33.506 -21.569 -18.993  0.00  0.00    +0.006 C 
ATOM     12  C   UNL     1      34.834 -21.544 -19.406  0.00  0.00    +0.037 C 
ATOM     13  C   UNL     1      33.068 -19.655 -20.390  0.00  0.00    +0.007 C 
ATOM     14  C   UNL     1      32.623 -20.619 -19.481  0.00  0.00    +0.000 C 
ENDROOT
BRANCH   8  18
ATOM     15  N   UNL     1      33.221 -14.929 -23.642  0.00  0.00    -0.175 N 
ATOM     16  N   UNL     1      33.950 -16.048 -25.499  0.00  0.00    -0.334 NA
ATOM     17  N   UNL     1      32.842 -14.312 -24.770  0.00  0.00    -0.114 NA
ATOM     18  C   UNL     1      33.889 -15.973 -24.136  0.00  0.00    +0.241 C 
ATOM     19  C   UNL     1      33.279 -14.982 -25.869  0.00  0.00    +0.082 C 
ATOM     20  C   UNL     1      33.029 -14.561 -27.245  0.00  0.00    +0.131 C 
BRANCH  15  21
ATOM     21  C   UNL     1      32.913 -14.459 -22.324  0.00  0.00    +0.100 C 
ATOM     22  C   UNL     1      34.154 -14.437 -21.428  0.00  0.00    +0.024 C 
ATOM     23  C   UNL     1      32.242 -13.084 -22.359  0.00  0.00    +0.024 C 
ENDBRANCH  15  21
ENDBRANCH   8  18
BRANCH  11  26
ATOM     24  N   UNL     1      31.889 -23.579 -16.521  0.00  0.00    -0.205 N 
ATOM     25  N   UNL     1      32.824 -24.488 -16.849  0.00  0.00    -0.176 NA
ATOM     26  C   UNL     1      33.055 -22.571 -18.069  0.00  0.00    +0.037 C 
ATOM     27  C   UNL     1      31.983 -22.413 -17.224  0.00  0.00    +0.086 C 
ATOM     28  C   UNL     1      33.533 -23.866 -17.794  0.00  0.00    +0.119 C 
BRANCH  24  29
ATOM     29  C   UNL     1      30.911 -23.891 -15.507  0.00  0.00    +0.147 C 
ATOM     30  C   UNL     1      29.829 -22.806 -15.303  0.00  0.00    +0.031 C 
ATOM     31  C   UNL     1      30.177 -25.186 -15.926  0.00  0.00    +0.031 C 
BRANCH  29  34
ATOM     32  O   UNL     1      31.315 -25.043 -13.389  0.00  0.00    -0.274 OA
ATOM     33  N   UNL     1      32.564 -23.177 -13.831  0.00  0.00    -0.327 N 
ATOM     34  C   UNL     1      31.600 -24.113 -14.142  0.00  0.00    +0.237 C 
ATOM     35  H   UNL     1      33.055 -23.240 -12.979  0.00  0.00    +0.145 HD
ATOM     36  H   UNL     1      32.761 -22.445 -14.459  0.00  0.00    +0.145 HD
ENDBRANCH  29  34
ENDBRANCH  24  29
ENDBRANCH  11  26
TORSDOF 5
ENDMDL
MODEL 6
REMARK VINA RESULT:     -10.5      4.082      7.655
REMARK  Name = 51001932
REMARK  5 active torsions:
REMARK  status: ('A' for Active; 'I' for Inactive)
REMARK    1  A    between atoms: C_8  and  C_18
REMARK    2  A    between atoms: C_11  and  C_26
REMARK    3  A    between atoms: N_15  and  C_21
REMARK    4  A    between atoms: N_24  and  C_29
REMARK    5  A    between atoms: C_29  and  C_34
REMARK                            x       y       z     vdW  Elec       q    Type
REMARK                         _______ _______ _______ _____ _____    ______ ____
ROOT
ATOM      1  O   UNL     1      34.990 -16.057 -23.834  0.00  0.00    -0.473 OA
ATOM      2  N   UNL     1      34.877 -18.705 -22.361  0.00  0.00    -0.273 N 
ATOM      3  N   UNL     1      33.702 -18.611 -20.498  0.00  0.00    -0.385 NA
ATOM      4  C   UNL     1      34.063 -17.917 -21.572  0.00  0.00    +0.186 C 
ATOM      5  C   UNL     1      35.502 -18.382 -23.628  0.00  0.00    +0.141 C 
ATOM      6  C   UNL     1      33.631 -16.528 -21.826  0.00  0.00    +0.078 C 
ATOM      7  C   UNL     1      34.090 -15.702 -22.866  0.00  0.00    +0.142 C 
ATOM      8  C   UNL     1      34.295 -19.838 -20.600  0.00  0.00    +0.177 C 
ATOM      9  C   UNL     1      34.745 -17.335 -24.412  0.00  0.00    +0.227 C 
ATOM     10  C   UNL     1      35.033 -19.921 -21.749  0.00  0.00    +0.157 C 
ATOM     11  C   UNL     1      32.762 -13.836 -22.046  0.00  0.00    +0.006 C 
ATOM     12  C   UNL     1      33.673 -14.363 -22.956  0.00  0.00    +0.037 C 
ATOM     13  C   UNL     1      32.703 -15.966 -20.920  0.00  0.00    +0.007 C 
ATOM     14  C   UNL     1      32.272 -14.641 -21.030  0.00  0.00    +0.000 C 
ENDROOT
BRANCH   8  18
ATOM     15  N   UNL     1      35.187 -21.447 -18.958  0.00  0.00    -0.175 N 
ATOM     16  N   UNL     1      32.925 -21.424 -19.297  0.00  0.00    -0.334 NA
ATOM     17  N   UNL     1      34.564 -22.354 -18.192  0.00  0.00    -0.114 NA
ATOM     18  C   UNL     1      34.152 -20.910 -19.608  0.00  0.00    +0.241 C 
ATOM     19  C   UNL     1      33.220 -22.334 -18.399  0.00  0.00    +0.082 C 
ATOM     20  C   UNL     1      32.268 -23.203 -17.712  0.00  0.00    +0.131 C 
BRANCH  15  21
ATOM     21  C   UNL     1      36.603 -21.230 -18.960  0.00  0.00    +0.100 C 
ATOM     22  C   UNL     1      37.243 -21.675 -17.642  0.00  0.00    +0.024 C 
ATOM     23  C   UNL     1      37.277 -21.916 -20.150  0.00  0.00    +0.024 C 
ENDBRANCH  15  21
ENDBRANCH   8  18
BRANCH  11  26
ATOM     24  N   UNL     1      32.302 -10.354 -22.695  0.00  0.00    -0.205 N 
ATOM     25  N   UNL     1      31.164 -10.516 -22.001  0.00  0.00    -0.176 NA
ATOM     26  C   UNL     1      32.335 -12.471 -22.159  0.00  0.00    +0.037 C 
ATOM     27  C   UNL     1      33.041 -11.494 -22.820  0.00  0.00    +0.086 C 
ATOM     28  C   UNL     1      31.189 -11.811 -21.676  0.00  0.00    +0.119 C 
BRANCH  24  29
ATOM     29  C   UNL     1      32.638  -9.055 -23.227  0.00  0.00    +0.147 C 
ATOM     30  C   UNL     1      33.644  -9.081 -24.400  0.00  0.00    +0.031 C 
ATOM     31  C   UNL     1      31.341  -8.403 -23.761  0.00  0.00    +0.031 C 
BRANCH  29  34
ATOM     32  O   UNL     1      34.229  -7.445 -22.304  0.00  0.00    -0.274 OA
ATOM     33  N   UNL     1      32.589  -8.226 -20.912  0.00  0.00    -0.327 N 
ATOM     34  C   UNL     1      33.244  -8.158 -22.124  0.00  0.00    +0.237 C 
ATOM     35  H   UNL     1      32.906  -7.688 -20.150  0.00  0.00    +0.145 HD
ATOM     36  H   UNL     1      31.805  -8.813 -20.808  0.00  0.00    +0.145 HD
ENDBRANCH  29  34
ENDBRANCH  24  29
ENDBRANCH  11  26
TORSDOF 5
ENDMDL
MODEL 7
REMARK VINA RESULT:     -10.2      4.046     12.117
REMARK  Name = 51001932
REMARK  5 active torsions:
REMARK  status: ('A' for Active; 'I' for Inactive)
REMARK    1  A    between atoms: C_8  and  C_18
REMARK    2  A    between atoms: C_11  and  C_26
REMARK    3  A    between atoms: N_15  and  C_21
REMARK    4  A    between atoms: N_24  and  C_29
REMARK    5  A    between atoms: C_29  and  C_34
REMARK                            x       y       z     vdW  Elec       q    Type
REMARK                         _______ _______ _______ _____ _____    ______ ____
ROOT
ATOM      1  O   UNL     1      33.777 -16.468 -24.939  0.00  0.00    -0.473 OA
ATOM      2  N   UNL     1      33.370 -13.468 -24.784  0.00  0.00    -0.273 N 
ATOM      3  N   UNL     1      33.631 -12.662 -22.748  0.00  0.00    -0.385 NA
ATOM      4  C   UNL     1      33.732 -13.763 -23.485  0.00  0.00    +0.186 C 
ATOM      5  C   UNL     1      33.333 -14.344 -25.938  0.00  0.00    +0.141 C 
ATOM      6  C   UNL     1      34.169 -15.067 -22.944  0.00  0.00    +0.078 C 
ATOM      7  C   UNL     1      34.160 -16.288 -23.638  0.00  0.00    +0.142 C 
ATOM      8  C   UNL     1      33.195 -11.668 -23.579  0.00  0.00    +0.177 C 
ATOM      9  C   UNL     1      34.304 -15.497 -25.838  0.00  0.00    +0.227 C 
ATOM     10  C   UNL     1      33.022 -12.144 -24.850  0.00  0.00    +0.157 C 
ATOM     11  C   UNL     1      34.925 -17.481 -21.661  0.00  0.00    +0.006 C 
ATOM     12  C   UNL     1      34.515 -17.484 -22.990  0.00  0.00    +0.037 C 
ATOM     13  C   UNL     1      34.594 -15.094 -21.597  0.00  0.00    +0.007 C 
ATOM     14  C   UNL     1      34.971 -16.283 -20.965  0.00  0.00    +0.000 C 
ENDROOT
BRANCH   8  18
ATOM     15  N   UNL     1      32.361  -9.970 -21.997  0.00  0.00    -0.175 N 
ATOM     16  N   UNL     1      33.313  -9.230 -23.940  0.00  0.00    -0.334 NA
ATOM     17  N   UNL     1      32.360  -8.631 -22.068  0.00  0.00    -0.114 NA
ATOM     18  C   UNL     1      32.948 -10.285 -23.153  0.00  0.00    +0.241 C 
ATOM     19  C   UNL     1      32.928  -8.198 -23.225  0.00  0.00    +0.082 C 
ATOM     20  C   UNL     1      33.078  -6.794 -23.595  0.00  0.00    +0.131 C 
BRANCH  15  21
ATOM     21  C   UNL     1      31.832 -10.718 -20.896  0.00  0.00    +0.100 C 
ATOM     22  C   UNL     1      31.793  -9.882 -19.613  0.00  0.00    +0.024 C 
ATOM     23  C   UNL     1      30.450 -11.291 -21.215  0.00  0.00    +0.024 C 
ENDBRANCH  15  21
ENDBRANCH   8  18
BRANCH  11  26
ATOM     24  N   UNL     1      35.150 -20.646 -20.020  0.00  0.00    -0.205 N 
ATOM     25  N   UNL     1      36.475 -20.432 -20.091  0.00  0.00    -0.176 NA
ATOM     26  C   UNL     1      35.298 -18.708 -21.017  0.00  0.00    +0.037 C 
ATOM     27  C   UNL     1      34.400 -19.643 -20.561  0.00  0.00    +0.086 C 
ATOM     28  C   UNL     1      36.559 -19.247 -20.699  0.00  0.00    +0.119 C 
BRANCH  24  29
ATOM     29  C   UNL     1      34.650 -21.855 -19.411  0.00  0.00    +0.147 C 
ATOM     30  C   UNL     1      34.787 -23.121 -20.288  0.00  0.00    +0.031 C 
ATOM     31  C   UNL     1      35.459 -22.114 -18.119  0.00  0.00    +0.031 C 
BRANCH  29  34
ATOM     32  O   UNL     1      32.573 -22.444 -18.265  0.00  0.00    -0.274 OA
ATOM     33  N   UNL     1      32.517 -20.666 -19.705  0.00  0.00    -0.327 N 
ATOM     34  C   UNL     1      33.154 -21.704 -19.056  0.00  0.00    +0.237 C 
ATOM     35  H   UNL     1      31.561 -20.495 -19.539  0.00  0.00    +0.145 HD
ATOM     36  H   UNL     1      33.017 -20.097 -20.333  0.00  0.00    +0.145 HD
ENDBRANCH  29  34
ENDBRANCH  24  29
ENDBRANCH  11  26
TORSDOF 5
ENDMDL
MODEL 8
REMARK VINA RESULT:      -9.9      6.609     14.445
REMARK  Name = 51001932
REMARK  5 active torsions:
REMARK  status: ('A' for Active; 'I' for Inactive)
REMARK    1  A    between atoms: C_8  and  C_18
REMARK    2  A    between atoms: C_11  and  C_26
REMARK    3  A    between atoms: N_15  and  C_21
REMARK    4  A    between atoms: N_24  and  C_29
REMARK    5  A    between atoms: C_29  and  C_34
REMARK                            x       y       z     vdW  Elec       q    Type
REMARK                         _______ _______ _______ _____ _____    ______ ____
ROOT
ATOM      1  O   UNL     1      32.004 -12.278 -20.794  0.00  0.00    -0.473 OA
ATOM      2  N   UNL     1      31.737  -9.456 -21.870  0.00  0.00    -0.273 N 
ATOM      3  N   UNL     1      32.750  -9.168 -23.808  0.00  0.00    -0.385 NA
ATOM      4  C   UNL     1      32.423 -10.077 -22.895  0.00  0.00    +0.186 C 
ATOM      5  C   UNL     1      31.178 -10.040 -20.668  0.00  0.00    +0.141 C 
ATOM      6  C   UNL     1      32.767 -11.509 -23.013  0.00  0.00    +0.078 C 
ATOM      7  C   UNL     1      32.573 -12.484 -22.021  0.00  0.00    +0.142 C 
ATOM      8  C   UNL     1      32.278  -7.967 -23.357  0.00  0.00    +0.177 C 
ATOM      9  C   UNL     1      30.814 -11.498 -20.831  0.00  0.00    +0.227 C 
ATOM     10  C   UNL     1      31.647  -8.118 -22.153  0.00  0.00    +0.157 C 
ATOM     11  C   UNL     1      33.629 -14.182 -23.406  0.00  0.00    +0.006 C 
ATOM     12  C   UNL     1      33.023 -13.802 -22.213  0.00  0.00    +0.037 C 
ATOM     13  C   UNL     1      33.382 -11.925 -24.215  0.00  0.00    +0.007 C 
ATOM     14  C   UNL     1      33.804 -13.244 -24.410  0.00  0.00    +0.000 C 
ENDROOT
BRANCH   8  18
ATOM     15  N   UNL     1      31.886  -5.552 -23.664  0.00  0.00    -0.175 N 
ATOM     16  N   UNL     1      33.165  -6.624 -25.228  0.00  0.00    -0.334 NA
ATOM     17  N   UNL     1      32.302  -4.711 -24.622  0.00  0.00    -0.114 NA
ATOM     18  C   UNL     1      32.436  -6.696 -24.075  0.00  0.00    +0.241 C 
ATOM     19  C   UNL     1      33.061  -5.355 -25.548  0.00  0.00    +0.082 C 
ATOM     20  C   UNL     1      33.662  -4.712 -26.713  0.00  0.00    +0.131 C 
BRANCH  15  21
ATOM     21  C   UNL     1      31.072  -5.165 -22.551  0.00  0.00    +0.100 C 
ATOM     22  C   UNL     1      31.818  -5.325 -21.223  0.00  0.00    +0.024 C 
ATOM     23  C   UNL     1      30.543  -3.737 -22.708  0.00  0.00    +0.024 C 
ENDBRANCH  15  21
ENDBRANCH   8  18
BRANCH  11  26
ATOM     24  N   UNL     1      34.640 -17.600 -23.167  0.00  0.00    -0.205 N 
ATOM     25  N   UNL     1      34.806 -17.500 -24.496  0.00  0.00    -0.176 NA
ATOM     26  C   UNL     1      34.071 -15.535 -23.593  0.00  0.00    +0.037 C 
ATOM     27  C   UNL     1      34.201 -16.451 -22.577  0.00  0.00    +0.086 C 
ATOM     28  C   UNL     1      34.457 -16.236 -24.751  0.00  0.00    +0.119 C 
BRANCH  24  29
ATOM     29  C   UNL     1      34.924 -18.849 -22.501  0.00  0.00    +0.147 C 
ATOM     30  C   UNL     1      33.811 -19.337 -21.547  0.00  0.00    +0.031 C 
ATOM     31  C   UNL     1      35.102 -19.941 -23.581  0.00  0.00    +0.031 C 
BRANCH  29  34
ATOM     32  O   UNL     1      36.274 -18.982 -20.467  0.00  0.00    -0.274 OA
ATOM     33  N   UNL     1      37.326 -18.330 -22.391  0.00  0.00    -0.327 N 
ATOM     34  C   UNL     1      36.222 -18.736 -21.670  0.00  0.00    +0.237 C 
ATOM     35  H   UNL     1      38.198 -18.231 -21.943  0.00  0.00    +0.145 HD
ATOM     36  H   UNL     1      37.243 -18.140 -23.354  0.00  0.00    +0.145 HD
ENDBRANCH  29  34
ENDBRANCH  24  29
ENDBRANCH  11  26
TORSDOF 5
ENDMDL
MODEL 9
REMARK VINA RESULT:      -9.7      8.758     13.940
REMARK  Name = 51001932
REMARK  5 active torsions:
REMARK  status: ('A' for Active; 'I' for Inactive)
REMARK    1  A    between atoms: C_8  and  C_18
REMARK    2  A    between atoms: C_11  and  C_26
REMARK    3  A    between atoms: N_15  and  C_21
REMARK    4  A    between atoms: N_24  and  C_29
REMARK    5  A    between atoms: C_29  and  C_34
REMARK                            x       y       z     vdW  Elec       q    Type
REMARK                         _______ _______ _______ _____ _____    ______ ____
ROOT
ATOM      1  O   UNL     1      31.119  -9.573 -20.544  0.00  0.00    -0.473 OA
ATOM      2  N   UNL     1      32.220 -12.289 -21.321  0.00  0.00    -0.273 N 
ATOM      3  N   UNL     1      33.140 -12.310 -23.325  0.00  0.00    -0.385 NA
ATOM      4  C   UNL     1      32.590 -11.522 -22.407  0.00  0.00    +0.186 C 
ATOM      5  C   UNL     1      31.594 -11.868 -20.083  0.00  0.00    +0.141 C 
ATOM      6  C   UNL     1      32.429 -10.063 -22.579  0.00  0.00    +0.078 C 
ATOM      7  C   UNL     1      31.734  -9.206 -21.710  0.00  0.00    +0.142 C 
ATOM      8  C   UNL     1      33.110 -13.582 -22.824  0.00  0.00    +0.177 C 
ATOM      9  C   UNL     1      31.900 -10.433 -19.723  0.00  0.00    +0.227 C 
ATOM     10  C   UNL     1      32.540 -13.596 -21.580  0.00  0.00    +0.157 C 
ATOM     11  C   UNL     1      32.129  -7.307 -23.178  0.00  0.00    +0.006 C 
ATOM     12  C   UNL     1      31.570  -7.846 -22.024  0.00  0.00    +0.037 C 
ATOM     13  C   UNL     1      32.989  -9.487 -23.741  0.00  0.00    +0.007 C 
ATOM     14  C   UNL     1      32.845  -8.128 -24.035  0.00  0.00    +0.000 C 
ENDROOT
BRANCH   8  18
ATOM     15  N   UNL     1      33.440 -14.962 -24.840  0.00  0.00    -0.175 N 
ATOM     16  N   UNL     1      34.316 -15.734 -22.873  0.00  0.00    -0.334 NA
ATOM     17  N   UNL     1      34.066 -16.137 -25.006  0.00  0.00    -0.114 NA
ATOM     18  C   UNL     1      33.620 -14.761 -23.533  0.00  0.00    +0.241 C 
ATOM     19  C   UNL     1      34.584 -16.589 -23.833  0.00  0.00    +0.082 C 
ATOM     20  C   UNL     1      35.324 -17.839 -23.686  0.00  0.00    +0.131 C 
BRANCH  15  21
ATOM     21  C   UNL     1      32.797 -14.236 -25.895  0.00  0.00    +0.100 C 
ATOM     22  C   UNL     1      33.703 -13.137 -26.456  0.00  0.00    +0.024 C 
ATOM     23  C   UNL     1      32.318 -15.168 -27.010  0.00  0.00    +0.024 C 
ENDBRANCH  15  21
ENDBRANCH   8  18
BRANCH  11  26
ATOM     24  N   UNL     1      31.941  -4.025 -24.576  0.00  0.00    -0.205 N 
ATOM     25  N   UNL     1      31.525  -3.676 -23.347  0.00  0.00    -0.176 NA
ATOM     26  C   UNL     1      31.964  -5.913 -23.478  0.00  0.00    +0.037 C 
ATOM     27  C   UNL     1      32.218  -5.354 -24.708  0.00  0.00    +0.086 C 
ATOM     28  C   UNL     1      31.541  -4.833 -22.681  0.00  0.00    +0.119 C 
BRANCH  24  29
ATOM     29  C   UNL     1      32.058  -3.020 -25.605  0.00  0.00    +0.147 C 
ATOM     30  C   UNL     1      32.899  -1.787 -25.208  0.00  0.00    +0.031 C 
ATOM     31  C   UNL     1      32.750  -3.662 -26.830  0.00  0.00    +0.031 C 
BRANCH  29  34
ATOM     32  O   UNL     1      30.403  -2.098 -27.151  0.00  0.00    -0.274 OA
ATOM     33  N   UNL     1      29.719  -2.540 -25.013  0.00  0.00    -0.327 N 
ATOM     34  C   UNL     1      30.660  -2.507 -26.021  0.00  0.00    +0.237 C 
ATOM     35  H   UNL     1      28.800  -2.231 -25.187  0.00  0.00    +0.145 HD
ATOM     36  H   UNL     1      29.966  -2.871 -24.119  0.00  0.00    +0.145 HD
ENDBRANCH  29  34
ENDBRANCH  24  29
ENDBRANCH  11  26
TORSDOF 5
ENDMDL
