MODEL 1
REMARK VINA RESULT:     -12.6      0.000      0.000
REMARK  Name = 16750097
REMARK  3 active torsions:
REMARK  status: ('A' for Active; 'I' for Inactive)
REMARK    1  A    between atoms: N_3  and  C_10
REMARK    2  A    between atoms: N_3  and  C_23
REMARK    3  A    between atoms: C_23  and  C_24
REMARK                            x       y       z     vdW  Elec       q    Type
REMARK                         _______ _______ _______ _____ _____    ______ ____
ROOT
ATOM      1  O   UNL     1      33.546 -15.869 -26.261  0.00  0.00    -0.209 OA
ATOM      2  N   UNL     1      35.042 -19.396 -22.666  0.00  0.00    -0.305 N 
ATOM      3  N   UNL     1      35.461 -18.301 -20.779  0.00  0.00    -0.305 N 
ATOM      4  N   UNL     1      34.315 -13.946 -22.833  0.00  0.00    -0.275 N 
ATOM      5  N   UNL     1      33.639 -13.889 -25.114  0.00  0.00    -0.302 NA
ATOM      6  N   UNL     1      33.779 -11.944 -23.815  0.00  0.00    -0.320 N 
ATOM      7  C   UNL     1      34.796 -18.077 -22.947  0.00  0.00    +0.061 C 
ATOM      8  C   UNL     1      35.064 -17.414 -21.753  0.00  0.00    +0.061 C 
ATOM      9  C   UNL     1      35.437 -19.480 -21.360  0.00  0.00    +0.208 C 
ATOM     10  C   UNL     1      34.485 -15.334 -22.843  0.00  0.00    +0.064 C 
ATOM     11  C   UNL     1      34.224 -16.038 -24.028  0.00  0.00    +0.110 C 
ATOM     12  C   UNL     1      34.374 -17.430 -24.110  0.00  0.00    +0.030 C 
ATOM     13  C   UNL     1      34.908 -16.019 -21.692  0.00  0.00    +0.031 C 
ATOM     14  C   UNL     1      33.778 -15.261 -25.220  0.00  0.00    +0.208 C 
ATOM     15  C   UNL     1      33.900 -13.301 -23.976  0.00  0.00    +0.248 C 
ATOM     16  H   UNL     1      34.952 -20.150 -23.293  0.00  0.00    +0.150 HD
ATOM     17  H   UNL     1      35.709 -18.097 -19.849  0.00  0.00    +0.150 HD
ATOM     18  H   UNL     1      34.492 -13.432 -22.013  0.00  0.00    +0.156 HD
ATOM     19  H   UNL     1      33.984 -11.531 -22.945  0.00  0.00    +0.146 HD
ATOM     20  H   UNL     1      33.489 -11.383 -24.571  0.00  0.00    +0.146 HD
ENDROOT
BRANCH   9  21
ATOM     21  N   UNL     1      35.737 -20.697 -20.857  0.00  0.00    -0.263 NA
ATOM     22  H   UNL     1      35.534 -21.485 -21.412  0.00  0.00    +0.127 HD
BRANCH  21  23
ATOM     23  C   UNL     1      36.339 -20.925 -19.555  0.00  0.00    +0.098 C 
BRANCH  23  24
ATOM     24  C   UNL     1      35.412 -21.719 -18.678  0.00  0.00    -0.006 C 
ATOM     25  C   UNL     1      35.817 -22.224 -17.432  0.00  0.00    -0.003 C 
ATOM     26  C   UNL     1      34.896 -22.965 -16.652  0.00  0.00    -0.000 C 
ATOM     27  C   UNL     1      34.118 -21.942 -19.149  0.00  0.00    -0.003 C 
ATOM     28  C   UNL     1      37.115 -22.010 -16.941  0.00  0.00    -0.000 C 
ATOM     29  C   UNL     1      33.598 -23.180 -17.144  0.00  0.00    -0.000 C 
ATOM     30  C   UNL     1      33.213 -22.670 -18.384  0.00  0.00    -0.000 C 
ATOM     31  C   UNL     1      35.301 -23.470 -15.407  0.00  0.00    -0.000 C 
ATOM     32  C   UNL     1      37.500 -22.520 -15.700  0.00  0.00    -0.000 C 
ATOM     33  C   UNL     1      36.594 -23.248 -14.934  0.00  0.00    -0.000 C 
ENDBRANCH  23  24
ENDBRANCH  21  23
ENDBRANCH   9  21
TORSDOF 3
ENDMDL
MODEL 2
REMARK VINA RESULT:     -12.6      4.570     11.331
REMARK  Name = 16750097
REMARK  3 active torsions:
REMARK  status: ('A' for Active; 'I' for Inactive)
REMARK    1  A    between atoms: N_3  and  C_10
REMARK    2  A    between atoms: N_3  and  C_23
REMARK    3  A    between atoms: C_23  and  C_24
REMARK                            x       y       z     vdW  Elec       q    Type
REMARK                         _______ _______ _______ _____ _____    ______ ____
ROOT
ATOM      1  O   UNL     1      34.952 -17.338 -24.646  0.00  0.00    -0.209 OA
ATOM      2  N   UNL     1      32.200 -13.228 -22.872  0.00  0.00    -0.305 N 
ATOM      3  N   UNL     1      32.358 -13.216 -20.656  0.00  0.00    -0.305 N 
ATOM      4  N   UNL     1      35.202 -17.267 -20.649  0.00  0.00    -0.275 N 
ATOM      5  N   UNL     1      35.761 -18.287 -22.725  0.00  0.00    -0.302 NA
ATOM      6  N   UNL     1      36.517 -19.146 -20.681  0.00  0.00    -0.320 N 
ATOM      7  C   UNL     1      32.983 -14.309 -22.554  0.00  0.00    +0.061 C 
ATOM      8  C   UNL     1      33.067 -14.280 -21.166  0.00  0.00    +0.061 C 
ATOM      9  C   UNL     1      31.852 -12.608 -21.704  0.00  0.00    +0.208 C 
ATOM     10  C   UNL     1      34.450 -16.261 -21.263  0.00  0.00    +0.064 C 
ATOM     11  C   UNL     1      34.342 -16.257 -22.662  0.00  0.00    +0.110 C 
ATOM     12  C   UNL     1      33.604 -15.279 -23.344  0.00  0.00    +0.030 C 
ATOM     13  C   UNL     1      33.811 -15.269 -20.501  0.00  0.00    +0.031 C 
ATOM     14  C   UNL     1      35.040 -17.334 -23.422  0.00  0.00    +0.208 C 
ATOM     15  C   UNL     1      35.817 -18.226 -21.420  0.00  0.00    +0.248 C 
ATOM     16  H   UNL     1      31.936 -12.948 -23.777  0.00  0.00    +0.150 HD
ATOM     17  H   UNL     1      32.253 -12.966 -19.709  0.00  0.00    +0.150 HD
ATOM     18  H   UNL     1      35.292 -17.289 -19.669  0.00  0.00    +0.156 HD
ATOM     19  H   UNL     1      36.539 -19.074 -19.699  0.00  0.00    +0.146 HD
ATOM     20  H   UNL     1      36.995 -19.879 -21.132  0.00  0.00    +0.146 HD
ENDROOT
BRANCH   9  21
ATOM     21  N   UNL     1      31.073 -11.506 -21.772  0.00  0.00    -0.263 NA
ATOM     22  H   UNL     1      30.301 -11.453 -21.162  0.00  0.00    +0.127 HD
BRANCH  21  23
ATOM     23  C   UNL     1      31.294 -10.395 -22.680  0.00  0.00    +0.098 C 
BRANCH  23  24
ATOM     24  C   UNL     1      31.616  -9.143 -21.912  0.00  0.00    -0.006 C 
ATOM     25  C   UNL     1      31.558  -7.871 -22.504  0.00  0.00    -0.003 C 
ATOM     26  C   UNL     1      31.872  -6.730 -21.727  0.00  0.00    -0.000 C 
ATOM     27  C   UNL     1      31.979  -9.288 -20.573  0.00  0.00    -0.003 C 
ATOM     28  C   UNL     1      31.194  -7.705 -23.851  0.00  0.00    -0.000 C 
ATOM     29  C   UNL     1      32.237  -6.896 -20.381  0.00  0.00    -0.000 C 
ATOM     30  C   UNL     1      32.288  -8.168 -19.809  0.00  0.00    -0.000 C 
ATOM     31  C   UNL     1      31.814  -5.459 -22.319  0.00  0.00    -0.000 C 
ATOM     32  C   UNL     1      31.142  -6.434 -24.423  0.00  0.00    -0.000 C 
ATOM     33  C   UNL     1      31.451  -5.312 -23.658  0.00  0.00    -0.000 C 
ENDBRANCH  23  24
ENDBRANCH  21  23
ENDBRANCH   9  21
TORSDOF 3
ENDMDL
MODEL 3
REMARK VINA RESULT:     -12.5      3.574      9.618
REMARK  Name = 16750097
REMARK  3 active torsions:
REMARK  status: ('A' for Active; 'I' for Inactive)
REMARK    1  A    between atoms: N_3  and  C_10
REMARK    2  A    between atoms: N_3  and  C_23
REMARK    3  A    between atoms: C_23  and  C_24
REMARK                            x       y       z     vdW  Elec       q    Type
REMARK                         _______ _______ _______ _____ _____    ______ ____
ROOT
ATOM      1  O   UNL     1      38.044 -22.711 -15.725  0.00  0.00    -0.209 OA
ATOM      2  N   UNL     1      36.165 -20.387 -20.047  0.00  0.00    -0.305 N 
ATOM      3  N   UNL     1      34.038 -20.990 -20.266  0.00  0.00    -0.305 N 
ATOM      4  N   UNL     1      34.206 -23.765 -16.172  0.00  0.00    -0.275 N 
ATOM      5  N   UNL     1      36.243 -23.891 -14.947  0.00  0.00    -0.302 NA
ATOM      6  N   UNL     1      34.318 -25.044 -14.271  0.00  0.00    -0.320 N 
ATOM      7  C   UNL     1      35.907 -21.215 -18.984  0.00  0.00    +0.061 C 
ATOM      8  C   UNL     1      34.573 -21.577 -19.143  0.00  0.00    +0.061 C 
ATOM      9  C   UNL     1      35.018 -20.284 -20.784  0.00  0.00    +0.208 C 
ATOM     10  C   UNL     1      34.752 -22.907 -17.131  0.00  0.00    +0.064 C 
ATOM     11  C   UNL     1      36.094 -22.518 -17.004  0.00  0.00    +0.110 C 
ATOM     12  C   UNL     1      36.707 -21.660 -17.930  0.00  0.00    +0.030 C 
ATOM     13  C   UNL     1      33.978 -22.437 -18.205  0.00  0.00    +0.031 C 
ATOM     14  C   UNL     1      36.870 -23.046 -15.845  0.00  0.00    +0.208 C 
ATOM     15  C   UNL     1      34.988 -24.209 -15.130  0.00  0.00    +0.248 C 
ATOM     16  H   UNL     1      37.022 -19.945 -20.244  0.00  0.00    +0.150 HD
ATOM     17  H   UNL     1      33.119 -21.080 -20.608  0.00  0.00    +0.150 HD
ATOM     18  H   UNL     1      33.267 -24.050 -16.241  0.00  0.00    +0.156 HD
ATOM     19  H   UNL     1      33.373 -25.265 -14.436  0.00  0.00    +0.146 HD
ATOM     20  H   UNL     1      34.783 -25.421 -13.490  0.00  0.00    +0.146 HD
ENDROOT
BRANCH   9  21
ATOM     21  N   UNL     1      35.035 -19.512 -21.892  0.00  0.00    -0.263 NA
ATOM     22  H   UNL     1      34.412 -19.739 -22.619  0.00  0.00    +0.127 HD
BRANCH  21  23
ATOM     23  C   UNL     1      35.909 -18.368 -22.085  0.00  0.00    +0.098 C 
BRANCH  23  24
ATOM     24  C   UNL     1      35.124 -17.088 -22.026  0.00  0.00    -0.006 C 
ATOM     25  C   UNL     1      34.584 -16.492 -23.176  0.00  0.00    -0.003 C 
ATOM     26  C   UNL     1      33.853 -15.285 -23.054  0.00  0.00    -0.000 C 
ATOM     27  C   UNL     1      34.947 -16.502 -20.772  0.00  0.00    -0.003 C 
ATOM     28  C   UNL     1      34.751 -17.066 -24.447  0.00  0.00    -0.000 C 
ATOM     29  C   UNL     1      33.686 -14.710 -21.783  0.00  0.00    -0.000 C 
ATOM     30  C   UNL     1      34.230 -15.317 -20.650  0.00  0.00    -0.000 C 
ATOM     31  C   UNL     1      33.313 -14.689 -24.204  0.00  0.00    -0.000 C 
ATOM     32  C   UNL     1      34.208 -16.459 -25.580  0.00  0.00    -0.000 C 
ATOM     33  C   UNL     1      33.490 -15.273 -25.458  0.00  0.00    -0.000 C 
ENDBRANCH  23  24
ENDBRANCH  21  23
ENDBRANCH   9  21
TORSDOF 3
ENDMDL
MODEL 4
REMARK VINA RESULT:     -12.4      4.223     10.392
REMARK  Name = 16750097
REMARK  3 active torsions:
REMARK  status: ('A' for Active; 'I' for Inactive)
REMARK    1  A    between atoms: N_3  and  C_10
REMARK    2  A    between atoms: N_3  and  C_23
REMARK    3  A    between atoms: C_23  and  C_24
REMARK                            x       y       z     vdW  Elec       q    Type
REMARK                         _______ _______ _______ _____ _____    ______ ____
ROOT
ATOM      1  O   UNL     1      34.894 -17.345 -24.613  0.00  0.00    -0.209 OA
ATOM      2  N   UNL     1      32.183 -13.316 -22.608  0.00  0.00    -0.305 N 
ATOM      3  N   UNL     1      32.444 -13.359 -20.402  0.00  0.00    -0.305 N 
ATOM      4  N   UNL     1      35.328 -17.374 -20.632  0.00  0.00    -0.275 N 
ATOM      5  N   UNL     1      35.801 -18.334 -22.758  0.00  0.00    -0.302 NA
ATOM      6  N   UNL     1      36.660 -19.236 -20.773  0.00  0.00    -0.320 N 
ATOM      7  C   UNL     1      32.991 -14.395 -22.355  0.00  0.00    +0.061 C 
ATOM      8  C   UNL     1      33.139 -14.400 -20.972  0.00  0.00    +0.061 C 
ATOM      9  C   UNL     1      31.882 -12.729 -21.410  0.00  0.00    +0.208 C 
ATOM     10  C   UNL     1      34.537 -16.362 -21.184  0.00  0.00    +0.064 C 
ATOM     11  C   UNL     1      34.365 -16.323 -22.576  0.00  0.00    +0.110 C 
ATOM     12  C   UNL     1      33.585 -15.336 -23.198  0.00  0.00    +0.030 C 
ATOM     13  C   UNL     1      33.924 -15.397 -20.368  0.00  0.00    +0.031 C 
ATOM     14  C   UNL     1      35.038 -17.372 -23.395  0.00  0.00    +0.208 C 
ATOM     15  C   UNL     1      35.917 -18.306 -21.456  0.00  0.00    +0.248 C 
ATOM     16  H   UNL     1      31.874 -13.016 -23.493  0.00  0.00    +0.150 HD
ATOM     17  H   UNL     1      32.380 -13.134 -19.445  0.00  0.00    +0.150 HD
ATOM     18  H   UNL     1      35.463 -17.420 -19.658  0.00  0.00    +0.156 HD
ATOM     19  H   UNL     1      36.727 -19.188 -19.792  0.00  0.00    +0.146 HD
ATOM     20  H   UNL     1      37.125 -19.951 -21.265  0.00  0.00    +0.146 HD
ENDROOT
BRANCH   9  21
ATOM     21  N   UNL     1      31.089 -11.636 -21.413  0.00  0.00    -0.263 NA
ATOM     22  H   UNL     1      30.619 -11.409 -20.578  0.00  0.00    +0.127 HD
BRANCH  21  23
ATOM     23  C   UNL     1      30.882 -10.772 -22.561  0.00  0.00    +0.098 C 
BRANCH  23  24
ATOM     24  C   UNL     1      31.947  -9.712 -22.623  0.00  0.00    -0.006 C 
ATOM     25  C   UNL     1      33.055  -9.820 -23.478  0.00  0.00    -0.003 C 
ATOM     26  C   UNL     1      34.024  -8.788 -23.489  0.00  0.00    -0.000 C 
ATOM     27  C   UNL     1      31.796  -8.603 -21.790  0.00  0.00    -0.003 C 
ATOM     28  C   UNL     1      33.224 -10.929 -24.323  0.00  0.00    -0.000 C 
ATOM     29  C   UNL     1      33.856  -7.679 -22.643  0.00  0.00    -0.000 C 
ATOM     30  C   UNL     1      32.748  -7.588 -21.800  0.00  0.00    -0.000 C 
ATOM     31  C   UNL     1      35.132  -8.895 -24.344  0.00  0.00    -0.000 C 
ATOM     32  C   UNL     1      34.332 -11.019 -25.166  0.00  0.00    -0.000 C 
ATOM     33  C   UNL     1      35.284 -10.003 -25.177  0.00  0.00    -0.000 C 
ENDBRANCH  23  24
ENDBRANCH  21  23
ENDBRANCH   9  21
TORSDOF 3
ENDMDL
MODEL 5
REMARK VINA RESULT:     -12.3      3.869      9.642
REMARK  Name = 16750097
REMARK  3 active torsions:
REMARK  status: ('A' for Active; 'I' for Inactive)
REMARK    1  A    between atoms: N_3  and  C_10
REMARK    2  A    between atoms: N_3  and  C_23
REMARK    3  A    between atoms: C_23  and  C_24
REMARK                            x       y       z     vdW  Elec       q    Type
REMARK                         _______ _______ _______ _____ _____    ______ ____
ROOT
ATOM      1  O   UNL     1      37.572 -22.917 -14.674  0.00  0.00    -0.209 OA
ATOM      2  N   UNL     1      36.318 -20.876 -19.351  0.00  0.00    -0.305 N 
ATOM      3  N   UNL     1      34.210 -21.428 -19.784  0.00  0.00    -0.305 N 
ATOM      4  N   UNL     1      33.776 -23.882 -15.508  0.00  0.00    -0.275 N 
ATOM      5  N   UNL     1      35.644 -23.976 -14.038  0.00  0.00    -0.302 NA
ATOM      6  N   UNL     1      33.608 -25.013 -13.520  0.00  0.00    -0.320 N 
ATOM      7  C   UNL     1      35.902 -21.611 -18.270  0.00  0.00    +0.061 C 
ATOM      8  C   UNL     1      34.583 -21.943 -18.564  0.00  0.00    +0.061 C 
ATOM      9  C   UNL     1      35.273 -20.795 -20.228  0.00  0.00    +0.208 C 
ATOM     10  C   UNL     1      34.466 -23.118 -16.454  0.00  0.00    +0.064 C 
ATOM     11  C   UNL     1      35.798 -22.763 -16.192  0.00  0.00    +0.110 C 
ATOM     12  C   UNL     1      36.551 -21.999 -17.096  0.00  0.00    +0.030 C 
ATOM     13  C   UNL     1      33.846 -22.709 -17.646  0.00  0.00    +0.031 C 
ATOM     14  C   UNL     1      36.408 -23.224 -14.912  0.00  0.00    +0.208 C 
ATOM     15  C   UNL     1      34.409 -24.269 -14.349  0.00  0.00    +0.248 C 
ATOM     16  H   UNL     1      37.209 -20.479 -19.474  0.00  0.00    +0.150 HD
ATOM     17  H   UNL     1      33.336 -21.516 -20.229  0.00  0.00    +0.150 HD
ATOM     18  H   UNL     1      32.841 -24.142 -15.671  0.00  0.00    +0.156 HD
ATOM     19  H   UNL     1      32.681 -25.216 -13.783  0.00  0.00    +0.146 HD
ATOM     20  H   UNL     1      33.960 -25.343 -12.662  0.00  0.00    +0.146 HD
ENDROOT
BRANCH   9  21
ATOM     21  N   UNL     1      35.454 -20.112 -21.379  0.00  0.00    -0.263 NA
ATOM     22  H   UNL     1      35.158 -20.538 -22.217  0.00  0.00    +0.127 HD
BRANCH  21  23
ATOM     23  C   UNL     1      36.053 -18.792 -21.468  0.00  0.00    +0.098 C 
BRANCH  23  24
ATOM     24  C   UNL     1      35.401 -17.989 -22.560  0.00  0.00    -0.006 C 
ATOM     25  C   UNL     1      34.831 -16.730 -22.318  0.00  0.00    -0.003 C 
ATOM     26  C   UNL     1      34.231 -16.024 -23.389  0.00  0.00    -0.000 C 
ATOM     27  C   UNL     1      35.382 -18.546 -23.839  0.00  0.00    -0.003 C 
ATOM     28  C   UNL     1      34.840 -16.155 -21.037  0.00  0.00    -0.000 C 
ATOM     29  C   UNL     1      34.221 -16.600 -24.670  0.00  0.00    -0.000 C 
ATOM     30  C   UNL     1      34.794 -17.852 -24.892  0.00  0.00    -0.000 C 
ATOM     31  C   UNL     1      33.661 -14.764 -23.147  0.00  0.00    -0.000 C 
ATOM     32  C   UNL     1      34.267 -14.902 -20.814  0.00  0.00    -0.000 C 
ATOM     33  C   UNL     1      33.679 -14.208 -21.868  0.00  0.00    -0.000 C 
ENDBRANCH  23  24
ENDBRANCH  21  23
ENDBRANCH   9  21
TORSDOF 3
ENDMDL
MODEL 6
REMARK VINA RESULT:     -12.3      4.077      9.849
REMARK  Name = 16750097
REMARK  3 active torsions:
REMARK  status: ('A' for Active; 'I' for Inactive)
REMARK    1  A    between atoms: N_3  and  C_10
REMARK    2  A    between atoms: N_3  and  C_23
REMARK    3  A    between atoms: C_23  and  C_24
REMARK                            x       y       z     vdW  Elec       q    Type
REMARK                         _______ _______ _______ _____ _____    ______ ____
ROOT
ATOM      1  O   UNL     1      33.818 -24.690 -14.660  0.00  0.00    -0.209 OA
ATOM      2  N   UNL     1      34.627 -21.783 -18.962  0.00  0.00    -0.305 N 
ATOM      3  N   UNL     1      36.711 -21.017 -18.876  0.00  0.00    -0.305 N 
ATOM      4  N   UNL     1      37.565 -23.281 -14.559  0.00  0.00    -0.275 N 
ATOM      5  N   UNL     1      35.824 -24.562 -13.564  0.00  0.00    -0.302 NA
ATOM      6  N   UNL     1      37.928 -24.341 -12.558  0.00  0.00    -0.320 N 
ATOM      7  C   UNL     1      35.152 -22.279 -17.795  0.00  0.00    +0.061 C 
ATOM      8  C   UNL     1      36.453 -21.788 -17.766  0.00  0.00    +0.061 C 
ATOM      9  C   UNL     1      35.596 -21.036 -19.572  0.00  0.00    +0.208 C 
ATOM     10  C   UNL     1      36.777 -22.929 -15.658  0.00  0.00    +0.064 C 
ATOM     11  C   UNL     1      35.459 -23.406 -15.724  0.00  0.00    +0.110 C 
ATOM     12  C   UNL     1      34.611 -23.092 -16.797  0.00  0.00    +0.030 C 
ATOM     13  C   UNL     1      37.286 -22.113 -16.682  0.00  0.00    +0.031 C 
ATOM     14  C   UNL     1      34.969 -24.267 -14.610  0.00  0.00    +0.208 C 
ATOM     15  C   UNL     1      37.040 -24.081 -13.571  0.00  0.00    +0.248 C 
ATOM     16  H   UNL     1      33.716 -21.937 -19.300  0.00  0.00    +0.150 HD
ATOM     17  H   UNL     1      37.549 -20.553 -19.101  0.00  0.00    +0.150 HD
ATOM     18  H   UNL     1      38.492 -22.958 -14.492  0.00  0.00    +0.156 HD
ATOM     19  H   UNL     1      38.837 -23.964 -12.592  0.00  0.00    +0.146 HD
ATOM     20  H   UNL     1      37.656 -24.904 -11.797  0.00  0.00    +0.146 HD
ENDROOT
BRANCH   9  21
ATOM     21  N   UNL     1      35.301 -20.442 -20.748  0.00  0.00    -0.263 NA
ATOM     22  H   UNL     1      35.873 -20.649 -21.522  0.00  0.00    +0.127 HD
BRANCH  21  23
ATOM     23  C   UNL     1      34.198 -19.519 -20.952  0.00  0.00    +0.098 C 
BRANCH  23  24
ATOM     24  C   UNL     1      34.426 -18.689 -22.185  0.00  0.00    -0.006 C 
ATOM     25  C   UNL     1      34.429 -17.286 -22.147  0.00  0.00    -0.003 C 
ATOM     26  C   UNL     1      34.649 -16.562 -23.344  0.00  0.00    -0.000 C 
ATOM     27  C   UNL     1      34.635 -19.369 -23.385  0.00  0.00    -0.003 C 
ATOM     28  C   UNL     1      34.219 -16.584 -20.949  0.00  0.00    -0.000 C 
ATOM     29  C   UNL     1      34.858 -17.264 -24.543  0.00  0.00    -0.000 C 
ATOM     30  C   UNL     1      34.851 -18.659 -24.561  0.00  0.00    -0.000 C 
ATOM     31  C   UNL     1      34.652 -15.158 -23.307  0.00  0.00    -0.000 C 
ATOM     32  C   UNL     1      34.226 -15.188 -20.931  0.00  0.00    -0.000 C 
ATOM     33  C   UNL     1      34.443 -14.477 -22.108  0.00  0.00    -0.000 C 
ENDBRANCH  23  24
ENDBRANCH  21  23
ENDBRANCH   9  21
TORSDOF 3
ENDMDL
MODEL 7
REMARK VINA RESULT:     -12.2      2.658      4.798
REMARK  Name = 16750097
REMARK  3 active torsions:
REMARK  status: ('A' for Active; 'I' for Inactive)
REMARK    1  A    between atoms: N_3  and  C_10
REMARK    2  A    between atoms: N_3  and  C_23
REMARK    3  A    between atoms: C_23  and  C_24
REMARK                            x       y       z     vdW  Elec       q    Type
REMARK                         _______ _______ _______ _____ _____    ______ ____
ROOT
ATOM      1  O   UNL     1      30.450 -11.161 -20.725  0.00  0.00    -0.209 OA
ATOM      2  N   UNL     1      33.191 -15.481 -21.924  0.00  0.00    -0.305 N 
ATOM      3  N   UNL     1      34.547 -14.974 -23.609  0.00  0.00    -0.305 N 
ATOM      4  N   UNL     1      32.915 -10.304 -23.763  0.00  0.00    -0.275 N 
ATOM      5  N   UNL     1      31.237  -9.617 -22.221  0.00  0.00    -0.302 NA
ATOM      6  N   UNL     1      32.136  -8.147 -23.809  0.00  0.00    -0.320 N 
ATOM      7  C   UNL     1      32.948 -14.161 -22.205  0.00  0.00    +0.061 C 
ATOM      8  C   UNL     1      33.807 -13.868 -23.260  0.00  0.00    +0.061 C 
ATOM      9  C   UNL     1      34.153 -15.922 -22.789  0.00  0.00    +0.208 C 
ATOM     10  C   UNL     1      32.947 -11.607 -23.259  0.00  0.00    +0.064 C 
ATOM     11  C   UNL     1      32.096 -11.941 -22.194  0.00  0.00    +0.110 C 
ATOM     12  C   UNL     1      32.075 -13.229 -21.640  0.00  0.00    +0.030 C 
ATOM     13  C   UNL     1      33.813 -12.572 -23.802  0.00  0.00    +0.031 C 
ATOM     14  C   UNL     1      31.198 -10.879 -21.657  0.00  0.00    +0.208 C 
ATOM     15  C   UNL     1      32.057  -9.380 -23.212  0.00  0.00    +0.248 C 
ATOM     16  H   UNL     1      32.752 -16.016 -21.224  0.00  0.00    +0.150 HD
ATOM     17  H   UNL     1      35.224 -15.040 -24.320  0.00  0.00    +0.150 HD
ATOM     18  H   UNL     1      33.503 -10.048 -24.509  0.00  0.00    +0.156 HD
ATOM     19  H   UNL     1      32.764  -8.000 -24.553  0.00  0.00    +0.146 HD
ATOM     20  H   UNL     1      31.565  -7.410 -23.494  0.00  0.00    +0.146 HD
ENDROOT
BRANCH   9  21
ATOM     21  N   UNL     1      34.556 -17.208 -22.698  0.00  0.00    -0.263 NA
ATOM     22  H   UNL     1      35.344 -17.480 -23.223  0.00  0.00    +0.127 HD
BRANCH  21  23
ATOM     23  C   UNL     1      33.910 -18.218 -21.879  0.00  0.00    +0.098 C 
BRANCH  23  24
ATOM     24  C   UNL     1      34.935 -19.075 -21.190  0.00  0.00    -0.006 C 
ATOM     25  C   UNL     1      34.574 -20.164 -20.382  0.00  0.00    -0.003 C 
ATOM     26  C   UNL     1      35.588 -20.932 -19.761  0.00  0.00    -0.000 C 
ATOM     27  C   UNL     1      36.278 -18.746 -21.383  0.00  0.00    -0.003 C 
ATOM     28  C   UNL     1      33.229 -20.510 -20.176  0.00  0.00    -0.000 C 
ATOM     29  C   UNL     1      36.934 -20.586 -19.966  0.00  0.00    -0.000 C 
ATOM     30  C   UNL     1      37.275 -19.500 -20.773  0.00  0.00    -0.000 C 
ATOM     31  C   UNL     1      35.227 -22.022 -18.953  0.00  0.00    -0.000 C 
ATOM     32  C   UNL     1      32.888 -21.596 -19.369  0.00  0.00    -0.000 C 
ATOM     33  C   UNL     1      33.886 -22.351 -18.759  0.00  0.00    -0.000 C 
ENDBRANCH  23  24
ENDBRANCH  21  23
ENDBRANCH   9  21
TORSDOF 3
ENDMDL
MODEL 8
REMARK VINA RESULT:     -12.2      1.281      2.709
REMARK  Name = 16750097
REMARK  3 active torsions:
REMARK  status: ('A' for Active; 'I' for Inactive)
REMARK    1  A    between atoms: N_3  and  C_10
REMARK    2  A    between atoms: N_3  and  C_23
REMARK    3  A    between atoms: C_23  and  C_24
REMARK                            x       y       z     vdW  Elec       q    Type
REMARK                         _______ _______ _______ _____ _____    ______ ____
ROOT
ATOM      1  O   UNL     1      33.809 -13.348 -22.529  0.00  0.00    -0.209 OA
ATOM      2  N   UNL     1      35.388 -17.999 -20.662  0.00  0.00    -0.305 N 
ATOM      3  N   UNL     1      35.380 -19.442 -22.351  0.00  0.00    -0.305 N 
ATOM      4  N   UNL     1      33.813 -15.993 -25.536  0.00  0.00    -0.275 N 
ATOM      5  N   UNL     1      33.430 -13.782 -24.745  0.00  0.00    -0.302 NA
ATOM      6  N   UNL     1      33.085 -14.372 -26.986  0.00  0.00    -0.320 N 
ATOM      7  C   UNL     1      34.968 -17.283 -21.754  0.00  0.00    +0.061 C 
ATOM      8  C   UNL     1      34.972 -18.205 -22.795  0.00  0.00    +0.061 C 
ATOM      9  C   UNL     1      35.621 -19.283 -21.069  0.00  0.00    +0.208 C 
ATOM     10  C   UNL     1      34.206 -16.454 -24.276  0.00  0.00    +0.064 C 
ATOM     11  C   UNL     1      34.216 -15.553 -23.201  0.00  0.00    +0.110 C 
ATOM     12  C   UNL     1      34.598 -15.946 -21.909  0.00  0.00    +0.030 C 
ATOM     13  C   UNL     1      34.586 -17.792 -24.081  0.00  0.00    +0.031 C 
ATOM     14  C   UNL     1      33.802 -14.144 -23.463  0.00  0.00    +0.208 C 
ATOM     15  C   UNL     1      33.446 -14.677 -25.698  0.00  0.00    +0.248 C 
ATOM     16  H   UNL     1      35.502 -17.652 -19.748  0.00  0.00    +0.150 HD
ATOM     17  H   UNL     1      35.471 -20.268 -22.880  0.00  0.00    +0.150 HD
ATOM     18  H   UNL     1      33.799 -16.608 -26.305  0.00  0.00    +0.156 HD
ATOM     19  H   UNL     1      33.108 -15.069 -27.681  0.00  0.00    +0.146 HD
ATOM     20  H   UNL     1      32.803 -13.457 -27.215  0.00  0.00    +0.146 HD
ENDROOT
BRANCH   9  21
ATOM     21  N   UNL     1      36.047 -20.179 -20.152  0.00  0.00    -0.263 NA
ATOM     22  H   UNL     1      36.858 -19.959 -19.638  0.00  0.00    +0.127 HD
BRANCH  21  23
ATOM     23  C   UNL     1      35.392 -21.444 -19.871  0.00  0.00    +0.098 C 
BRANCH  23  24
ATOM     24  C   UNL     1      35.659 -21.873 -18.455  0.00  0.00    -0.006 C 
ATOM     25  C   UNL     1      34.658 -22.429 -17.644  0.00  0.00    -0.003 C 
ATOM     26  C   UNL     1      34.974 -22.813 -16.319  0.00  0.00    -0.000 C 
ATOM     27  C   UNL     1      36.955 -21.698 -17.967  0.00  0.00    -0.003 C 
ATOM     28  C   UNL     1      33.348 -22.613 -18.118  0.00  0.00    -0.000 C 
ATOM     29  C   UNL     1      36.283 -22.629 -15.844  0.00  0.00    -0.000 C 
ATOM     30  C   UNL     1      37.266 -22.076 -16.665  0.00  0.00    -0.000 C 
ATOM     31  C   UNL     1      33.972 -23.369 -15.507  0.00  0.00    -0.000 C 
ATOM     32  C   UNL     1      32.365 -23.166 -17.297  0.00  0.00    -0.000 C 
ATOM     33  C   UNL     1      32.677 -23.544 -15.994  0.00  0.00    -0.000 C 
ENDBRANCH  23  24
ENDBRANCH  21  23
ENDBRANCH   9  21
TORSDOF 3
ENDMDL
MODEL 9
REMARK VINA RESULT:     -12.1      3.242      9.470
REMARK  Name = 16750097
REMARK  3 active torsions:
REMARK  status: ('A' for Active; 'I' for Inactive)
REMARK    1  A    between atoms: N_3  and  C_10
REMARK    2  A    between atoms: N_3  and  C_23
REMARK    3  A    between atoms: C_23  and  C_24
REMARK                            x       y       z     vdW  Elec       q    Type
REMARK                         _______ _______ _______ _____ _____    ______ ____
ROOT
ATOM      1  O   UNL     1      32.855 -23.578 -16.845  0.00  0.00    -0.209 OA
ATOM      2  N   UNL     1      33.809 -20.458 -20.964  0.00  0.00    -0.305 N 
ATOM      3  N   UNL     1      35.962 -19.914 -20.913  0.00  0.00    -0.305 N 
ATOM      4  N   UNL     1      36.729 -22.564 -16.805  0.00  0.00    -0.275 N 
ATOM      5  N   UNL     1      34.901 -23.733 -15.828  0.00  0.00    -0.302 NA
ATOM      6  N   UNL     1      37.051 -23.800 -14.900  0.00  0.00    -0.320 N 
ATOM      7  C   UNL     1      34.320 -21.088 -19.858  0.00  0.00    +0.061 C 
ATOM      8  C   UNL     1      35.666 -20.734 -19.849  0.00  0.00    +0.061 C 
ATOM      9  C   UNL     1      34.828 -19.769 -21.560  0.00  0.00    +0.208 C 
ATOM     10  C   UNL     1      35.943 -22.054 -17.842  0.00  0.00    +0.064 C 
ATOM     11  C   UNL     1      34.582 -22.390 -17.886  0.00  0.00    +0.110 C 
ATOM     12  C   UNL     1      33.734 -21.914 -18.897  0.00  0.00    +0.030 C 
ATOM     13  C   UNL     1      36.498 -21.221 -18.828  0.00  0.00    +0.031 C 
ATOM     14  C   UNL     1      34.045 -23.278 -16.815  0.00  0.00    +0.208 C 
ATOM     15  C   UNL     1      36.159 -23.378 -15.853  0.00  0.00    +0.248 C 
ATOM     16  H   UNL     1      32.876 -20.494 -21.273  0.00  0.00    +0.150 HD
ATOM     17  H   UNL     1      36.836 -19.521 -21.141  0.00  0.00    +0.150 HD
ATOM     18  H   UNL     1      37.687 -22.342 -16.755  0.00  0.00    +0.156 HD
ATOM     19  H   UNL     1      37.992 -23.515 -14.946  0.00  0.00    +0.146 HD
ATOM     20  H   UNL     1      36.749 -24.387 -14.169  0.00  0.00    +0.146 HD
ENDROOT
BRANCH   9  21
ATOM     21  N   UNL     1      34.555 -19.063 -22.679  0.00  0.00    -0.263 NA
ATOM     22  H   UNL     1      33.751 -19.308 -23.191  0.00  0.00    +0.127 HD
BRANCH  21  23
ATOM     23  C   UNL     1      35.366 -17.966 -23.179  0.00  0.00    +0.098 C 
BRANCH  23  24
ATOM     24  C   UNL     1      34.761 -16.645 -22.793  0.00  0.00    -0.006 C 
ATOM     25  C   UNL     1      34.136 -15.810 -23.732  0.00  0.00    -0.003 C 
ATOM     26  C   UNL     1      33.586 -14.577 -23.306  0.00  0.00    -0.000 C 
ATOM     27  C   UNL     1      34.844 -16.270 -21.452  0.00  0.00    -0.003 C 
ATOM     28  C   UNL     1      34.043 -16.170 -25.087  0.00  0.00    -0.000 C 
ATOM     29  C   UNL     1      33.679 -14.216 -21.951  0.00  0.00    -0.000 C 
ATOM     30  C   UNL     1      34.304 -15.059 -21.031  0.00  0.00    -0.000 C 
ATOM     31  C   UNL     1      32.961 -13.742 -24.245  0.00  0.00    -0.000 C 
ATOM     32  C   UNL     1      33.419 -15.326 -26.007  0.00  0.00    -0.000 C 
ATOM     33  C   UNL     1      32.878 -14.115 -25.586  0.00  0.00    -0.000 C 
ENDBRANCH  23  24
ENDBRANCH  21  23
ENDBRANCH   9  21
TORSDOF 3
ENDMDL
