MODEL 1
REMARK VINA RESULT:      -9.2      0.000      0.000
REMARK  Name = 5289053
REMARK  4 active torsions:
REMARK  status: ('A' for Active; 'I' for Inactive)
REMARK    1  A    between atoms: C_1  and  C_15
REMARK    2  A    between atoms: C_2  and  N_24
REMARK    3  A    between atoms: C_4  and  C_21
REMARK    4  A    between atoms: C_15  and  O_16
REMARK                            x       y       z     vdW  Elec       q    Type
REMARK                         _______ _______ _______ _____ _____    ______ ____
ROOT
ATOM      1  C   UNL     1      33.065  -7.321 -22.502  0.00  0.00    +0.056 C 
ATOM      2  C   UNL     1      32.188  -6.333 -22.921  0.00  0.00    +0.146 C 
ATOM      3  C   UNL     1      34.184  -7.655 -23.250  0.00  0.00    +0.005 C 
ATOM      4  C   UNL     1      33.556  -5.988 -24.883  0.00  0.00    +0.073 C 
ATOM      5  C   UNL     1      32.436  -5.662 -24.119  0.00  0.00    +0.028 C 
ATOM      6  C   UNL     1      34.431  -6.985 -24.448  0.00  0.00    +0.004 C 
ENDROOT
BRANCH   1  15
ATOM      7  O   UNL     1      32.394  -9.348 -18.797  0.00  0.00    -0.291 OA
ATOM      8  O   UNL     1      31.683  -9.229 -23.504  0.00  0.00    -0.291 OA
ATOM      9  C   UNL     1      31.417 -11.948 -21.123  0.00  0.00    +0.016 C 
ATOM     10  C   UNL     1      31.267 -11.192 -19.812  0.00  0.00    +0.070 C 
ATOM     11  C   UNL     1      30.892 -11.129 -22.294  0.00  0.00    +0.070 C 
ATOM     12  C   UNL     1      32.169  -9.209 -21.168  0.00  0.00    +0.103 C 
ATOM     13  C   UNL     1      32.000  -9.870 -19.839  0.00  0.00    +0.179 C 
ATOM     14  C   UNL     1      31.611  -9.805 -22.420  0.00  0.00    +0.179 C 
ATOM     15  C   UNL     1      32.842  -8.054 -21.241  0.00  0.00    +0.141 C 
BRANCH  15  16
ATOM     16  O   UNL     1      33.367  -7.443 -20.116  0.00  0.00    -0.505 OA
ATOM     17  H   UNL     1      33.261  -6.521 -19.991  0.00  0.00    +0.292 HD
ENDBRANCH  15  16
ENDBRANCH   1  15
BRANCH   4  21
ATOM     18  F   UNL     1      32.984  -5.637 -27.179  0.00  0.00    -0.166 F 
ATOM     19  F   UNL     1      33.696  -3.916 -26.068  0.00  0.00    -0.166 F 
ATOM     20  F   UNL     1      35.084  -5.490 -26.635  0.00  0.00    -0.166 F 
ATOM     21  C   UNL     1      33.822  -5.272 -26.164  0.00  0.00    +0.419 C 
ENDBRANCH   4  21
BRANCH   2  24
ATOM     22  O   UNL     1      29.912  -6.025 -22.720  0.00  0.00    -0.126 OA
ATOM     23  O   UNL     1      31.179  -5.623 -20.973  0.00  0.00    -0.126 OA
ATOM     24  N   UNL     1      31.035  -5.976 -22.167  0.00  0.00    +0.058 N 
ENDBRANCH   2  24
TORSDOF 4
ENDMDL
MODEL 2
REMARK VINA RESULT:      -9.1      8.772     10.825
REMARK  Name = 5289053
REMARK  4 active torsions:
REMARK  status: ('A' for Active; 'I' for Inactive)
REMARK    1  A    between atoms: C_1  and  C_15
REMARK    2  A    between atoms: C_2  and  N_24
REMARK    3  A    between atoms: C_4  and  C_21
REMARK    4  A    between atoms: C_15  and  O_16
REMARK                            x       y       z     vdW  Elec       q    Type
REMARK                         _______ _______ _______ _____ _____    ______ ____
ROOT
ATOM      1  C   UNL     1      35.054 -17.440 -21.947  0.00  0.00    +0.056 C 
ATOM      2  C   UNL     1      34.671 -17.433 -23.279  0.00  0.00    +0.146 C 
ATOM      3  C   UNL     1      34.852 -16.334 -21.135  0.00  0.00    +0.005 C 
ATOM      4  C   UNL     1      33.864 -15.172 -23.008  0.00  0.00    +0.073 C 
ATOM      5  C   UNL     1      34.072 -16.292 -23.813  0.00  0.00    +0.028 C 
ATOM      6  C   UNL     1      34.253 -15.193 -21.669  0.00  0.00    +0.004 C 
ENDROOT
BRANCH   1  15
ATOM      7  O   UNL     1      36.977 -20.811 -20.153  0.00  0.00    -0.291 OA
ATOM      8  O   UNL     1      32.919 -18.458 -20.968  0.00  0.00    -0.291 OA
ATOM      9  C   UNL     1      33.523 -21.892 -19.982  0.00  0.00    +0.016 C 
ATOM     10  C   UNL     1      34.934 -21.804 -19.419  0.00  0.00    +0.070 C 
ATOM     11  C   UNL     1      32.794 -20.563 -19.849  0.00  0.00    +0.070 C 
ATOM     12  C   UNL     1      35.008 -19.576 -20.689  0.00  0.00    +0.103 C 
ATOM     13  C   UNL     1      35.750 -20.737 -20.113  0.00  0.00    +0.179 C 
ATOM     14  C   UNL     1      33.525 -19.447 -20.561  0.00  0.00    +0.179 C 
ATOM     15  C   UNL     1      35.690 -18.626 -21.342  0.00  0.00    +0.141 C 
BRANCH  15  16
ATOM     16  O   UNL     1      37.065 -18.678 -21.478  0.00  0.00    -0.505 OA
ATOM     17  H   UNL     1      37.597 -18.955 -20.758  0.00  0.00    +0.292 HD
ENDBRANCH  15  16
ENDBRANCH   1  15
BRANCH   4  21
ATOM     18  F   UNL     1      32.184 -13.478 -22.830  0.00  0.00    -0.166 F 
ATOM     19  F   UNL     1      34.080 -12.895 -23.707  0.00  0.00    -0.166 F 
ATOM     20  F   UNL     1      32.711 -14.161 -24.826  0.00  0.00    -0.166 F 
ATOM     21  C   UNL     1      33.224 -13.951 -23.578  0.00  0.00    +0.419 C 
ENDBRANCH   4  21
BRANCH   2  24
ATOM     22  O   UNL     1      33.950 -18.897 -24.908  0.00  0.00    -0.126 OA
ATOM     23  O   UNL     1      35.960 -19.174 -24.070  0.00  0.00    -0.126 OA
ATOM     24  N   UNL     1      34.870 -18.558 -24.128  0.00  0.00    +0.058 N 
ENDBRANCH   2  24
TORSDOF 4
ENDMDL
MODEL 3
REMARK VINA RESULT:      -9.1      8.676     10.637
REMARK  Name = 5289053
REMARK  4 active torsions:
REMARK  status: ('A' for Active; 'I' for Inactive)
REMARK    1  A    between atoms: C_1  and  C_15
REMARK    2  A    between atoms: C_2  and  N_24
REMARK    3  A    between atoms: C_4  and  C_21
REMARK    4  A    between atoms: C_15  and  O_16
REMARK                            x       y       z     vdW  Elec       q    Type
REMARK                         _______ _______ _______ _____ _____    ______ ____
ROOT
ATOM      1  C   UNL     1      35.175 -17.772 -22.884  0.00  0.00    +0.056 C 
ATOM      2  C   UNL     1      34.746 -16.505 -22.521  0.00  0.00    +0.146 C 
ATOM      3  C   UNL     1      34.982 -18.257 -24.168  0.00  0.00    +0.005 C 
ATOM      4  C   UNL     1      33.904 -16.178 -24.762  0.00  0.00    +0.073 C 
ATOM      5  C   UNL     1      34.106 -15.703 -23.466  0.00  0.00    +0.028 C 
ATOM      6  C   UNL     1      34.342 -17.455 -25.113  0.00  0.00    +0.004 C 
ENDROOT
BRANCH   1  15
ATOM      7  O   UNL     1      37.218 -20.239 -20.051  0.00  0.00    -0.291 OA
ATOM      8  O   UNL     1      33.062 -18.823 -21.893  0.00  0.00    -0.291 OA
ATOM      9  C   UNL     1      33.930 -21.758 -19.953  0.00  0.00    +0.016 C 
ATOM     10  C   UNL     1      35.225 -21.314 -19.291  0.00  0.00    +0.070 C 
ATOM     11  C   UNL     1      33.034 -20.567 -20.263  0.00  0.00    +0.070 C 
ATOM     12  C   UNL     1      35.210 -19.498 -21.104  0.00  0.00    +0.103 C 
ATOM     13  C   UNL     1      35.998 -20.346 -20.160  0.00  0.00    +0.179 C 
ATOM     14  C   UNL     1      33.719 -19.571 -21.171  0.00  0.00    +0.179 C 
ATOM     15  C   UNL     1      35.857 -18.653 -21.916  0.00  0.00    +0.141 C 
BRANCH  15  16
ATOM     16  O   UNL     1      37.234 -18.527 -21.890  0.00  0.00    -0.505 OA
ATOM     17  H   UNL     1      37.772 -19.285 -21.772  0.00  0.00    +0.292 HD
ENDBRANCH  15  16
ENDBRANCH   1  15
BRANCH   4  21
ATOM     18  F   UNL     1      34.077 -14.700 -26.636  0.00  0.00    -0.166 F 
ATOM     19  F   UNL     1      32.347 -16.007 -26.570  0.00  0.00    -0.166 F 
ATOM     20  F   UNL     1      32.486 -14.321 -25.203  0.00  0.00    -0.166 F 
ATOM     21  C   UNL     1      33.220 -15.321 -25.773  0.00  0.00    +0.419 C 
ENDBRANCH   4  21
BRANCH   2  24
ATOM     22  O   UNL     1      34.687 -14.781 -20.991  0.00  0.00    -0.126 OA
ATOM     23  O   UNL     1      35.346 -16.761 -20.309  0.00  0.00    -0.126 OA
ATOM     24  N   UNL     1      34.936 -15.990 -21.208  0.00  0.00    +0.058 N 
ENDBRANCH   2  24
TORSDOF 4
ENDMDL
MODEL 4
REMARK VINA RESULT:      -9.1      6.711      8.757
REMARK  Name = 5289053
REMARK  4 active torsions:
REMARK  status: ('A' for Active; 'I' for Inactive)
REMARK    1  A    between atoms: C_1  and  C_15
REMARK    2  A    between atoms: C_2  and  N_24
REMARK    3  A    between atoms: C_4  and  C_21
REMARK    4  A    between atoms: C_15  and  O_16
REMARK                            x       y       z     vdW  Elec       q    Type
REMARK                         _______ _______ _______ _____ _____    ______ ____
ROOT
ATOM      1  C   UNL     1      34.036 -14.119 -23.640  0.00  0.00    +0.056 C 
ATOM      2  C   UNL     1      33.743 -14.986 -24.681  0.00  0.00    +0.146 C 
ATOM      3  C   UNL     1      34.599 -14.576 -22.459  0.00  0.00    +0.005 C 
ATOM      4  C   UNL     1      34.586 -16.821 -23.353  0.00  0.00    +0.073 C 
ATOM      5  C   UNL     1      34.020 -16.346 -24.536  0.00  0.00    +0.028 C 
ATOM      6  C   UNL     1      34.876 -15.936 -22.314  0.00  0.00    +0.004 C 
ENDROOT
BRANCH   1  15
ATOM      7  O   UNL     1      33.242  -9.939 -24.074  0.00  0.00    -0.291 OA
ATOM      8  O   UNL     1      32.185 -14.028 -21.874  0.00  0.00    -0.291 OA
ATOM      9  C   UNL     1      31.519 -10.587 -20.954  0.00  0.00    +0.016 C 
ATOM     10  C   UNL     1      31.651  -9.881 -22.295  0.00  0.00    +0.070 C 
ATOM     11  C   UNL     1      31.094 -12.037 -21.135  0.00  0.00    +0.070 C 
ATOM     12  C   UNL     1      32.856 -12.034 -22.999  0.00  0.00    +0.103 C 
ATOM     13  C   UNL     1      32.656 -10.567 -23.193  0.00  0.00    +0.179 C 
ATOM     14  C   UNL     1      32.077 -12.808 -21.987  0.00  0.00    +0.179 C 
ATOM     15  C   UNL     1      33.762 -12.673 -23.752  0.00  0.00    +0.141 C 
BRANCH  15  16
ATOM     16  O   UNL     1      34.501 -12.016 -24.718  0.00  0.00    -0.505 OA
ATOM     17  H   UNL     1      34.334 -12.178 -25.626  0.00  0.00    +0.292 HD
ENDBRANCH  15  16
ENDBRANCH   1  15
BRANCH   4  21
ATOM     18  F   UNL     1      34.275 -18.844 -22.114  0.00  0.00    -0.166 F 
ATOM     19  F   UNL     1      34.487 -19.030 -24.265  0.00  0.00    -0.166 F 
ATOM     20  F   UNL     1      36.214 -18.525 -23.044  0.00  0.00    -0.166 F 
ATOM     21  C   UNL     1      34.881 -18.274 -23.197  0.00  0.00    +0.419 C 
ENDBRANCH   4  21
BRANCH   2  24
ATOM     22  O   UNL     1      33.690 -14.885 -26.984  0.00  0.00    -0.126 OA
ATOM     23  O   UNL     1      32.150 -13.802 -25.854  0.00  0.00    -0.126 OA
ATOM     24  N   UNL     1      33.166 -14.535 -25.901  0.00  0.00    +0.058 N 
ENDBRANCH   2  24
TORSDOF 4
ENDMDL
MODEL 5
REMARK VINA RESULT:      -9.0     18.005     19.968
REMARK  Name = 5289053
REMARK  4 active torsions:
REMARK  status: ('A' for Active; 'I' for Inactive)
REMARK    1  A    between atoms: C_1  and  C_15
REMARK    2  A    between atoms: C_2  and  N_24
REMARK    3  A    between atoms: C_4  and  C_21
REMARK    4  A    between atoms: C_15  and  O_16
REMARK                            x       y       z     vdW  Elec       q    Type
REMARK                         _______ _______ _______ _____ _____    ______ ____
ROOT
ATOM      1  C   UNL     1      36.367 -24.925 -13.642  0.00  0.00    +0.056 C 
ATOM      2  C   UNL     1      37.331 -24.389 -12.802  0.00  0.00    +0.146 C 
ATOM      3  C   UNL     1      36.714 -25.757 -14.696  0.00  0.00    +0.005 C 
ATOM      4  C   UNL     1      39.038 -25.527 -14.078  0.00  0.00    +0.073 C 
ATOM      5  C   UNL     1      38.675 -24.692 -13.022  0.00  0.00    +0.028 C 
ATOM      6  C   UNL     1      38.057 -26.060 -14.915  0.00  0.00    +0.004 C 
ENDROOT
BRANCH   1  15
ATOM      7  O   UNL     1      32.238 -24.041 -12.967  0.00  0.00    -0.291 OA
ATOM      8  O   UNL     1      35.997 -23.728 -15.875  0.00  0.00    -0.291 OA
ATOM      9  C   UNL     1      32.448 -23.392 -16.526  0.00  0.00    +0.016 C 
ATOM     10  C   UNL     1      31.909 -23.094 -15.135  0.00  0.00    +0.070 C 
ATOM     11  C   UNL     1      33.891 -22.930 -16.668  0.00  0.00    +0.070 C 
ATOM     12  C   UNL     1      34.176 -24.011 -14.359  0.00  0.00    +0.103 C 
ATOM     13  C   UNL     1      32.735 -23.762 -14.058  0.00  0.00    +0.179 C 
ATOM     14  C   UNL     1      34.795 -23.592 -15.652  0.00  0.00    +0.179 C 
ATOM     15  C   UNL     1      34.935 -24.631 -13.445  0.00  0.00    +0.141 C 
BRANCH  15  16
ATOM     16  O   UNL     1      34.426 -25.028 -12.222  0.00  0.00    -0.505 OA
ATOM     17  H   UNL     1      33.501 -25.008 -12.071  0.00  0.00    +0.292 HD
ENDBRANCH  15  16
ENDBRANCH   1  15
BRANCH   4  21
ATOM     18  F   UNL     1      40.999 -26.717 -13.397  0.00  0.00    -0.166 F 
ATOM     19  F   UNL     1      40.712 -26.432 -15.527  0.00  0.00    -0.166 F 
ATOM     20  F   UNL     1      41.275 -24.747 -14.274  0.00  0.00    -0.166 F 
ATOM     21  C   UNL     1      40.475 -25.852 -14.314  0.00  0.00    +0.419 C 
ENDBRANCH   4  21
BRANCH   2  24
ATOM     22  O   UNL     1      37.176 -22.300 -11.839  0.00  0.00    -0.126 OA
ATOM     23  O   UNL     1      36.527 -24.040 -10.669  0.00  0.00    -0.126 OA
ATOM     24  N   UNL     1      36.995 -23.533 -11.715  0.00  0.00    +0.058 N 
ENDBRANCH   2  24
TORSDOF 4
ENDMDL
MODEL 6
REMARK VINA RESULT:      -8.9      1.671      2.590
REMARK  Name = 5289053
REMARK  4 active torsions:
REMARK  status: ('A' for Active; 'I' for Inactive)
REMARK    1  A    between atoms: C_1  and  C_15
REMARK    2  A    between atoms: C_2  and  N_24
REMARK    3  A    between atoms: C_4  and  C_21
REMARK    4  A    between atoms: C_15  and  O_16
REMARK                            x       y       z     vdW  Elec       q    Type
REMARK                         _______ _______ _______ _____ _____    ______ ____
ROOT
ATOM      1  C   UNL     1      32.230  -7.025 -22.077  0.00  0.00    +0.056 C 
ATOM      2  C   UNL     1      33.090  -7.027 -23.164  0.00  0.00    +0.146 C 
ATOM      3  C   UNL     1      31.186  -6.117 -21.987  0.00  0.00    +0.005 C 
ATOM      4  C   UNL     1      31.855  -5.178 -24.110  0.00  0.00    +0.073 C 
ATOM      5  C   UNL     1      32.901  -6.097 -24.187  0.00  0.00    +0.028 C 
ATOM      6  C   UNL     1      30.997  -5.188 -23.010  0.00  0.00    +0.004 C 
ENDROOT
BRANCH   1  15
ATOM      7  O   UNL     1      32.677  -9.743 -18.806  0.00  0.00    -0.291 OA
ATOM      8  O   UNL     1      30.915  -8.938 -23.156  0.00  0.00    -0.291 OA
ATOM      9  C   UNL     1      31.543 -12.032 -21.376  0.00  0.00    +0.016 C 
ATOM     10  C   UNL     1      31.596 -11.549 -19.934  0.00  0.00    +0.070 C 
ATOM     11  C   UNL     1      30.668 -11.124 -22.228  0.00  0.00    +0.070 C 
ATOM     12  C   UNL     1      31.908  -9.239 -21.007  0.00  0.00    +0.103 C 
ATOM     13  C   UNL     1      32.129 -10.136 -19.834  0.00  0.00    +0.179 C 
ATOM     14  C   UNL     1      31.163  -9.696 -22.220  0.00  0.00    +0.179 C 
ATOM     15  C   UNL     1      32.393  -7.991 -20.973  0.00  0.00    +0.141 C 
BRANCH  15  16
ATOM     16  O   UNL     1      33.075  -7.503 -19.873  0.00  0.00    -0.505 OA
ATOM     17  H   UNL     1      32.758  -7.681 -19.009  0.00  0.00    +0.292 HD
ENDBRANCH  15  16
ENDBRANCH   1  15
BRANCH   4  21
ATOM     18  F   UNL     1      32.324  -3.011 -25.009  0.00  0.00    -0.166 F 
ATOM     19  F   UNL     1      32.059  -4.629 -26.429  0.00  0.00    -0.166 F 
ATOM     20  F   UNL     1      30.342  -3.834 -25.359  0.00  0.00    -0.166 F 
ATOM     21  C   UNL     1      31.652  -4.184 -25.204  0.00  0.00    +0.419 C 
ENDBRANCH   4  21
BRANCH   2  24
ATOM     22  O   UNL     1      33.952  -9.071 -23.791  0.00  0.00    -0.126 OA
ATOM     23  O   UNL     1      35.298  -7.614 -22.849  0.00  0.00    -0.126 OA
ATOM     24  N   UNL     1      34.168  -7.950 -23.273  0.00  0.00    +0.058 N 
ENDBRANCH   2  24
TORSDOF 4
ENDMDL
MODEL 7
REMARK VINA RESULT:      -8.8     17.117     18.984
REMARK  Name = 5289053
REMARK  4 active torsions:
REMARK  status: ('A' for Active; 'I' for Inactive)
REMARK    1  A    between atoms: C_1  and  C_15
REMARK    2  A    between atoms: C_2  and  N_24
REMARK    3  A    between atoms: C_4  and  C_21
REMARK    4  A    between atoms: C_15  and  O_16
REMARK                            x       y       z     vdW  Elec       q    Type
REMARK                         _______ _______ _______ _____ _____    ______ ____
ROOT
ATOM      1  C   UNL     1      34.786 -23.659 -14.091  0.00  0.00    +0.056 C 
ATOM      2  C   UNL     1      34.603 -23.103 -15.347  0.00  0.00    +0.146 C 
ATOM      3  C   UNL     1      33.722 -24.191 -13.378  0.00  0.00    +0.005 C 
ATOM      4  C   UNL     1      32.245 -23.607 -15.198  0.00  0.00    +0.073 C 
ATOM      5  C   UNL     1      33.324 -23.077 -15.904  0.00  0.00    +0.028 C 
ATOM      6  C   UNL     1      32.443 -24.165 -13.935  0.00  0.00    +0.004 C 
ENDROOT
BRANCH   1  15
ATOM      7  O   UNL     1      38.608 -23.780 -12.177  0.00  0.00    -0.291 OA
ATOM      8  O   UNL     1      35.589 -25.788 -15.264  0.00  0.00    -0.291 OA
ATOM      9  C   UNL     1      39.173 -26.147 -14.861  0.00  0.00    +0.016 C 
ATOM     10  C   UNL     1      39.369 -25.663 -13.433  0.00  0.00    +0.070 C 
ATOM     11  C   UNL     1      37.777 -26.722 -15.060  0.00  0.00    +0.070 C 
ATOM     12  C   UNL     1      37.033 -24.647 -13.746  0.00  0.00    +0.103 C 
ATOM     13  C   UNL     1      38.357 -24.605 -13.054  0.00  0.00    +0.179 C 
ATOM     14  C   UNL     1      36.702 -25.706 -14.747  0.00  0.00    +0.179 C 
ATOM     15  C   UNL     1      36.121 -23.709 -13.465  0.00  0.00    +0.141 C 
BRANCH  15  16
ATOM     16  O   UNL     1      36.361 -22.713 -12.535  0.00  0.00    -0.505 OA
ATOM     17  H   UNL     1      36.400 -21.817 -12.807  0.00  0.00    +0.292 HD
ENDBRANCH  15  16
ENDBRANCH   1  15
BRANCH   4  21
ATOM     18  F   UNL     1      30.395 -24.815 -16.116  0.00  0.00    -0.166 F 
ATOM     19  F   UNL     1      29.934 -23.033 -14.970  0.00  0.00    -0.166 F 
ATOM     20  F   UNL     1      30.821 -22.852 -16.947  0.00  0.00    -0.166 F 
ATOM     21  C   UNL     1      30.877 -23.580 -15.793  0.00  0.00    +0.419 C 
ENDBRANCH   4  21
BRANCH   2  24
ATOM     22  O   UNL     1      35.765 -22.812 -17.317  0.00  0.00    -0.126 OA
ATOM     23  O   UNL     1      36.517 -21.826 -15.505  0.00  0.00    -0.126 OA
ATOM     24  N   UNL     1      35.683 -22.553 -16.094  0.00  0.00    +0.058 N 
ENDBRANCH   2  24
TORSDOF 4
ENDMDL
MODEL 8
REMARK VINA RESULT:      -8.6     11.061     13.496
REMARK  Name = 5289053
REMARK  4 active torsions:
REMARK  status: ('A' for Active; 'I' for Inactive)
REMARK    1  A    between atoms: C_1  and  C_15
REMARK    2  A    between atoms: C_2  and  N_24
REMARK    3  A    between atoms: C_4  and  C_21
REMARK    4  A    between atoms: C_15  and  O_16
REMARK                            x       y       z     vdW  Elec       q    Type
REMARK                         _______ _______ _______ _____ _____    ______ ____
ROOT
ATOM      1  C   UNL     1      34.490 -18.933 -20.907  0.00  0.00    +0.056 C 
ATOM      2  C   UNL     1      35.589 -19.672 -20.497  0.00  0.00    +0.146 C 
ATOM      3  C   UNL     1      33.198 -19.386 -20.688  0.00  0.00    +0.005 C 
ATOM      4  C   UNL     1      34.097 -21.361 -19.626  0.00  0.00    +0.073 C 
ATOM      5  C   UNL     1      35.392 -20.893 -19.852  0.00  0.00    +0.028 C 
ATOM      6  C   UNL     1      33.000 -20.607 -20.043  0.00  0.00    +0.004 C 
ENDROOT
BRANCH   1  15
ATOM      7  O   UNL     1      35.045 -15.148 -22.816  0.00  0.00    -0.291 OA
ATOM      8  O   UNL     1      34.433 -19.845 -23.298  0.00  0.00    -0.291 OA
ATOM      9  C   UNL     1      33.959 -17.129 -25.649  0.00  0.00    +0.016 C 
ATOM     10  C   UNL     1      34.805 -16.031 -25.022  0.00  0.00    +0.070 C 
ATOM     11  C   UNL     1      34.483 -18.508 -25.275  0.00  0.00    +0.070 C 
ATOM     12  C   UNL     1      34.665 -17.501 -22.923  0.00  0.00    +0.103 C 
ATOM     13  C   UNL     1      34.838 -16.140 -23.513  0.00  0.00    +0.179 C 
ATOM     14  C   UNL     1      34.501 -18.715 -23.778  0.00  0.00    +0.179 C 
ATOM     15  C   UNL     1      34.653 -17.636 -21.590  0.00  0.00    +0.141 C 
BRANCH  15  16
ATOM     16  O   UNL     1      34.818 -16.554 -20.746  0.00  0.00    -0.505 OA
ATOM     17  H   UNL     1      34.317 -15.773 -20.881  0.00  0.00    +0.292 HD
ENDBRANCH  15  16
ENDBRANCH   1  15
BRANCH   4  21
ATOM     18  F   UNL     1      33.958 -23.745 -19.772  0.00  0.00    -0.166 F 
ATOM     19  F   UNL     1      34.795 -22.918 -17.950  0.00  0.00    -0.166 F 
ATOM     20  F   UNL     1      32.662 -22.751 -18.337  0.00  0.00    -0.166 F 
ATOM     21  C   UNL     1      33.885 -22.667 -18.937  0.00  0.00    +0.419 C 
ENDBRANCH   4  21
BRANCH   2  24
ATOM     22  O   UNL     1      37.268 -18.888 -21.870  0.00  0.00    -0.126 OA
ATOM     23  O   UNL     1      37.711 -19.178 -19.739  0.00  0.00    -0.126 OA
ATOM     24  N   UNL     1      36.923 -19.223 -20.713  0.00  0.00    +0.058 N 
ENDBRANCH   2  24
TORSDOF 4
ENDMDL
MODEL 9
REMARK VINA RESULT:      -8.5      5.229      7.093
REMARK  Name = 5289053
REMARK  4 active torsions:
REMARK  status: ('A' for Active; 'I' for Inactive)
REMARK    1  A    between atoms: C_1  and  C_15
REMARK    2  A    between atoms: C_2  and  N_24
REMARK    3  A    between atoms: C_4  and  C_21
REMARK    4  A    between atoms: C_15  and  O_16
REMARK                            x       y       z     vdW  Elec       q    Type
REMARK                         _______ _______ _______ _____ _____    ______ ____
ROOT
ATOM      1  C   UNL     1      32.754 -12.817 -23.904  0.00  0.00    +0.056 C 
ATOM      2  C   UNL     1      33.345 -11.611 -24.247  0.00  0.00    +0.146 C 
ATOM      3  C   UNL     1      31.934 -12.925 -22.792  0.00  0.00    +0.005 C 
ATOM      4  C   UNL     1      32.288 -10.579 -22.335  0.00  0.00    +0.073 C 
ATOM      5  C   UNL     1      33.110 -10.485 -23.458  0.00  0.00    +0.028 C 
ATOM      6  C   UNL     1      31.699 -11.799 -22.002  0.00  0.00    +0.004 C 
ENDROOT
BRANCH   1  15
ATOM      7  O   UNL     1      33.401 -16.274 -26.336  0.00  0.00    -0.291 OA
ATOM      8  O   UNL     1      34.411 -13.941 -22.310  0.00  0.00    -0.291 OA
ATOM      9  C   UNL     1      34.827 -17.427 -23.211  0.00  0.00    +0.016 C 
ATOM     10  C   UNL     1      34.800 -17.354 -24.730  0.00  0.00    +0.070 C 
ATOM     11  C   UNL     1      35.332 -16.124 -22.607  0.00  0.00    +0.070 C 
ATOM     12  C   UNL     1      33.769 -15.039 -24.328  0.00  0.00    +0.103 C 
ATOM     13  C   UNL     1      33.923 -16.225 -25.223  0.00  0.00    +0.179 C 
ATOM     14  C   UNL     1      34.476 -14.946 -23.015  0.00  0.00    +0.179 C 
ATOM     15  C   UNL     1      32.974 -14.032 -24.712  0.00  0.00    +0.141 C 
BRANCH  15  16
ATOM     16  O   UNL     1      32.307 -14.050 -25.924  0.00  0.00    -0.505 OA
ATOM     17  H   UNL     1      32.457 -14.748 -26.531  0.00  0.00    +0.292 HD
ENDBRANCH  15  16
ENDBRANCH   1  15
BRANCH   4  21
ATOM     18  F   UNL     1      33.165  -8.661 -21.206  0.00  0.00    -0.166 F 
ATOM     19  F   UNL     1      31.180  -8.478 -22.059  0.00  0.00    -0.166 F 
ATOM     20  F   UNL     1      31.488  -9.689 -20.281  0.00  0.00    -0.166 F 
ATOM     21  C   UNL     1      32.037  -9.376 -21.490  0.00  0.00    +0.419 C 
ENDBRANCH   4  21
BRANCH   2  24
ATOM     22  O   UNL     1      35.265 -10.848 -25.271  0.00  0.00    -0.126 OA
ATOM     23  O   UNL     1      33.831 -12.003 -26.467  0.00  0.00    -0.126 OA
ATOM     24  N   UNL     1      34.189 -11.480 -25.386  0.00  0.00    +0.058 N 
ENDBRANCH   2  24
TORSDOF 4
ENDMDL
