MODEL 1
REMARK VINA RESULT:     -11.9      0.000      0.000
REMARK  Name = 23586145
REMARK  7 active torsions:
REMARK  status: ('A' for Active; 'I' for Inactive)
REMARK    1  A    between atoms: C_5  and  O_24
REMARK    2  A    between atoms: C_7  and  N_10
REMARK    3  A    between atoms: N_10  and  C_12
REMARK    4  A    between atoms: C_15  and  S_18
REMARK    5  A    between atoms: S_18  and  N_21
REMARK    6  A    between atoms: O_24  and  C_25
REMARK    7  A    between atoms: C_25  and  C_26
REMARK                            x       y       z     vdW  Elec       q    Type
REMARK                         _______ _______ _______ _____ _____    ______ ____
ROOT
ATOM      1  N   UNL     1      33.403 -14.945 -23.858  0.00  0.00    -0.299 NA
ATOM      2  N   UNL     1      34.685 -16.971 -23.656  0.00  0.00    -0.106 N 
ATOM      3  N   UNL     1      35.084 -17.997 -24.452  0.00  0.00    -0.139 NA
ATOM      4  N   UNL     1      33.850 -16.511 -25.659  0.00  0.00    -0.145 NA
ATOM      5  C   UNL     1      33.652 -14.779 -22.600  0.00  0.00    +0.291 C 
ATOM      6  C   UNL     1      34.435 -15.662 -21.708  0.00  0.00    +0.105 C 
ATOM      7  C   UNL     1      34.938 -16.764 -22.292  0.00  0.00    +0.142 C 
ATOM      8  C   UNL     1      33.929 -16.072 -24.419  0.00  0.00    +0.178 C 
ATOM      9  C   UNL     1      34.559 -17.668 -25.628  0.00  0.00    +0.230 C 
ENDROOT
BRANCH   7  10
ATOM     10  N   UNL     1      35.687 -17.701 -21.639  0.00  0.00    -0.299 N 
ATOM     11  H   UNL     1      36.657 -17.534 -21.616  0.00  0.00    +0.153 HD
BRANCH  10  12
ATOM     12  C   UNL     1      35.255 -18.869 -21.002  0.00  0.00    +0.049 C 
ATOM     13  C   UNL     1      36.181 -19.749 -20.429  0.00  0.00    +0.016 C 
ATOM     14  C   UNL     1      33.889 -19.172 -20.929  0.00  0.00    +0.016 C 
ATOM     15  C   UNL     1      34.387 -21.207 -19.726  0.00  0.00    +0.122 C 
ATOM     16  C   UNL     1      35.749 -20.913 -19.793  0.00  0.00    +0.021 C 
ATOM     17  C   UNL     1      33.456 -20.336 -20.294  0.00  0.00    +0.021 C 
BRANCH  15  18
ATOM     18  S   UNL     1      33.846 -22.664 -18.931  0.00  0.00    +0.057 S 
ATOM     19  O   UNL     1      32.522 -22.421 -18.377  0.00  0.00    -0.153 OA
ATOM     20  O   UNL     1      34.058 -23.789 -19.832  0.00  0.00    -0.153 OA
BRANCH  18  21
ATOM     21  N   UNL     1      34.970 -22.770 -17.648  0.00  0.00    -0.203 NA
ATOM     22  H   UNL     1      34.917 -23.698 -17.227  0.00  0.00    +0.144 HD
ATOM     23  H   UNL     1      34.752 -22.065 -16.946  0.00  0.00    +0.144 HD
ENDBRANCH  18  21
ENDBRANCH  15  18
ENDBRANCH  10  12
ENDBRANCH   7  10
BRANCH   5  24
ATOM     24  O   UNL     1      33.182 -13.710 -21.964  0.00  0.00    -0.451 OA
BRANCH  24  25
ATOM     25  C   UNL     1      32.267 -12.923 -22.703  0.00  0.00    +0.208 C 
BRANCH  25  26
ATOM     26  C   UNL     1      31.686 -11.857 -21.775  0.00  0.00    +0.044 C 
ATOM     27  C   UNL     1      31.978 -12.200 -20.308  0.00  0.00    +0.004 C 
ATOM     28  C   UNL     1      32.234 -10.470 -22.132  0.00  0.00    +0.004 C 
ATOM     29  C   UNL     1      31.451 -11.122 -19.362  0.00  0.00    +0.000 C 
ATOM     30  C   UNL     1      31.707  -9.394 -21.183  0.00  0.00    +0.000 C 
ATOM     31  C   UNL     1      31.991  -9.743 -19.726  0.00  0.00    +0.000 C 
ENDBRANCH  25  26
ENDBRANCH  24  25
ENDBRANCH   5  24
TORSDOF 7
ENDMDL
MODEL 2
REMARK VINA RESULT:     -11.5      6.929     10.237
REMARK  Name = 23586145
REMARK  7 active torsions:
REMARK  status: ('A' for Active; 'I' for Inactive)
REMARK    1  A    between atoms: C_5  and  O_24
REMARK    2  A    between atoms: C_7  and  N_10
REMARK    3  A    between atoms: N_10  and  C_12
REMARK    4  A    between atoms: C_15  and  S_18
REMARK    5  A    between atoms: S_18  and  N_21
REMARK    6  A    between atoms: O_24  and  C_25
REMARK    7  A    between atoms: C_25  and  C_26
REMARK                            x       y       z     vdW  Elec       q    Type
REMARK                         _______ _______ _______ _____ _____    ______ ____
ROOT
ATOM      1  N   UNL     1      31.411 -23.615 -16.528  0.00  0.00    -0.299 NA
ATOM      2  N   UNL     1      32.389 -23.979 -14.361  0.00  0.00    -0.106 N 
ATOM      3  N   UNL     1      31.998 -24.424 -13.138  0.00  0.00    -0.139 NA
ATOM      4  N   UNL     1      30.235 -24.464 -14.580  0.00  0.00    -0.145 NA
ATOM      5  C   UNL     1      32.589 -23.215 -16.883  0.00  0.00    +0.291 C 
ATOM      6  C   UNL     1      33.809 -23.141 -16.050  0.00  0.00    +0.105 C 
ATOM      7  C   UNL     1      33.656 -23.540 -14.775  0.00  0.00    +0.142 C 
ATOM      8  C   UNL     1      31.291 -24.013 -15.228  0.00  0.00    +0.178 C 
ATOM      9  C   UNL     1      30.712 -24.697 -13.331  0.00  0.00    +0.230 C 
ENDROOT
BRANCH   7  10
ATOM     10  N   UNL     1      34.661 -23.548 -13.850  0.00  0.00    -0.299 N 
ATOM     11  H   UNL     1      34.430 -23.187 -12.964  0.00  0.00    +0.153 HD
BRANCH  10  12
ATOM     12  C   UNL     1      35.976 -24.002 -14.001  0.00  0.00    +0.049 C 
ATOM     13  C   UNL     1      36.485 -24.994 -13.154  0.00  0.00    +0.016 C 
ATOM     14  C   UNL     1      36.799 -23.468 -15.001  0.00  0.00    +0.016 C 
ATOM     15  C   UNL     1      38.609 -24.908 -14.302  0.00  0.00    +0.122 C 
ATOM     16  C   UNL     1      37.797 -25.445 -13.304  0.00  0.00    +0.021 C 
ATOM     17  C   UNL     1      38.110 -23.919 -15.151  0.00  0.00    +0.021 C 
BRANCH  15  18
ATOM     18  S   UNL     1      40.251 -25.473 -14.491  0.00  0.00    +0.057 S 
ATOM     19  O   UNL     1      41.150 -24.346 -14.287  0.00  0.00    -0.153 OA
ATOM     20  O   UNL     1      40.417 -26.683 -13.699  0.00  0.00    -0.153 OA
BRANCH  18  21
ATOM     21  N   UNL     1      40.261 -25.895 -16.146  0.00  0.00    -0.203 NA
ATOM     22  H   UNL     1      40.490 -25.073 -16.705  0.00  0.00    +0.144 HD
ATOM     23  H   UNL     1      39.341 -26.242 -16.414  0.00  0.00    +0.144 HD
ENDBRANCH  18  21
ENDBRANCH  15  18
ENDBRANCH  10  12
ENDBRANCH   7  10
BRANCH   5  24
ATOM     24  O   UNL     1      32.805 -22.807 -18.130  0.00  0.00    -0.451 OA
BRANCH  24  25
ATOM     25  C   UNL     1      34.162 -22.602 -18.471  0.00  0.00    +0.208 C 
BRANCH  25  26
ATOM     26  C   UNL     1      34.221 -21.704 -19.706  0.00  0.00    +0.044 C 
ATOM     27  C   UNL     1      33.017 -20.752 -19.739  0.00  0.00    +0.004 C 
ATOM     28  C   UNL     1      35.539 -20.919 -19.743  0.00  0.00    +0.004 C 
ATOM     29  C   UNL     1      33.080 -19.806 -20.938  0.00  0.00    +0.000 C 
ATOM     30  C   UNL     1      35.598 -19.973 -20.941  0.00  0.00    +0.000 C 
ATOM     31  C   UNL     1      34.395 -19.035 -20.976  0.00  0.00    +0.000 C 
ENDBRANCH  25  26
ENDBRANCH  24  25
ENDBRANCH   5  24
TORSDOF 7
ENDMDL
MODEL 3
REMARK VINA RESULT:     -11.4      8.177     11.121
REMARK  Name = 23586145
REMARK  7 active torsions:
REMARK  status: ('A' for Active; 'I' for Inactive)
REMARK    1  A    between atoms: C_5  and  O_24
REMARK    2  A    between atoms: C_7  and  N_10
REMARK    3  A    between atoms: N_10  and  C_12
REMARK    4  A    between atoms: C_15  and  S_18
REMARK    5  A    between atoms: S_18  and  N_21
REMARK    6  A    between atoms: O_24  and  C_25
REMARK    7  A    between atoms: C_25  and  C_26
REMARK                            x       y       z     vdW  Elec       q    Type
REMARK                         _______ _______ _______ _____ _____    ______ ____
ROOT
ATOM      1  N   UNL     1      37.229 -23.346 -13.867  0.00  0.00    -0.299 NA
ATOM      2  N   UNL     1      35.327 -24.095 -12.599  0.00  0.00    -0.106 N 
ATOM      3  N   UNL     1      34.988 -24.269 -11.294  0.00  0.00    -0.139 NA
ATOM      4  N   UNL     1      37.119 -23.478 -11.445  0.00  0.00    -0.145 NA
ATOM      5  C   UNL     1      36.499 -23.577 -14.910  0.00  0.00    +0.291 C 
ATOM      6  C   UNL     1      35.111 -24.087 -14.949  0.00  0.00    +0.105 C 
ATOM      7  C   UNL     1      34.559 -24.336 -13.748  0.00  0.00    +0.142 C 
ATOM      8  C   UNL     1      36.638 -23.609 -12.665  0.00  0.00    +0.178 C 
ATOM      9  C   UNL     1      36.091 -23.886 -10.659  0.00  0.00    +0.230 C 
ENDROOT
BRANCH   7  10
ATOM     10  N   UNL     1      33.291 -24.810 -13.572  0.00  0.00    -0.299 N 
ATOM     11  H   UNL     1      33.191 -25.538 -12.917  0.00  0.00    +0.153 HD
BRANCH  10  12
ATOM     12  C   UNL     1      32.113 -24.395 -14.205  0.00  0.00    +0.049 C 
ATOM     13  C   UNL     1      30.997 -25.239 -14.251  0.00  0.00    +0.016 C 
ATOM     14  C   UNL     1      32.038 -23.129 -14.801  0.00  0.00    +0.016 C 
ATOM     15  C   UNL     1      29.758 -23.564 -15.473  0.00  0.00    +0.122 C 
ATOM     16  C   UNL     1      29.824 -24.825 -14.882  0.00  0.00    +0.021 C 
ATOM     17  C   UNL     1      30.865 -22.715 -15.433  0.00  0.00    +0.021 C 
BRANCH  15  18
ATOM     18  S   UNL     1      28.289 -23.046 -16.263  0.00  0.00    +0.057 S 
ATOM     19  O   UNL     1      27.243 -22.928 -15.257  0.00  0.00    -0.153 OA
ATOM     20  O   UNL     1      28.601 -21.910 -17.119  0.00  0.00    -0.153 OA
BRANCH  18  21
ATOM     21  N   UNL     1      27.956 -24.400 -17.249  0.00  0.00    -0.203 NA
ATOM     22  H   UNL     1      27.123 -24.216 -17.809  0.00  0.00    +0.144 HD
ATOM     23  H   UNL     1      27.797 -25.218 -16.662  0.00  0.00    +0.144 HD
ENDBRANCH  18  21
ENDBRANCH  15  18
ENDBRANCH  10  12
ENDBRANCH   7  10
BRANCH   5  24
ATOM     24  O   UNL     1      36.987 -23.351 -16.126  0.00  0.00    -0.451 OA
BRANCH  24  25
ATOM     25  C   UNL     1      36.835 -22.027 -16.601  0.00  0.00    +0.208 C 
BRANCH  25  26
ATOM     26  C   UNL     1      36.233 -22.082 -18.005  0.00  0.00    +0.044 C 
ATOM     27  C   UNL     1      34.705 -22.209 -17.934  0.00  0.00    +0.004 C 
ATOM     28  C   UNL     1      36.642 -20.847 -18.819  0.00  0.00    +0.004 C 
ATOM     29  C   UNL     1      34.075 -22.214 -19.325  0.00  0.00    +0.000 C 
ATOM     30  C   UNL     1      36.008 -20.854 -20.209  0.00  0.00    +0.000 C 
ATOM     31  C   UNL     1      34.491 -20.989 -20.134  0.00  0.00    +0.000 C 
ENDBRANCH  25  26
ENDBRANCH  24  25
ENDBRANCH   5  24
TORSDOF 7
ENDMDL
MODEL 4
REMARK VINA RESULT:     -11.4      3.994      9.186
REMARK  Name = 23586145
REMARK  7 active torsions:
REMARK  status: ('A' for Active; 'I' for Inactive)
REMARK    1  A    between atoms: C_5  and  O_24
REMARK    2  A    between atoms: C_7  and  N_10
REMARK    3  A    between atoms: N_10  and  C_12
REMARK    4  A    between atoms: C_15  and  S_18
REMARK    5  A    between atoms: S_18  and  N_21
REMARK    6  A    between atoms: O_24  and  C_25
REMARK    7  A    between atoms: C_25  and  C_26
REMARK                            x       y       z     vdW  Elec       q    Type
REMARK                         _______ _______ _______ _____ _____    ______ ____
ROOT
ATOM      1  N   UNL     1      34.882 -16.534 -23.649  0.00  0.00    -0.299 NA
ATOM      2  N   UNL     1      33.211 -14.894 -24.202  0.00  0.00    -0.106 N 
ATOM      3  N   UNL     1      32.658 -14.354 -25.319  0.00  0.00    -0.139 NA
ATOM      4  N   UNL     1      34.228 -15.899 -25.899  0.00  0.00    -0.145 NA
ATOM      5  C   UNL     1      34.605 -16.256 -22.416  0.00  0.00    +0.291 C 
ATOM      6  C   UNL     1      33.614 -15.282 -21.909  0.00  0.00    +0.105 C 
ATOM      7  C   UNL     1      32.931 -14.614 -22.856  0.00  0.00    +0.142 C 
ATOM      8  C   UNL     1      34.172 -15.839 -24.583  0.00  0.00    +0.178 C 
ATOM      9  C   UNL     1      33.300 -14.990 -26.293  0.00  0.00    +0.230 C 
ENDROOT
BRANCH   7  10
ATOM     10  N   UNL     1      31.976 -13.675 -22.592  0.00  0.00    -0.299 N 
ATOM     11  H   UNL     1      31.051 -14.009 -22.536  0.00  0.00    +0.153 HD
BRANCH  10  12
ATOM     12  C   UNL     1      32.140 -12.300 -22.392  0.00  0.00    +0.049 C 
ATOM     13  C   UNL     1      31.539 -11.665 -21.299  0.00  0.00    +0.016 C 
ATOM     14  C   UNL     1      32.909 -11.542 -23.285  0.00  0.00    +0.016 C 
ATOM     15  C   UNL     1      32.471  -9.547 -21.995  0.00  0.00    +0.122 C 
ATOM     16  C   UNL     1      31.704 -10.294 -21.101  0.00  0.00    +0.021 C 
ATOM     17  C   UNL     1      33.074 -10.171 -23.087  0.00  0.00    +0.021 C 
BRANCH  15  18
ATOM     18  S   UNL     1      32.677  -7.831 -21.747  0.00  0.00    +0.057 S 
ATOM     19  O   UNL     1      33.866  -7.402 -22.469  0.00  0.00    -0.153 OA
ATOM     20  O   UNL     1      31.402  -7.172 -21.995  0.00  0.00    -0.153 OA
BRANCH  18  21
ATOM     21  N   UNL     1      33.001  -7.782 -20.069  0.00  0.00    -0.203 NA
ATOM     22  H   UNL     1      33.929  -8.167 -19.893  0.00  0.00    +0.144 HD
ATOM     23  H   UNL     1      32.304  -8.334 -19.572  0.00  0.00    +0.144 HD
ENDBRANCH  18  21
ENDBRANCH  15  18
ENDBRANCH  10  12
ENDBRANCH   7  10
BRANCH   5  24
ATOM     24  O   UNL     1      35.245 -16.881 -21.433  0.00  0.00    -0.451 OA
BRANCH  24  25
ATOM     25  C   UNL     1      35.638 -18.211 -21.718  0.00  0.00    +0.208 C 
BRANCH  25  26
ATOM     26  C   UNL     1      35.033 -19.132 -20.660  0.00  0.00    +0.044 C 
ATOM     27  C   UNL     1      33.602 -19.533 -21.046  0.00  0.00    +0.004 C 
ATOM     28  C   UNL     1      35.911 -20.372 -20.454  0.00  0.00    +0.004 C 
ATOM     29  C   UNL     1      32.993 -20.497 -20.029  0.00  0.00    +0.000 C 
ATOM     30  C   UNL     1      35.299 -21.335 -19.438  0.00  0.00    +0.000 C 
ATOM     31  C   UNL     1      33.875 -21.724 -19.821  0.00  0.00    +0.000 C 
ENDBRANCH  25  26
ENDBRANCH  24  25
ENDBRANCH   5  24
TORSDOF 7
ENDMDL
MODEL 5
REMARK VINA RESULT:     -11.2      5.521     11.003
REMARK  Name = 23586145
REMARK  7 active torsions:
REMARK  status: ('A' for Active; 'I' for Inactive)
REMARK    1  A    between atoms: C_5  and  O_24
REMARK    2  A    between atoms: C_7  and  N_10
REMARK    3  A    between atoms: N_10  and  C_12
REMARK    4  A    between atoms: C_15  and  S_18
REMARK    5  A    between atoms: S_18  and  N_21
REMARK    6  A    between atoms: O_24  and  C_25
REMARK    7  A    between atoms: C_25  and  C_26
REMARK                            x       y       z     vdW  Elec       q    Type
REMARK                         _______ _______ _______ _____ _____    ______ ____
ROOT
ATOM      1  N   UNL     1      32.639 -23.290 -14.426  0.00  0.00    -0.299 NA
ATOM      2  N   UNL     1      31.672 -22.910 -16.595  0.00  0.00    -0.106 N 
ATOM      3  N   UNL     1      30.439 -22.714 -17.131  0.00  0.00    -0.139 NA
ATOM      4  N   UNL     1      30.272 -22.988 -14.876  0.00  0.00    -0.145 NA
ATOM      5  C   UNL     1      33.773 -23.327 -15.047  0.00  0.00    +0.291 C 
ATOM      6  C   UNL     1      34.017 -23.165 -16.497  0.00  0.00    +0.105 C 
ATOM      7  C   UNL     1      32.917 -22.956 -17.242  0.00  0.00    +0.142 C 
ATOM      8  C   UNL     1      31.544 -23.076 -15.211  0.00  0.00    +0.178 C 
ATOM      9  C   UNL     1      29.650 -22.770 -16.063  0.00  0.00    +0.230 C 
ENDROOT
BRANCH   7  10
ATOM     10  N   UNL     1      32.932 -22.781 -18.596  0.00  0.00    -0.299 N 
ATOM     11  H   UNL     1      32.453 -23.462 -19.121  0.00  0.00    +0.153 HD
BRANCH  10  12
ATOM     12  C   UNL     1      33.541 -21.760 -19.334  0.00  0.00    +0.049 C 
ATOM     13  C   UNL     1      32.768 -20.753 -19.924  0.00  0.00    +0.016 C 
ATOM     14  C   UNL     1      34.933 -21.734 -19.491  0.00  0.00    +0.016 C 
ATOM     15  C   UNL     1      34.763 -19.717 -20.810  0.00  0.00    +0.122 C 
ATOM     16  C   UNL     1      33.377 -19.736 -20.659  0.00  0.00    +0.021 C 
ATOM     17  C   UNL     1      35.542 -20.717 -20.226  0.00  0.00    +0.021 C 
BRANCH  15  18
ATOM     18  S   UNL     1      35.525 -18.444 -21.731  0.00  0.00    +0.057 S 
ATOM     19  O   UNL     1      36.965 -18.653 -21.700  0.00  0.00    -0.153 OA
ATOM     20  O   UNL     1      34.839 -18.324 -23.009  0.00  0.00    -0.153 OA
BRANCH  18  21
ATOM     21  N   UNL     1      35.144 -17.080 -20.774  0.00  0.00    -0.203 NA
ATOM     22  H   UNL     1      34.430 -17.334 -20.091  0.00  0.00    +0.144 HD
ATOM     23  H   UNL     1      34.793 -16.333 -21.372  0.00  0.00    +0.144 HD
ENDBRANCH  18  21
ENDBRANCH  15  18
ENDBRANCH  10  12
ENDBRANCH   7  10
BRANCH   5  24
ATOM     24  O   UNL     1      34.897 -23.531 -14.367  0.00  0.00    -0.451 OA
BRANCH  24  25
ATOM     25  C   UNL     1      36.069 -23.016 -14.970  0.00  0.00    +0.208 C 
BRANCH  25  26
ATOM     26  C   UNL     1      37.282 -23.607 -14.254  0.00  0.00    +0.044 C 
ATOM     27  C   UNL     1      37.034 -23.683 -12.741  0.00  0.00    +0.004 C 
ATOM     28  C   UNL     1      37.625 -24.991 -14.821  0.00  0.00    +0.004 C 
ATOM     29  C   UNL     1      38.213 -24.320 -12.008  0.00  0.00    +0.000 C 
ATOM     30  C   UNL     1      38.804 -25.626 -14.084  0.00  0.00    +0.000 C 
ATOM     31  C   UNL     1      38.557 -25.691 -12.581  0.00  0.00    +0.000 C 
ENDBRANCH  25  26
ENDBRANCH  24  25
ENDBRANCH   5  24
TORSDOF 7
ENDMDL
MODEL 6
REMARK VINA RESULT:     -11.0      1.285      2.064
REMARK  Name = 23586145
REMARK  7 active torsions:
REMARK  status: ('A' for Active; 'I' for Inactive)
REMARK    1  A    between atoms: C_5  and  O_24
REMARK    2  A    between atoms: C_7  and  N_10
REMARK    3  A    between atoms: N_10  and  C_12
REMARK    4  A    between atoms: C_15  and  S_18
REMARK    5  A    between atoms: S_18  and  N_21
REMARK    6  A    between atoms: O_24  and  C_25
REMARK    7  A    between atoms: C_25  and  C_26
REMARK                            x       y       z     vdW  Elec       q    Type
REMARK                         _______ _______ _______ _____ _____    ______ ____
ROOT
ATOM      1  N   UNL     1      33.920 -15.683 -24.296  0.00  0.00    -0.299 NA
ATOM      2  N   UNL     1      34.865 -17.814 -23.705  0.00  0.00    -0.106 N 
ATOM      3  N   UNL     1      34.971 -19.056 -24.245  0.00  0.00    -0.139 NA
ATOM      4  N   UNL     1      33.840 -17.685 -25.668  0.00  0.00    -0.145 NA
ATOM      5  C   UNL     1      34.371 -15.277 -23.153  0.00  0.00    +0.291 C 
ATOM      6  C   UNL     1      35.116 -16.061 -22.145  0.00  0.00    +0.105 C 
ATOM      7  C   UNL     1      35.342 -17.346 -22.471  0.00  0.00    +0.142 C 
ATOM      8  C   UNL     1      34.167 -16.991 -24.596  0.00  0.00    +0.178 C 
ATOM      9  C   UNL     1      34.345 -18.918 -25.408  0.00  0.00    +0.230 C 
ENDROOT
BRANCH   7  10
ATOM     10  N   UNL     1      36.012 -18.231 -21.676  0.00  0.00    -0.299 N 
ATOM     11  H   UNL     1      36.987 -18.108 -21.624  0.00  0.00    +0.153 HD
BRANCH  10  12
ATOM     12  C   UNL     1      35.491 -19.292 -20.926  0.00  0.00    +0.049 C 
ATOM     13  C   UNL     1      34.108 -19.503 -20.862  0.00  0.00    +0.016 C 
ATOM     14  C   UNL     1      36.347 -20.155 -20.230  0.00  0.00    +0.016 C 
ATOM     15  C   UNL     1      34.449 -21.415 -19.425  0.00  0.00    +0.122 C 
ATOM     16  C   UNL     1      33.590 -20.560 -20.115  0.00  0.00    +0.021 C 
ATOM     17  C   UNL     1      35.829 -21.212 -19.483  0.00  0.00    +0.021 C 
BRANCH  15  18
ATOM     18  S   UNL     1      33.800 -22.738 -18.489  0.00  0.00    +0.057 S 
ATOM     19  O   UNL     1      34.702 -23.001 -17.377  0.00  0.00    -0.153 OA
ATOM     20  O   UNL     1      32.391 -22.475 -18.231  0.00  0.00    -0.153 OA
BRANCH  18  21
ATOM     21  N   UNL     1      33.921 -24.020 -19.613  0.00  0.00    -0.203 NA
ATOM     22  H   UNL     1      33.551 -23.717 -20.514  0.00  0.00    +0.144 HD
ATOM     23  H   UNL     1      33.385 -24.819 -19.276  0.00  0.00    +0.144 HD
ENDBRANCH  18  21
ENDBRANCH  15  18
ENDBRANCH  10  12
ENDBRANCH   7  10
BRANCH   5  24
ATOM     24  O   UNL     1      34.179 -14.018 -22.772  0.00  0.00    -0.451 OA
BRANCH  24  25
ATOM     25  C   UNL     1      33.543 -13.189 -23.726  0.00  0.00    +0.208 C 
BRANCH  25  26
ATOM     26  C   UNL     1      33.310 -11.816 -23.097  0.00  0.00    +0.044 C 
ATOM     27  C   UNL     1      33.472 -10.706 -24.144  0.00  0.00    +0.004 C 
ATOM     28  C   UNL     1      31.925 -11.749 -22.440  0.00  0.00    +0.004 C 
ATOM     29  C   UNL     1      33.193  -9.326 -23.550  0.00  0.00    +0.000 C 
ATOM     30  C   UNL     1      31.647 -10.368 -21.849  0.00  0.00    +0.000 C 
ATOM     31  C   UNL     1      31.819  -9.267 -22.890  0.00  0.00    +0.000 C 
ENDBRANCH  25  26
ENDBRANCH  24  25
ENDBRANCH   5  24
TORSDOF 7
ENDMDL
MODEL 7
REMARK VINA RESULT:     -10.9      7.202     10.161
REMARK  Name = 23586145
REMARK  7 active torsions:
REMARK  status: ('A' for Active; 'I' for Inactive)
REMARK    1  A    between atoms: C_5  and  O_24
REMARK    2  A    between atoms: C_7  and  N_10
REMARK    3  A    between atoms: N_10  and  C_12
REMARK    4  A    between atoms: C_15  and  S_18
REMARK    5  A    between atoms: S_18  and  N_21
REMARK    6  A    between atoms: O_24  and  C_25
REMARK    7  A    between atoms: C_25  and  C_26
REMARK                            x       y       z     vdW  Elec       q    Type
REMARK                         _______ _______ _______ _____ _____    ______ ____
ROOT
ATOM      1  N   UNL     1      37.261 -22.889 -15.440  0.00  0.00    -0.299 NA
ATOM      2  N   UNL     1      35.735 -23.893 -13.876  0.00  0.00    -0.106 N 
ATOM      3  N   UNL     1      35.777 -24.430 -12.628  0.00  0.00    -0.139 NA
ATOM      4  N   UNL     1      37.855 -23.728 -13.241  0.00  0.00    -0.145 NA
ATOM      5  C   UNL     1      36.232 -22.766 -16.214  0.00  0.00    +0.291 C 
ATOM      6  C   UNL     1      34.838 -23.178 -15.938  0.00  0.00    +0.105 C 
ATOM      7  C   UNL     1      34.637 -23.747 -14.736  0.00  0.00    +0.142 C 
ATOM      8  C   UNL     1      37.022 -23.469 -14.229  0.00  0.00    +0.178 C 
ATOM      9  C   UNL     1      37.059 -24.304 -12.304  0.00  0.00    +0.230 C 
ENDROOT
BRANCH   7  10
ATOM     10  N   UNL     1      33.424 -24.192 -14.294  0.00  0.00    -0.299 N 
ATOM     11  H   UNL     1      33.446 -24.789 -13.512  0.00  0.00    +0.153 HD
BRANCH  10  12
ATOM     12  C   UNL     1      32.154 -23.912 -14.811  0.00  0.00    +0.049 C 
ATOM     13  C   UNL     1      31.005 -24.366 -14.153  0.00  0.00    +0.016 C 
ATOM     14  C   UNL     1      32.019 -23.173 -15.994  0.00  0.00    +0.016 C 
ATOM     15  C   UNL     1      29.614 -23.350 -15.848  0.00  0.00    +0.122 C 
ATOM     16  C   UNL     1      29.740 -24.086 -14.670  0.00  0.00    +0.021 C 
ATOM     17  C   UNL     1      30.754 -22.893 -16.510  0.00  0.00    +0.021 C 
BRANCH  15  18
ATOM     18  S   UNL     1      28.030 -22.999 -16.493  0.00  0.00    +0.057 S 
ATOM     19  O   UNL     1      27.074 -23.009 -15.396  0.00  0.00    -0.153 OA
ATOM     20  O   UNL     1      28.130 -21.829 -17.354  0.00  0.00    -0.153 OA
BRANCH  18  21
ATOM     21  N   UNL     1      27.765 -24.377 -17.469  0.00  0.00    -0.203 NA
ATOM     22  H   UNL     1      26.773 -24.447 -17.695  0.00  0.00    +0.144 HD
ATOM     23  H   UNL     1      28.059 -25.212 -16.964  0.00  0.00    +0.144 HD
ENDBRANCH  18  21
ENDBRANCH  15  18
ENDBRANCH  10  12
ENDBRANCH   7  10
BRANCH   5  24
ATOM     24  O   UNL     1      36.365 -22.213 -17.416  0.00  0.00    -0.451 OA
BRANCH  24  25
ATOM     25  C   UNL     1      35.344 -22.529 -18.343  0.00  0.00    +0.208 C 
BRANCH  25  26
ATOM     26  C   UNL     1      34.907 -21.242 -19.040  0.00  0.00    +0.044 C 
ATOM     27  C   UNL     1      35.873 -20.889 -20.179  0.00  0.00    +0.004 C 
ATOM     28  C   UNL     1      33.470 -21.369 -19.562  0.00  0.00    +0.004 C 
ATOM     29  C   UNL     1      35.428 -19.632 -20.926  0.00  0.00    +0.000 C 
ATOM     30  C   UNL     1      33.029 -20.112 -20.311  0.00  0.00    +0.000 C 
ATOM     31  C   UNL     1      33.996 -19.760 -21.436  0.00  0.00    +0.000 C 
ENDBRANCH  25  26
ENDBRANCH  24  25
ENDBRANCH   5  24
TORSDOF 7
ENDMDL
MODEL 8
REMARK VINA RESULT:     -10.5      4.448      7.025
REMARK  Name = 23586145
REMARK  7 active torsions:
REMARK  status: ('A' for Active; 'I' for Inactive)
REMARK    1  A    between atoms: C_5  and  O_24
REMARK    2  A    between atoms: C_7  and  N_10
REMARK    3  A    between atoms: N_10  and  C_12
REMARK    4  A    between atoms: C_15  and  S_18
REMARK    5  A    between atoms: S_18  and  N_21
REMARK    6  A    between atoms: O_24  and  C_25
REMARK    7  A    between atoms: C_25  and  C_26
REMARK                            x       y       z     vdW  Elec       q    Type
REMARK                         _______ _______ _______ _____ _____    ______ ____
ROOT
ATOM      1  N   UNL     1      32.754  -8.579 -21.684  0.00  0.00    -0.299 NA
ATOM      2  N   UNL     1      31.792 -10.675 -21.001  0.00  0.00    -0.106 N 
ATOM      3  N   UNL     1      31.214 -11.207 -19.893  0.00  0.00    -0.139 NA
ATOM      4  N   UNL     1      31.810  -9.046 -19.496  0.00  0.00    -0.145 NA
ATOM      5  C   UNL     1      32.964  -9.158 -22.821  0.00  0.00    +0.291 C 
ATOM      6  C   UNL     1      32.626 -10.546 -23.206  0.00  0.00    +0.105 C 
ATOM      7  C   UNL     1      32.033 -11.278 -22.246  0.00  0.00    +0.142 C 
ATOM      8  C   UNL     1      32.150  -9.348 -20.733  0.00  0.00    +0.178 C 
ATOM      9  C   UNL     1      31.252 -10.194 -19.035  0.00  0.00    +0.230 C 
ENDROOT
BRANCH   7  10
ATOM     10  N   UNL     1      31.644 -12.577 -22.404  0.00  0.00    -0.299 N 
ATOM     11  H   UNL     1      30.706 -12.715 -22.669  0.00  0.00    +0.153 HD
BRANCH  10  12
ATOM     12  C   UNL     1      32.407 -13.738 -22.236  0.00  0.00    +0.049 C 
ATOM     13  C   UNL     1      32.424 -14.403 -21.004  0.00  0.00    +0.016 C 
ATOM     14  C   UNL     1      33.163 -14.249 -23.299  0.00  0.00    +0.016 C 
ATOM     15  C   UNL     1      33.934 -16.062 -21.901  0.00  0.00    +0.122 C 
ATOM     16  C   UNL     1      33.185 -15.561 -20.837  0.00  0.00    +0.021 C 
ATOM     17  C   UNL     1      33.923 -15.406 -23.132  0.00  0.00    +0.021 C 
BRANCH  15  18
ATOM     18  S   UNL     1      34.886 -17.511 -21.692  0.00  0.00    +0.057 S 
ATOM     19  O   UNL     1      35.663 -17.377 -20.468  0.00  0.00    -0.153 OA
ATOM     20  O   UNL     1      34.018 -18.665 -21.875  0.00  0.00    -0.153 OA
BRANCH  18  21
ATOM     21  N   UNL     1      35.942 -17.402 -23.031  0.00  0.00    -0.203 NA
ATOM     22  H   UNL     1      35.472 -16.914 -23.794  0.00  0.00    +0.144 HD
ATOM     23  H   UNL     1      36.202 -18.339 -23.336  0.00  0.00    +0.144 HD
ENDBRANCH  18  21
ENDBRANCH  15  18
ENDBRANCH  10  12
ENDBRANCH   7  10
BRANCH   5  24
ATOM     24  O   UNL     1      33.547  -8.489 -23.811  0.00  0.00    -0.451 OA
BRANCH  24  25
ATOM     25  C   UNL     1      33.716  -7.102 -23.585  0.00  0.00    +0.208 C 
BRANCH  25  26
ATOM     26  C   UNL     1      32.911  -6.339 -24.635  0.00  0.00    +0.044 C 
ATOM     27  C   UNL     1      32.003  -5.296 -23.968  0.00  0.00    +0.004 C 
ATOM     28  C   UNL     1      33.844  -5.676 -25.657  0.00  0.00    +0.004 C 
ATOM     29  C   UNL     1      31.225  -4.483 -25.001  0.00  0.00    +0.000 C 
ATOM     30  C   UNL     1      33.063  -4.862 -26.688  0.00  0.00    +0.000 C 
ATOM     31  C   UNL     1      32.156  -3.833 -26.021  0.00  0.00    +0.000 C 
ENDBRANCH  25  26
ENDBRANCH  24  25
ENDBRANCH   5  24
TORSDOF 7
ENDMDL
MODEL 9
REMARK VINA RESULT:     -10.2      5.057      9.936
REMARK  Name = 23586145
REMARK  7 active torsions:
REMARK  status: ('A' for Active; 'I' for Inactive)
REMARK    1  A    between atoms: C_5  and  O_24
REMARK    2  A    between atoms: C_7  and  N_10
REMARK    3  A    between atoms: N_10  and  C_12
REMARK    4  A    between atoms: C_15  and  S_18
REMARK    5  A    between atoms: S_18  and  N_21
REMARK    6  A    between atoms: O_24  and  C_25
REMARK    7  A    between atoms: C_25  and  C_26
REMARK                            x       y       z     vdW  Elec       q    Type
REMARK                         _______ _______ _______ _____ _____    ______ ____
ROOT
ATOM      1  N   UNL     1      32.955 -14.884 -24.330  0.00  0.00    -0.299 NA
ATOM      2  N   UNL     1      33.607 -12.795 -25.327  0.00  0.00    -0.106 N 
ATOM      3  N   UNL     1      33.647 -12.236 -26.565  0.00  0.00    -0.139 NA
ATOM      4  N   UNL     1      32.826 -14.356 -26.696  0.00  0.00    -0.145 NA
ATOM      5  C   UNL     1      33.314 -14.347 -23.209  0.00  0.00    +0.291 C 
ATOM      6  C   UNL     1      33.858 -12.990 -22.989  0.00  0.00    +0.105 C 
ATOM      7  C   UNL     1      33.989 -12.239 -24.097  0.00  0.00    +0.142 C 
ATOM      8  C   UNL     1      33.100 -14.096 -25.434  0.00  0.00    +0.178 C 
ATOM      9  C   UNL     1      33.171 -13.209 -27.335  0.00  0.00    +0.230 C 
ENDROOT
BRANCH   7  10
ATOM     10  N   UNL     1      34.471 -10.962 -24.104  0.00  0.00    -0.299 N 
ATOM     11  H   UNL     1      35.416 -10.861 -24.361  0.00  0.00    +0.153 HD
BRANCH  10  12
ATOM     12  C   UNL     1      33.795  -9.777 -23.789  0.00  0.00    +0.049 C 
ATOM     13  C   UNL     1      34.482  -8.557 -23.756  0.00  0.00    +0.016 C 
ATOM     14  C   UNL     1      32.424  -9.798 -23.503  0.00  0.00    +0.016 C 
ATOM     15  C   UNL     1      32.442  -7.407 -23.159  0.00  0.00    +0.122 C 
ATOM     16  C   UNL     1      33.808  -7.376 -23.442  0.00  0.00    +0.021 C 
ATOM     17  C   UNL     1      31.750  -8.618 -23.190  0.00  0.00    +0.021 C 
BRANCH  15  18
ATOM     18  S   UNL     1      31.599  -5.929 -22.766  0.00  0.00    +0.057 S 
ATOM     19  O   UNL     1      32.075  -4.879 -23.655  0.00  0.00    -0.153 OA
ATOM     20  O   UNL     1      30.174  -6.217 -22.686  0.00  0.00    -0.153 OA
BRANCH  18  21
ATOM     21  N   UNL     1      32.187  -5.628 -21.190  0.00  0.00    -0.203 NA
ATOM     22  H   UNL     1      31.833  -4.730 -20.862  0.00  0.00    +0.144 HD
ATOM     23  H   UNL     1      33.206  -5.607 -21.207  0.00  0.00    +0.144 HD
ENDBRANCH  18  21
ENDBRANCH  15  18
ENDBRANCH  10  12
ENDBRANCH   7  10
BRANCH   5  24
ATOM     24  O   UNL     1      33.210 -15.038 -22.077  0.00  0.00    -0.451 OA
BRANCH  24  25
ATOM     25  C   UNL     1      34.407 -15.162 -21.334  0.00  0.00    +0.208 C 
BRANCH  25  26
ATOM     26  C   UNL     1      34.851 -16.623 -21.370  0.00  0.00    +0.044 C 
ATOM     27  C   UNL     1      33.675 -17.554 -21.042  0.00  0.00    +0.004 C 
ATOM     28  C   UNL     1      35.459 -16.972 -22.734  0.00  0.00    +0.004 C 
ATOM     29  C   UNL     1      34.081 -19.025 -21.122  0.00  0.00    +0.000 C 
ATOM     30  C   UNL     1      35.862 -18.444 -22.813  0.00  0.00    +0.000 C 
ATOM     31  C   UNL     1      34.693 -19.364 -22.477  0.00  0.00    +0.000 C 
ENDBRANCH  25  26
ENDBRANCH  24  25
ENDBRANCH   5  24
TORSDOF 7
ENDMDL
