MODEL 1
REMARK VINA RESULT:      -5.6      0.000      0.000
REMARK  Name = 5221296
REMARK  5 active torsions:
REMARK  status: ('A' for Active; 'I' for Inactive)
REMARK    1  A    between atoms: C_1  and  N_2
REMARK    2  A    between atoms: C_1  and  C_7
REMARK    3  A    between atoms: N_2  and  C_5
REMARK    4  A    between atoms: C_7  and  C_8
REMARK    5  A    between atoms: C_8  and  S_9
REMARK                            x       y       z     vdW  Elec       q    Type
REMARK                         _______ _______ _______ _____ _____    ______ ____
ROOT
ATOM      1  C   UNL     1      36.892 -25.512 -12.847  0.00  0.00    -0.071 C 
ENDROOT
BRANCH   1   2
ATOM      2  N   UNL     1      36.520 -24.038 -12.784  0.00  0.00    +0.387 N 
ATOM      3  C   UNL     1      35.215 -23.875 -12.018  0.00  0.00    -0.096 C 
ATOM      4  C   UNL     1      37.623 -23.266 -12.076  0.00  0.00    -0.096 C 
BRANCH   2   5
ATOM      5  C   UNL     1      36.349 -23.496 -14.196  0.00  0.00    -0.073 C 
ATOM      6  C   UNL     1      35.462 -24.433 -14.985  0.00  0.00    -0.024 C 
ENDBRANCH   2   5
ENDBRANCH   1   2
BRANCH   1   7
ATOM      7  C   UNL     1      38.401 -25.681 -12.961  0.00  0.00    +0.004 C 
BRANCH   7   8
ATOM      8  C   UNL     1      38.842 -26.266 -14.296  0.00  0.00    +0.156 C 
BRANCH   8   9
ATOM      9  S   UNL     1      40.546 -25.926 -14.611  0.00  0.00    +0.022 S 
ATOM     10  O   UNL     1      40.647 -26.048 -16.065  0.00  0.00    -0.069 OA
ATOM     11  O   UNL     1      40.717 -24.570 -14.092  0.00  0.00    -0.069 OA
ATOM     12  O   UNL     1      41.238 -26.968 -13.855  0.00  0.00    -0.069 OA
ENDBRANCH   8   9
ENDBRANCH   7   8
ENDBRANCH   1   7
TORSDOF 5
ENDMDL
MODEL 2
REMARK VINA RESULT:      -5.5      1.101      2.439
REMARK  Name = 5221296
REMARK  5 active torsions:
REMARK  status: ('A' for Active; 'I' for Inactive)
REMARK    1  A    between atoms: C_1  and  N_2
REMARK    2  A    between atoms: C_1  and  C_7
REMARK    3  A    between atoms: N_2  and  C_5
REMARK    4  A    between atoms: C_7  and  C_8
REMARK    5  A    between atoms: C_8  and  S_9
REMARK                            x       y       z     vdW  Elec       q    Type
REMARK                         _______ _______ _______ _____ _____    ______ ____
ROOT
ATOM      1  C   UNL     1      37.653 -24.084 -15.050  0.00  0.00    -0.071 C 
ENDROOT
BRANCH   1   2
ATOM      2  N   UNL     1      36.208 -23.793 -14.671  0.00  0.00    +0.387 N 
ATOM      3  C   UNL     1      35.680 -22.647 -15.522  0.00  0.00    -0.096 C 
ATOM      4  C   UNL     1      35.360 -25.034 -14.909  0.00  0.00    -0.096 C 
BRANCH   2   5
ATOM      5  C   UNL     1      36.137 -23.406 -13.200  0.00  0.00    -0.073 C 
ATOM      6  C   UNL     1      35.349 -24.453 -12.446  0.00  0.00    -0.024 C 
ENDBRANCH   2   5
ENDBRANCH   1   2
BRANCH   1   7
ATOM      7  C   UNL     1      37.942 -25.576 -14.956  0.00  0.00    +0.004 C 
BRANCH   7   8
ATOM      8  C   UNL     1      38.957 -25.926 -13.878  0.00  0.00    +0.156 C 
BRANCH   8   9
ATOM      9  S   UNL     1      40.607 -25.853 -14.503  0.00  0.00    +0.022 S 
ATOM     10  O   UNL     1      41.268 -26.973 -13.833  0.00  0.00    -0.069 OA
ATOM     11  O   UNL     1      40.424 -26.018 -15.944  0.00  0.00    -0.069 OA
ATOM     12  O   UNL     1      41.062 -24.528 -14.085  0.00  0.00    -0.069 OA
ENDBRANCH   8   9
ENDBRANCH   7   8
ENDBRANCH   1   7
TORSDOF 5
ENDMDL
MODEL 3
REMARK VINA RESULT:      -5.5      8.621      9.817
REMARK  Name = 5221296
REMARK  5 active torsions:
REMARK  status: ('A' for Active; 'I' for Inactive)
REMARK    1  A    between atoms: C_1  and  N_2
REMARK    2  A    between atoms: C_1  and  C_7
REMARK    3  A    between atoms: N_2  and  C_5
REMARK    4  A    between atoms: C_7  and  C_8
REMARK    5  A    between atoms: C_8  and  S_9
REMARK                            x       y       z     vdW  Elec       q    Type
REMARK                         _______ _______ _______ _____ _____    ______ ____
ROOT
ATOM      1  C   UNL     1      33.862 -19.363 -21.012  0.00  0.00    -0.071 C 
ENDROOT
BRANCH   1   2
ATOM      2  N   UNL     1      34.998 -18.626 -21.707  0.00  0.00    +0.387 N 
ATOM      3  C   UNL     1      34.780 -17.124 -21.582  0.00  0.00    -0.096 C 
ATOM      4  C   UNL     1      36.321 -19.002 -21.056  0.00  0.00    -0.096 C 
BRANCH   2   5
ATOM      5  C   UNL     1      35.029 -19.012 -23.179  0.00  0.00    -0.073 C 
ATOM      6  C   UNL     1      34.961 -17.760 -24.025  0.00  0.00    -0.024 C 
ENDBRANCH   2   5
ENDBRANCH   1   2
BRANCH   1   7
ATOM      7  C   UNL     1      34.394 -20.564 -20.242  0.00  0.00    +0.004 C 
BRANCH   7   8
ATOM      8  C   UNL     1      33.307 -21.341 -19.512  0.00  0.00    +0.156 C 
BRANCH   8   9
ATOM      9  S   UNL     1      33.980 -22.732 -18.656  0.00  0.00    +0.022 S 
ATOM     10  O   UNL     1      35.320 -22.278 -18.285  0.00  0.00    -0.069 OA
ATOM     11  O   UNL     1      33.057 -22.912 -17.536  0.00  0.00    -0.069 OA
ATOM     12  O   UNL     1      33.943 -23.791 -19.664  0.00  0.00    -0.069 OA
ENDBRANCH   8   9
ENDBRANCH   7   8
ENDBRANCH   1   7
TORSDOF 5
ENDMDL
MODEL 4
REMARK VINA RESULT:      -5.4      8.580      9.798
REMARK  Name = 5221296
REMARK  5 active torsions:
REMARK  status: ('A' for Active; 'I' for Inactive)
REMARK    1  A    between atoms: C_1  and  N_2
REMARK    2  A    between atoms: C_1  and  C_7
REMARK    3  A    between atoms: N_2  and  C_5
REMARK    4  A    between atoms: C_7  and  C_8
REMARK    5  A    between atoms: C_8  and  S_9
REMARK                            x       y       z     vdW  Elec       q    Type
REMARK                         _______ _______ _______ _____ _____    ______ ____
ROOT
ATOM      1  C   UNL     1      33.924 -19.376 -21.036  0.00  0.00    -0.071 C 
ENDROOT
BRANCH   1   2
ATOM      2  N   UNL     1      35.088 -18.572 -21.598  0.00  0.00    +0.387 N 
ATOM      3  C   UNL     1      36.390 -19.065 -20.983  0.00  0.00    -0.096 C 
ATOM      4  C   UNL     1      35.142 -18.745 -23.109  0.00  0.00    -0.096 C 
BRANCH   2   5
ATOM      5  C   UNL     1      34.896 -17.099 -21.263  0.00  0.00    -0.073 C 
ATOM      6  C   UNL     1      34.963 -16.286 -22.537  0.00  0.00    -0.024 C 
ENDBRANCH   2   5
ENDBRANCH   1   2
BRANCH   1   7
ATOM      7  C   UNL     1      34.432 -20.586 -20.263  0.00  0.00    +0.004 C 
BRANCH   7   8
ATOM      8  C   UNL     1      33.329 -21.341 -19.533  0.00  0.00    +0.156 C 
BRANCH   8   9
ATOM      9  S   UNL     1      33.978 -22.729 -18.656  0.00  0.00    +0.022 S 
ATOM     10  O   UNL     1      33.942 -23.799 -19.652  0.00  0.00    -0.069 OA
ATOM     11  O   UNL     1      35.317 -22.286 -18.274  0.00  0.00    -0.069 OA
ATOM     12  O   UNL     1      33.039 -22.887 -17.545  0.00  0.00    -0.069 OA
ENDBRANCH   8   9
ENDBRANCH   7   8
ENDBRANCH   1   7
TORSDOF 5
ENDMDL
MODEL 5
REMARK VINA RESULT:      -5.4      1.447      2.280
REMARK  Name = 5221296
REMARK  5 active torsions:
REMARK  status: ('A' for Active; 'I' for Inactive)
REMARK    1  A    between atoms: C_1  and  N_2
REMARK    2  A    between atoms: C_1  and  C_7
REMARK    3  A    between atoms: N_2  and  C_5
REMARK    4  A    between atoms: C_7  and  C_8
REMARK    5  A    between atoms: C_8  and  S_9
REMARK                            x       y       z     vdW  Elec       q    Type
REMARK                         _______ _______ _______ _____ _____    ______ ____
ROOT
ATOM      1  C   UNL     1      36.873 -25.109 -14.986  0.00  0.00    -0.071 C 
ENDROOT
BRANCH   1   2
ATOM      2  N   UNL     1      36.522 -23.628 -15.015  0.00  0.00    +0.387 N 
ATOM      3  C   UNL     1      35.182 -23.438 -15.712  0.00  0.00    -0.096 C 
ATOM      4  C   UNL     1      36.432 -23.100 -13.591  0.00  0.00    -0.096 C 
BRANCH   2   5
ATOM      5  C   UNL     1      37.600 -22.865 -15.771  0.00  0.00    -0.073 C 
ATOM      6  C   UNL     1      36.951 -22.014 -16.840  0.00  0.00    -0.024 C 
ENDBRANCH   2   5
ENDBRANCH   1   2
BRANCH   1   7
ATOM      7  C   UNL     1      37.909 -25.393 -13.907  0.00  0.00    +0.004 C 
BRANCH   7   8
ATOM      8  C   UNL     1      38.851 -26.535 -14.263  0.00  0.00    +0.156 C 
BRANCH   8   9
ATOM      9  S   UNL     1      40.479 -25.939 -14.600  0.00  0.00    +0.022 S 
ATOM     10  O   UNL     1      41.338 -26.925 -13.943  0.00  0.00    -0.069 OA
ATOM     11  O   UNL     1      40.540 -25.945 -16.061  0.00  0.00    -0.069 OA
ATOM     12  O   UNL     1      40.481 -24.612 -13.986  0.00  0.00    -0.069 OA
ENDBRANCH   8   9
ENDBRANCH   7   8
ENDBRANCH   1   7
TORSDOF 5
ENDMDL
MODEL 6
REMARK VINA RESULT:      -5.3      1.398      2.142
REMARK  Name = 5221296
REMARK  5 active torsions:
REMARK  status: ('A' for Active; 'I' for Inactive)
REMARK    1  A    between atoms: C_1  and  N_2
REMARK    2  A    between atoms: C_1  and  C_7
REMARK    3  A    between atoms: N_2  and  C_5
REMARK    4  A    between atoms: C_7  and  C_8
REMARK    5  A    between atoms: C_8  and  S_9
REMARK                            x       y       z     vdW  Elec       q    Type
REMARK                         _______ _______ _______ _____ _____    ______ ____
ROOT
ATOM      1  C   UNL     1      36.170 -24.851 -12.586  0.00  0.00    -0.071 C 
ENDROOT
BRANCH   1   2
ATOM      2  N   UNL     1      35.504 -24.381 -13.872  0.00  0.00    +0.387 N 
ATOM      3  C   UNL     1      35.651 -25.454 -14.941  0.00  0.00    -0.096 C 
ATOM      4  C   UNL     1      34.028 -24.120 -13.613  0.00  0.00    -0.096 C 
BRANCH   2   5
ATOM      5  C   UNL     1      36.170 -23.097 -14.348  0.00  0.00    -0.073 C 
ATOM      6  C   UNL     1      36.029 -22.990 -15.850  0.00  0.00    -0.024 C 
ENDBRANCH   2   5
ENDBRANCH   1   2
BRANCH   1   7
ATOM      7  C   UNL     1      37.170 -25.963 -12.876  0.00  0.00    +0.004 C 
BRANCH   7   8
ATOM      8  C   UNL     1      38.620 -25.505 -12.796  0.00  0.00    +0.156 C 
BRANCH   8   9
ATOM      9  S   UNL     1      39.468 -25.797 -14.317  0.00  0.00    +0.022 S 
ATOM     10  O   UNL     1      39.371 -24.510 -15.005  0.00  0.00    -0.069 OA
ATOM     11  O   UNL     1      40.814 -26.165 -13.882  0.00  0.00    -0.069 OA
ATOM     12  O   UNL     1      38.696 -26.881 -14.924  0.00  0.00    -0.069 OA
ENDBRANCH   8   9
ENDBRANCH   7   8
ENDBRANCH   1   7
TORSDOF 5
ENDMDL
MODEL 7
REMARK VINA RESULT:      -5.3      3.879      4.750
REMARK  Name = 5221296
REMARK  5 active torsions:
REMARK  status: ('A' for Active; 'I' for Inactive)
REMARK    1  A    between atoms: C_1  and  N_2
REMARK    2  A    between atoms: C_1  and  C_7
REMARK    3  A    between atoms: N_2  and  C_5
REMARK    4  A    between atoms: C_7  and  C_8
REMARK    5  A    between atoms: C_8  and  S_9
REMARK                            x       y       z     vdW  Elec       q    Type
REMARK                         _______ _______ _______ _____ _____    ______ ____
ROOT
ATOM      1  C   UNL     1      37.039 -22.897 -13.712  0.00  0.00    -0.071 C 
ENDROOT
BRANCH   1   2
ATOM      2  N   UNL     1      37.363 -23.859 -14.846  0.00  0.00    +0.387 N 
ATOM      3  C   UNL     1      38.424 -24.849 -14.386  0.00  0.00    -0.096 C 
ATOM      4  C   UNL     1      36.104 -24.615 -15.246  0.00  0.00    -0.096 C 
BRANCH   2   5
ATOM      5  C   UNL     1      37.886 -23.076 -16.043  0.00  0.00    -0.073 C 
ATOM      6  C   UNL     1      36.931 -21.945 -16.354  0.00  0.00    -0.024 C 
ENDBRANCH   2   5
ENDBRANCH   1   2
BRANCH   1   7
ATOM      7  C   UNL     1      37.686 -23.361 -12.414  0.00  0.00    +0.004 C 
BRANCH   7   8
ATOM      8  C   UNL     1      36.781 -23.205 -11.200  0.00  0.00    +0.156 C 
BRANCH   8   9
ATOM      9  S   UNL     1      35.622 -24.534 -11.092  0.00  0.00    +0.022 S 
ATOM     10  O   UNL     1      34.516 -24.081 -11.935  0.00  0.00    -0.069 OA
ATOM     11  O   UNL     1      36.372 -25.673 -11.617  0.00  0.00    -0.069 OA
ATOM     12  O   UNL     1      35.322 -24.597  -9.662  0.00  0.00    -0.069 OA
ENDBRANCH   8   9
ENDBRANCH   7   8
ENDBRANCH   1   7
TORSDOF 5
ENDMDL
MODEL 8
REMARK VINA RESULT:      -5.1     11.429     12.629
REMARK  Name = 5221296
REMARK  5 active torsions:
REMARK  status: ('A' for Active; 'I' for Inactive)
REMARK    1  A    between atoms: C_1  and  N_2
REMARK    2  A    between atoms: C_1  and  C_7
REMARK    3  A    between atoms: N_2  and  C_5
REMARK    4  A    between atoms: C_7  and  C_8
REMARK    5  A    between atoms: C_8  and  S_9
REMARK                            x       y       z     vdW  Elec       q    Type
REMARK                         _______ _______ _______ _____ _____    ______ ____
ROOT
ATOM      1  C   UNL     1      35.330 -17.695 -21.041  0.00  0.00    -0.071 C 
ENDROOT
BRANCH   1   2
ATOM      2  N   UNL     1      34.790 -19.072 -21.398  0.00  0.00    +0.387 N 
ATOM      3  C   UNL     1      34.848 -19.266 -22.906  0.00  0.00    -0.096 C 
ATOM      4  C   UNL     1      35.633 -20.140 -20.717  0.00  0.00    -0.096 C 
BRANCH   2   5
ATOM      5  C   UNL     1      33.347 -19.189 -20.927  0.00  0.00    -0.073 C 
ATOM      6  C   UNL     1      33.166 -20.500 -20.194  0.00  0.00    -0.024 C 
ENDBRANCH   2   5
ENDBRANCH   1   2
BRANCH   1   7
ATOM      7  C   UNL     1      34.661 -16.621 -21.888  0.00  0.00    +0.004 C 
BRANCH   7   8
ATOM      8  C   UNL     1      34.383 -15.335 -21.122  0.00  0.00    +0.156 C 
BRANCH   8   9
ATOM      9  S   UNL     1      32.730 -14.775 -21.390  0.00  0.00    +0.022 S 
ATOM     10  O   UNL     1      32.708 -14.472 -22.820  0.00  0.00    -0.069 OA
ATOM     11  O   UNL     1      31.921 -15.925 -20.991  0.00  0.00    -0.069 OA
ATOM     12  O   UNL     1      32.627 -13.612 -20.510  0.00  0.00    -0.069 OA
ENDBRANCH   8   9
ENDBRANCH   7   8
ENDBRANCH   1   7
TORSDOF 5
ENDMDL
MODEL 9
REMARK VINA RESULT:      -5.1      6.433      7.398
REMARK  Name = 5221296
REMARK  5 active torsions:
REMARK  status: ('A' for Active; 'I' for Inactive)
REMARK    1  A    between atoms: C_1  and  N_2
REMARK    2  A    between atoms: C_1  and  C_7
REMARK    3  A    between atoms: N_2  and  C_5
REMARK    4  A    between atoms: C_7  and  C_8
REMARK    5  A    between atoms: C_8  and  S_9
REMARK                            x       y       z     vdW  Elec       q    Type
REMARK                         _______ _______ _______ _____ _____    ______ ____
ROOT
ATOM      1  C   UNL     1      32.178 -23.774 -15.102  0.00  0.00    -0.071 C 
ENDROOT
BRANCH   1   2
ATOM      2  N   UNL     1      30.706 -23.966 -14.770  0.00  0.00    +0.387 N 
ATOM      3  C   UNL     1      30.120 -25.049 -15.666  0.00  0.00    -0.096 C 
ATOM      4  C   UNL     1      30.563 -24.381 -13.314  0.00  0.00    -0.096 C 
BRANCH   2   5
ATOM      5  C   UNL     1      29.959 -22.659 -15.000  0.00  0.00    -0.073 C 
ATOM      6  C   UNL     1      28.643 -22.952 -15.687  0.00  0.00    -0.024 C 
ENDBRANCH   2   5
ENDBRANCH   1   2
BRANCH   1   7
ATOM      7  C   UNL     1      32.348 -23.312 -16.543  0.00  0.00    +0.004 C 
BRANCH   7   8
ATOM      8  C   UNL     1      33.801 -23.268 -16.995  0.00  0.00    +0.156 C 
BRANCH   8   9
ATOM      9  S   UNL     1      33.927 -22.849 -18.706  0.00  0.00    +0.022 S 
ATOM     10  O   UNL     1      33.870 -24.150 -19.372  0.00  0.00    -0.069 OA
ATOM     11  O   UNL     1      32.763 -21.992 -18.925  0.00  0.00    -0.069 OA
ATOM     12  O   UNL     1      35.219 -22.170 -18.787  0.00  0.00    -0.069 OA
ENDBRANCH   8   9
ENDBRANCH   7   8
ENDBRANCH   1   7
TORSDOF 5
ENDMDL
