MODEL 1
REMARK VINA RESULT:      -9.3      0.000      0.000
REMARK  Name = 222865
REMARK  0 active torsions:
REMARK  status: ('A' for Active; 'I' for Inactive)
REMARK                            x       y       z     vdW  Elec       q    Type
REMARK                         _______ _______ _______ _____ _____    ______ ____
ROOT
ATOM      1  O   UNL     1      29.043 -24.723 -14.716  0.00  0.00    -0.296 OA
ATOM      2  O   UNL     1      39.700 -25.444 -15.016  0.00  0.00    -0.296 OA
ATOM      3  C   UNL     1      34.264 -24.530 -14.603  0.00  0.00    +0.000 C 
ATOM      4  C   UNL     1      33.637 -23.319 -15.371  0.00  0.00    +0.000 C 
ATOM      5  C   UNL     1      35.770 -24.271 -14.223  0.00  0.00    +0.001 C 
ATOM      6  C   UNL     1      32.195 -23.681 -15.738  0.00  0.00    +0.007 C 
ATOM      7  C   UNL     1      31.338 -23.948 -14.484  0.00  0.00    +0.052 C 
ATOM      8  C   UNL     1      36.538 -23.931 -15.543  0.00  0.00    +0.007 C 
ATOM      9  C   UNL     1      33.373 -24.999 -13.420  0.00  0.00    +0.000 C 
ATOM     10  C   UNL     1      34.465 -22.964 -16.613  0.00  0.00    +0.000 C 
ATOM     11  C   UNL     1      31.892 -25.191 -13.795  0.00  0.00    +0.007 C 
ATOM     12  C   UNL     1      35.936 -22.730 -16.281  0.00  0.00    +0.000 C 
ATOM     13  C   UNL     1      31.355 -22.715 -16.566  0.00  0.00    +0.008 C 
ATOM     14  C   UNL     1      36.412 -25.562 -13.638  0.00  0.00    +0.008 C 
ATOM     15  C   UNL     1      29.990 -24.095 -15.168  0.00  0.00    +0.150 C 
ATOM     16  C   UNL     1      35.888 -23.137 -13.173  0.00  0.00    +0.000 C 
ATOM     17  C   UNL     1      38.042 -23.744 -15.334  0.00  0.00    +0.064 C 
ATOM     18  C   UNL     1      29.949 -23.329 -16.480  0.00  0.00    +0.064 C 
ATOM     19  C   UNL     1      31.202 -22.774 -13.496  0.00  0.00    +0.007 C 
ATOM     20  C   UNL     1      37.919 -25.461 -13.416  0.00  0.00    +0.065 C 
ATOM     21  C   UNL     1      38.631 -24.956 -14.649  0.00  0.00    +0.151 C 
ENDROOT
TORSDOF 0
ENDMDL
MODEL 2
REMARK VINA RESULT:      -9.0      3.580      6.032
REMARK  Name = 222865
REMARK  0 active torsions:
REMARK  status: ('A' for Active; 'I' for Inactive)
REMARK                            x       y       z     vdW  Elec       q    Type
REMARK                         _______ _______ _______ _____ _____    ______ ____
ROOT
ATOM      1  O   UNL     1      34.411 -24.379 -12.436  0.00  0.00    -0.296 OA
ATOM      2  O   UNL     1      33.959 -19.028 -21.674  0.00  0.00    -0.296 OA
ATOM      3  C   UNL     1      34.409 -22.261 -17.214  0.00  0.00    +0.000 C 
ATOM      4  C   UNL     1      35.826 -22.773 -16.787  0.00  0.00    +0.000 C 
ATOM      5  C   UNL     1      34.319 -22.003 -18.764  0.00  0.00    +0.001 C 
ATOM      6  C   UNL     1      35.831 -22.949 -15.266  0.00  0.00    +0.007 C 
ATOM      7  C   UNL     1      34.788 -23.989 -14.808  0.00  0.00    +0.052 C 
ATOM      8  C   UNL     1      35.461 -21.004 -19.144  0.00  0.00    +0.007 C 
ATOM      9  C   UNL     1      33.268 -23.146 -16.641  0.00  0.00    +0.000 C 
ATOM     10  C   UNL     1      36.925 -21.808 -17.249  0.00  0.00    +0.000 C 
ATOM     11  C   UNL     1      33.404 -23.437 -15.135  0.00  0.00    +0.007 C 
ATOM     12  C   UNL     1      36.849 -21.518 -18.745  0.00  0.00    +0.000 C 
ATOM     13  C   UNL     1      37.112 -23.366 -14.553  0.00  0.00    +0.008 C 
ATOM     14  C   UNL     1      32.970 -21.316 -19.122  0.00  0.00    +0.008 C 
ATOM     15  C   UNL     1      35.167 -24.046 -13.339  0.00  0.00    +0.150 C 
ATOM     16  C   UNL     1      34.424 -23.333 -19.553  0.00  0.00    +0.000 C 
ATOM     17  C   UNL     1      35.435 -20.590 -20.617  0.00  0.00    +0.064 C 
ATOM     18  C   UNL     1      36.624 -23.670 -13.128  0.00  0.00    +0.064 C 
ATOM     19  C   UNL     1      34.968 -25.415 -15.363  0.00  0.00    +0.007 C 
ATOM     20  C   UNL     1      32.873 -20.856 -20.575  0.00  0.00    +0.065 C 
ATOM     21  C   UNL     1      34.076 -20.040 -20.983  0.00  0.00    +0.151 C 
ENDROOT
TORSDOF 0
ENDMDL
MODEL 3
REMARK VINA RESULT:      -8.2      1.530      6.424
REMARK  Name = 222865
REMARK  0 active torsions:
REMARK  status: ('A' for Active; 'I' for Inactive)
REMARK                            x       y       z     vdW  Elec       q    Type
REMARK                         _______ _______ _______ _____ _____    ______ ____
ROOT
ATOM      1  O   UNL     1      37.858 -23.613 -13.300  0.00  0.00    -0.296 OA
ATOM      2  O   UNL     1      27.554 -22.079 -15.677  0.00  0.00    -0.296 OA
ATOM      3  C   UNL     1      32.852 -23.375 -14.781  0.00  0.00    +0.000 C 
ATOM      4  C   UNL     1      33.834 -23.442 -15.999  0.00  0.00    +0.000 C 
ATOM      5  C   UNL     1      31.371 -23.707 -15.201  0.00  0.00    +0.001 C 
ATOM      6  C   UNL     1      35.232 -23.060 -15.506  0.00  0.00    +0.007 C 
ATOM      7  C   UNL     1      35.742 -24.035 -14.426  0.00  0.00    +0.052 C 
ATOM      8  C   UNL     1      30.974 -22.723 -16.350  0.00  0.00    +0.007 C 
ATOM      9  C   UNL     1      33.374 -24.184 -13.562  0.00  0.00    +0.000 C 
ATOM     10  C   UNL     1      33.365 -22.526 -17.138  0.00  0.00    +0.000 C 
ATOM     11  C   UNL     1      34.842 -23.890 -13.203  0.00  0.00    +0.007 C 
ATOM     12  C   UNL     1      31.924 -22.808 -17.551  0.00  0.00    +0.000 C 
ATOM     13  C   UNL     1      36.387 -22.961 -16.496  0.00  0.00    +0.008 C 
ATOM     14  C   UNL     1      30.400 -23.442 -14.014  0.00  0.00    +0.008 C 
ATOM     15  C   UNL     1      37.156 -23.496 -14.296  0.00  0.00    +0.150 C 
ATOM     16  C   UNL     1      31.238 -25.189 -15.631  0.00  0.00    +0.000 C 
ATOM     17  C   UNL     1      29.517 -22.873 -16.795  0.00  0.00    +0.064 C 
ATOM     18  C   UNL     1      37.610 -22.818 -15.577  0.00  0.00    +0.064 C 
ATOM     19  C   UNL     1      35.873 -25.509 -14.854  0.00  0.00    +0.007 C 
ATOM     20  C   UNL     1      28.923 -23.556 -14.383  0.00  0.00    +0.065 C 
ATOM     21  C   UNL     1      28.590 -22.740 -15.610  0.00  0.00    +0.151 C 
ENDROOT
TORSDOF 0
ENDMDL
MODEL 4
REMARK VINA RESULT:      -8.0     10.762     12.980
REMARK  Name = 222865
REMARK  0 active torsions:
REMARK  status: ('A' for Active; 'I' for Inactive)
REMARK                            x       y       z     vdW  Elec       q    Type
REMARK                         _______ _______ _______ _____ _____    ______ ____
ROOT
ATOM      1  O   UNL     1      35.927 -19.435 -20.109  0.00  0.00    -0.296 OA
ATOM      2  O   UNL     1      34.201 -10.724 -26.051  0.00  0.00    -0.296 OA
ATOM      3  C   UNL     1      34.498 -15.328 -23.007  0.00  0.00    +0.000 C 
ATOM      4  C   UNL     1      34.067 -16.690 -23.647  0.00  0.00    +0.000 C 
ATOM      5  C   UNL     1      33.736 -14.109 -23.649  0.00  0.00    +0.001 C 
ATOM      6  C   UNL     1      34.892 -17.805 -22.997  0.00  0.00    +0.007 C 
ATOM      7  C   UNL     1      34.640 -17.888 -21.477  0.00  0.00    +0.052 C 
ATOM      8  C   UNL     1      33.984 -14.156 -25.192  0.00  0.00    +0.007 C 
ATOM      9  C   UNL     1      34.457 -15.369 -21.455  0.00  0.00    +0.000 C 
ATOM     10  C   UNL     1      34.248 -16.667 -25.170  0.00  0.00    +0.000 C 
ATOM     11  C   UNL     1      35.157 -16.598 -20.847  0.00  0.00    +0.007 C 
ATOM     12  C   UNL     1      33.540 -15.482 -25.819  0.00  0.00    +0.000 C 
ATOM     13  C   UNL     1      34.742 -19.243 -23.480  0.00  0.00    +0.008 C 
ATOM     14  C   UNL     1      34.326 -12.766 -23.129  0.00  0.00    +0.008 C 
ATOM     15  C   UNL     1      35.437 -19.149 -21.193  0.00  0.00    +0.150 C 
ATOM     16  C   UNL     1      32.227 -14.156 -23.301  0.00  0.00    +0.000 C 
ATOM     17  C   UNL     1      33.371 -12.968 -25.938  0.00  0.00    +0.064 C 
ATOM     18  C   UNL     1      35.522 -20.039 -22.422  0.00  0.00    +0.064 C 
ATOM     19  C   UNL     1      33.190 -18.179 -21.048  0.00  0.00    +0.007 C 
ATOM     20  C   UNL     1      33.776 -11.531 -23.838  0.00  0.00    +0.065 C 
ATOM     21  C   UNL     1      33.856 -11.668 -25.340  0.00  0.00    +0.151 C 
ENDROOT
TORSDOF 0
ENDMDL
MODEL 5
REMARK VINA RESULT:      -7.8     20.037     21.991
REMARK  Name = 222865
REMARK  0 active torsions:
REMARK  status: ('A' for Active; 'I' for Inactive)
REMARK                            x       y       z     vdW  Elec       q    Type
REMARK                         _______ _______ _______ _____ _____    ______ ____
ROOT
ATOM      1  O   UNL     1      35.123  -3.075 -28.953  0.00  0.00    -0.296 OA
ATOM      2  O   UNL     1      32.343  -7.504 -19.634  0.00  0.00    -0.296 OA
ATOM      3  C   UNL     1      33.267  -5.439 -24.677  0.00  0.00    +0.000 C 
ATOM      4  C   UNL     1      32.265  -4.389 -25.263  0.00  0.00    +0.000 C 
ATOM      5  C   UNL     1      32.568  -6.417 -23.661  0.00  0.00    +0.001 C 
ATOM      6  C   UNL     1      33.041  -3.458 -26.198  0.00  0.00    +0.007 C 
ATOM      7  C   UNL     1      33.671  -4.228 -27.377  0.00  0.00    +0.052 C 
ATOM      8  C   UNL     1      31.893  -5.544 -22.553  0.00  0.00    +0.007 C 
ATOM      9  C   UNL     1      34.093  -6.146 -25.787  0.00  0.00    +0.000 C 
ATOM     10  C   UNL     1      31.563  -3.611 -24.143  0.00  0.00    +0.000 C 
ATOM     11  C   UNL     1      34.721  -5.177 -26.806  0.00  0.00    +0.007 C 
ATOM     12  C   UNL     1      30.895  -4.533 -23.128  0.00  0.00    +0.000 C 
ATOM     13  C   UNL     1      32.334  -2.279 -26.857  0.00  0.00    +0.008 C 
ATOM     14  C   UNL     1      33.626  -7.316 -22.957  0.00  0.00    +0.008 C 
ATOM     15  C   UNL     1      34.189  -3.037 -28.164  0.00  0.00    +0.150 C 
ATOM     16  C   UNL     1      31.546  -7.329 -24.386  0.00  0.00    +0.000 C 
ATOM     17  C   UNL     1      31.249  -6.374 -21.440  0.00  0.00    +0.064 C 
ATOM     18  C   UNL     1      33.373  -1.788 -27.877  0.00  0.00    +0.064 C 
ATOM     19  C   UNL     1      32.688  -4.971 -28.300  0.00  0.00    +0.007 C 
ATOM     20  C   UNL     1      33.063  -8.164 -21.820  0.00  0.00    +0.065 C 
ATOM     21  C   UNL     1      32.257  -7.332 -20.850  0.00  0.00    +0.151 C 
ENDROOT
TORSDOF 0
ENDMDL
MODEL 6
REMARK VINA RESULT:      -7.6     19.150     21.006
REMARK  Name = 222865
REMARK  0 active torsions:
REMARK  status: ('A' for Active; 'I' for Inactive)
REMARK                            x       y       z     vdW  Elec       q    Type
REMARK                         _______ _______ _______ _____ _____    ______ ____
ROOT
ATOM      1  O   UNL     1      30.595  -1.786 -26.972  0.00  0.00    -0.296 OA
ATOM      2  O   UNL     1      32.724 -11.488 -23.034  0.00  0.00    -0.296 OA
ATOM      3  C   UNL     1      31.958  -6.249 -24.620  0.00  0.00    +0.000 C 
ATOM      4  C   UNL     1      33.199  -5.398 -25.052  0.00  0.00    +0.000 C 
ATOM      5  C   UNL     1      32.344  -7.364 -23.578  0.00  0.00    +0.001 C 
ATOM      6  C   UNL     1      32.736  -4.377 -26.096  0.00  0.00    +0.007 C 
ATOM      7  C   UNL     1      31.673  -3.417 -25.524  0.00  0.00    +0.052 C 
ATOM      8  C   UNL     1      33.479  -8.232 -24.214  0.00  0.00    +0.007 C 
ATOM      9  C   UNL     1      30.755  -5.361 -24.198  0.00  0.00    +0.000 C 
ATOM     10  C   UNL     1      34.321  -6.292 -25.594  0.00  0.00    +0.000 C 
ATOM     11  C   UNL     1      30.429  -4.239 -25.200  0.00  0.00    +0.007 C 
ATOM     12  C   UNL     1      34.702  -7.399 -24.615  0.00  0.00    +0.000 C 
ATOM     13  C   UNL     1      33.752  -3.455 -26.761  0.00  0.00    +0.008 C 
ATOM     14  C   UNL     1      31.134  -8.308 -23.320  0.00  0.00    +0.008 C 
ATOM     15  C   UNL     1      31.573  -2.472 -26.708  0.00  0.00    +0.150 C 
ATOM     16  C   UNL     1      32.779  -6.735 -22.230  0.00  0.00    +0.000 C 
ATOM     17  C   UNL     1      33.891  -9.420 -23.340  0.00  0.00    +0.064 C 
ATOM     18  C   UNL     1      32.861  -2.455 -27.513  0.00  0.00    +0.064 C 
ATOM     19  C   UNL     1      32.111  -2.566 -24.318  0.00  0.00    +0.007 C 
ATOM     20  C   UNL     1      31.469  -9.530 -22.468  0.00  0.00    +0.065 C 
ATOM     21  C   UNL     1      32.684 -10.259 -22.993  0.00  0.00    +0.151 C 
ENDROOT
TORSDOF 0
ENDMDL
MODEL 7
REMARK VINA RESULT:      -7.5      1.460      2.746
REMARK  Name = 222865
REMARK  0 active torsions:
REMARK  status: ('A' for Active; 'I' for Inactive)
REMARK                            x       y       z     vdW  Elec       q    Type
REMARK                         _______ _______ _______ _____ _____    ______ ____
ROOT
ATOM      1  O   UNL     1      30.047 -22.231 -17.038  0.00  0.00    -0.296 OA
ATOM      2  O   UNL     1      39.711 -24.236 -12.942  0.00  0.00    -0.296 OA
ATOM      3  C   UNL     1      34.600 -23.789 -14.999  0.00  0.00    +0.000 C 
ATOM      4  C   UNL     1      33.380 -24.153 -14.087  0.00  0.00    +0.000 C 
ATOM      5  C   UNL     1      35.894 -24.593 -14.599  0.00  0.00    +0.001 C 
ATOM      6  C   UNL     1      32.190 -23.292 -14.517  0.00  0.00    +0.007 C 
ATOM      7  C   UNL     1      31.790 -23.562 -15.982  0.00  0.00    +0.052 C 
ATOM      8  C   UNL     1      36.170 -24.321 -13.084  0.00  0.00    +0.007 C 
ATOM      9  C   UNL     1      34.243 -23.851 -16.509  0.00  0.00    +0.000 C 
ATOM     10  C   UNL     1      33.719 -23.951 -12.604  0.00  0.00    +0.000 C 
ATOM     11  C   UNL     1      32.943 -23.109 -16.872  0.00  0.00    +0.007 C 
ATOM     12  C   UNL     1      34.983 -24.700 -12.192  0.00  0.00    +0.000 C 
ATOM     13  C   UNL     1      30.875 -23.374 -13.750  0.00  0.00    +0.008 C 
ATOM     14  C   UNL     1      37.125 -24.068 -15.393  0.00  0.00    +0.008 C 
ATOM     15  C   UNL     1      30.529 -22.717 -16.023  0.00  0.00    +0.150 C 
ATOM     16  C   UNL     1      35.719 -26.104 -14.896  0.00  0.00    +0.000 C 
ATOM     17  C   UNL     1      37.461 -24.972 -12.581  0.00  0.00    +0.064 C 
ATOM     18  C   UNL     1      29.911 -22.577 -14.642  0.00  0.00    +0.064 C 
ATOM     19  C   UNL     1      31.362 -25.004 -16.310  0.00  0.00    +0.007 C 
ATOM     20  C   UNL     1      38.456 -24.659 -14.937  0.00  0.00    +0.065 C 
ATOM     21  C   UNL     1      38.630 -24.551 -13.440  0.00  0.00    +0.151 C 
ENDROOT
TORSDOF 0
ENDMDL
MODEL 8
REMARK VINA RESULT:      -7.3     13.702     15.647
REMARK  Name = 222865
REMARK  0 active torsions:
REMARK  status: ('A' for Active; 'I' for Inactive)
REMARK                            x       y       z     vdW  Elec       q    Type
REMARK                         _______ _______ _______ _____ _____    ______ ____
ROOT
ATOM      1  O   UNL     1      33.290  -6.168 -23.363  0.00  0.00    -0.296 OA
ATOM      2  O   UNL     1      34.299 -16.666 -21.645  0.00  0.00    -0.296 OA
ATOM      3  C   UNL     1      33.204 -11.349 -22.686  0.00  0.00    +0.000 C 
ATOM      4  C   UNL     1      32.118 -10.616 -21.829  0.00  0.00    +0.000 C 
ATOM      5  C   UNL     1      32.922 -12.894 -22.796  0.00  0.00    +0.001 C 
ATOM      6  C   UNL     1      32.501  -9.136 -21.739  0.00  0.00    +0.007 C 
ATOM      7  C   UNL     1      32.542  -8.472 -23.131  0.00  0.00    +0.052 C 
ATOM      8  C   UNL     1      32.818 -13.460 -21.341  0.00  0.00    +0.007 C 
ATOM      9  C   UNL     1      33.455 -10.641 -24.046  0.00  0.00    +0.000 C 
ATOM     10  C   UNL     1      31.989 -11.252 -20.439  0.00  0.00    +0.000 C 
ATOM     11  C   UNL     1      33.670  -9.121 -23.925  0.00  0.00    +0.007 C 
ATOM     12  C   UNL     1      31.739 -12.755 -20.512  0.00  0.00    +0.000 C 
ATOM     13  C   UNL     1      31.662  -8.183 -20.895  0.00  0.00    +0.008 C 
ATOM     14  C   UNL     1      34.116 -13.616 -23.485  0.00  0.00    +0.008 C 
ATOM     15  C   UNL     1      32.766  -7.038 -22.682  0.00  0.00    +0.150 C 
ATOM     16  C   UNL     1      31.637 -13.164 -23.618  0.00  0.00    +0.000 C 
ATOM     17  C   UNL     1      32.635 -14.979 -21.297  0.00  0.00    +0.064 C 
ATOM     18  C   UNL     1      32.221  -6.805 -21.282  0.00  0.00    +0.064 C 
ATOM     19  C   UNL     1      31.221  -8.482 -23.923  0.00  0.00    +0.007 C 
ATOM     20  C   UNL     1      34.016 -15.139 -23.467  0.00  0.00    +0.065 C 
ATOM     21  C   UNL     1      33.734 -15.662 -22.078  0.00  0.00    +0.151 C 
ENDROOT
TORSDOF 0
ENDMDL
MODEL 9
REMARK VINA RESULT:      -7.3     10.144     12.738
REMARK  Name = 222865
REMARK  0 active torsions:
REMARK  status: ('A' for Active; 'I' for Inactive)
REMARK                            x       y       z     vdW  Elec       q    Type
REMARK                         _______ _______ _______ _____ _____    ______ ____
ROOT
ATOM      1  O   UNL     1      35.268 -20.086 -24.032  0.00  0.00    -0.296 OA
ATOM      2  O   UNL     1      30.760 -10.569 -22.218  0.00  0.00    -0.296 OA
ATOM      3  C   UNL     1      33.523 -15.325 -22.767  0.00  0.00    +0.000 C 
ATOM      4  C   UNL     1      33.698 -16.250 -21.516  0.00  0.00    +0.000 C 
ATOM      5  C   UNL     1      33.393 -13.808 -22.364  0.00  0.00    +0.001 C 
ATOM      6  C   UNL     1      33.767 -17.700 -22.000  0.00  0.00    +0.007 C 
ATOM      7  C   UNL     1      34.969 -17.932 -22.940  0.00  0.00    +0.052 C 
ATOM      8  C   UNL     1      32.206 -13.688 -21.353  0.00  0.00    +0.007 C 
ATOM      9  C   UNL     1      34.585 -15.612 -23.863  0.00  0.00    +0.000 C 
ATOM     10  C   UNL     1      32.559 -16.042 -20.511  0.00  0.00    +0.000 C 
ATOM     11  C   UNL     1      34.740 -17.106 -24.202  0.00  0.00    +0.007 C 
ATOM     12  C   UNL     1      32.392 -14.577 -20.119  0.00  0.00    +0.000 C 
ATOM     13  C   UNL     1      33.859 -18.837 -20.989  0.00  0.00    +0.008 C 
ATOM     14  C   UNL     1      33.027 -12.947 -23.607  0.00  0.00    +0.008 C 
ATOM     15  C   UNL     1      34.847 -19.439 -23.083  0.00  0.00    +0.150 C 
ATOM     16  C   UNL     1      34.722 -13.280 -21.767  0.00  0.00    +0.000 C 
ATOM     17  C   UNL     1      31.906 -12.244 -20.945  0.00  0.00    +0.064 C 
ATOM     18  C   UNL     1      34.162 -20.056 -21.874  0.00  0.00    +0.064 C 
ATOM     19  C   UNL     1      36.359 -17.660 -22.337  0.00  0.00    +0.007 C 
ATOM     20  C   UNL     1      32.697 -11.493 -23.280  0.00  0.00    +0.065 C 
ATOM     21  C   UNL     1      31.677 -11.389 -22.170  0.00  0.00    +0.151 C 
ENDROOT
TORSDOF 0
ENDMDL
