MODEL 1
REMARK VINA RESULT:      -7.7      0.000      0.000
REMARK  Name = 5288373
REMARK  9 active torsions:
REMARK  status: ('A' for Active; 'I' for Inactive)
REMARK    1  A    between atoms: C_1  and  N_2
REMARK    2  A    between atoms: C_1  and  C_6
REMARK    3  A    between atoms: C_1  and  C_13
REMARK    4  A    between atoms: C_6  and  C_7
REMARK    5  A    between atoms: C_13  and  O_14
REMARK    6  A    between atoms: C_13  and  C_16
REMARK    7  A    between atoms: C_16  and  O_17
REMARK    8  A    between atoms: C_16  and  C_19
REMARK    9  A    between atoms: C_19  and  C_20
REMARK                            x       y       z     vdW  Elec       q    Type
REMARK                         _______ _______ _______ _____ _____    ______ ____
ROOT
ATOM      1  C   UNL     1      35.110 -18.187 -22.604  0.00  0.00    -0.036 C 
ENDROOT
BRANCH   1   2
ATOM      2  N   UNL     1      35.324 -18.447 -24.036  0.00  0.00    +0.383 N 
ATOM      3  H   UNL     1      35.823 -19.329 -24.151  0.00  0.00    -0.089 HD
ATOM      4  H   UNL     1      35.876 -17.689 -24.440  0.00  0.00    -0.089 HD
ATOM      5  H   UNL     1      34.423 -18.500 -24.511  0.00  0.00    -0.089 HD
ENDBRANCH   1   2
BRANCH   1   6
ATOM      6  C   UNL     1      35.959 -19.152 -21.758  0.00  0.00    -0.019 C 
BRANCH   6   7
ATOM      7  C   UNL     1      35.202 -19.791 -20.595  0.00  0.00    -0.002 C 
ATOM      8  C   UNL     1      33.720 -19.972 -20.948  0.00  0.00    -0.000 C 
ATOM      9  C   UNL     1      35.839 -21.131 -20.204  0.00  0.00    -0.000 C 
ATOM     10  C   UNL     1      32.952 -20.657 -19.819  0.00  0.00    -0.000 C 
ATOM     11  C   UNL     1      35.068 -21.815 -19.077  0.00  0.00    -0.000 C 
ATOM     12  C   UNL     1      33.593 -21.985 -19.428  0.00  0.00    -0.000 C 
ENDBRANCH   6   7
ENDBRANCH   1   6
BRANCH   1  13
ATOM     13  C   UNL     1      35.436 -16.698 -22.338  0.00  0.00    +0.117 C 
BRANCH  13  14
ATOM     14  O   UNL     1      35.473 -16.027 -23.606  0.00  0.00    -0.384 OA
ATOM     15  H   UNL     1      35.509 -16.685 -24.319  0.00  0.00    +0.210 HD
ENDBRANCH  13  14
BRANCH  13  16
ATOM     16  C   UNL     1      34.444 -15.947 -21.425  0.00  0.00    +0.135 C 
BRANCH  16  17
ATOM     17  O   UNL     1      34.983 -15.995 -20.101  0.00  0.00    -0.382 OA
ATOM     18  H   UNL     1      35.249 -16.904 -19.892  0.00  0.00    +0.210 HD
ENDBRANCH  16  17
BRANCH  16  19
ATOM     19  C   UNL     1      34.215 -14.482 -21.834  0.00  0.00    +0.032 C 
BRANCH  19  20
ATOM     20  C   UNL     1      32.771 -14.137 -22.255  0.00  0.00    +0.002 C 
ATOM     21  C   UNL     1      32.759 -13.665 -23.713  0.00  0.00    +0.000 C 
ATOM     22  C   UNL     1      32.140 -13.067 -21.363  0.00  0.00    +0.000 C 
ENDBRANCH  19  20
ENDBRANCH  16  19
ENDBRANCH  13  16
ENDBRANCH   1  13
TORSDOF 9
ENDMDL
MODEL 2
REMARK VINA RESULT:      -7.6      1.473      2.107
REMARK  Name = 5288373
REMARK  9 active torsions:
REMARK  status: ('A' for Active; 'I' for Inactive)
REMARK    1  A    between atoms: C_1  and  N_2
REMARK    2  A    between atoms: C_1  and  C_6
REMARK    3  A    between atoms: C_1  and  C_13
REMARK    4  A    between atoms: C_6  and  C_7
REMARK    5  A    between atoms: C_13  and  O_14
REMARK    6  A    between atoms: C_13  and  C_16
REMARK    7  A    between atoms: C_16  and  O_17
REMARK    8  A    between atoms: C_16  and  C_19
REMARK    9  A    between atoms: C_19  and  C_20
REMARK                            x       y       z     vdW  Elec       q    Type
REMARK                         _______ _______ _______ _____ _____    ______ ____
ROOT
ATOM      1  C   UNL     1      34.614 -17.786 -22.946  0.00  0.00    -0.036 C 
ENDROOT
BRANCH   1   2
ATOM      2  N   UNL     1      34.535 -18.822 -23.987  0.00  0.00    +0.383 N 
ATOM      3  H   UNL     1      34.342 -19.725 -23.555  0.00  0.00    -0.089 HD
ATOM      4  H   UNL     1      35.423 -18.867 -24.489  0.00  0.00    -0.089 HD
ATOM      5  H   UNL     1      33.788 -18.590 -24.641  0.00  0.00    -0.089 HD
ENDBRANCH   1   2
BRANCH   1   6
ATOM      6  C   UNL     1      35.368 -18.326 -21.718  0.00  0.00    -0.019 C 
BRANCH   6   7
ATOM      7  C   UNL     1      34.921 -19.717 -21.275  0.00  0.00    -0.002 C 
ATOM      8  C   UNL     1      35.937 -20.330 -20.302  0.00  0.00    -0.000 C 
ATOM      9  C   UNL     1      33.523 -19.662 -20.643  0.00  0.00    -0.000 C 
ATOM     10  C   UNL     1      35.485 -21.702 -19.805  0.00  0.00    -0.000 C 
ATOM     11  C   UNL     1      33.075 -21.035 -20.145  0.00  0.00    -0.000 C 
ATOM     12  C   UNL     1      34.092 -21.644 -19.185  0.00  0.00    -0.000 C 
ENDBRANCH   6   7
ENDBRANCH   1   6
BRANCH   1  13
ATOM     13  C   UNL     1      35.282 -16.537 -23.568  0.00  0.00    +0.117 C 
BRANCH  13  14
ATOM     14  O   UNL     1      35.333 -16.733 -24.989  0.00  0.00    -0.384 OA
ATOM     15  H   UNL     1      35.148 -17.663 -25.194  0.00  0.00    +0.210 HD
ENDBRANCH  13  14
BRANCH  13  16
ATOM     16  C   UNL     1      34.577 -15.192 -23.293  0.00  0.00    +0.135 C 
BRANCH  16  17
ATOM     17  O   UNL     1      33.370 -15.191 -24.061  0.00  0.00    -0.382 OA
ATOM     18  H   UNL     1      32.610 -15.068 -23.470  0.00  0.00    +0.210 HD
ENDBRANCH  16  17
BRANCH  16  19
ATOM     19  C   UNL     1      34.241 -14.963 -21.809  0.00  0.00    +0.032 C 
BRANCH  19  20
ATOM     20  C   UNL     1      32.736 -14.852 -21.487  0.00  0.00    +0.002 C 
ATOM     21  C   UNL     1      32.445 -13.490 -20.847  0.00  0.00    +0.000 C 
ATOM     22  C   UNL     1      32.252 -15.968 -20.561  0.00  0.00    +0.000 C 
ENDBRANCH  19  20
ENDBRANCH  16  19
ENDBRANCH  13  16
ENDBRANCH   1  13
TORSDOF 9
ENDMDL
MODEL 3
REMARK VINA RESULT:      -7.4      1.701      2.276
REMARK  Name = 5288373
REMARK  9 active torsions:
REMARK  status: ('A' for Active; 'I' for Inactive)
REMARK    1  A    between atoms: C_1  and  N_2
REMARK    2  A    between atoms: C_1  and  C_6
REMARK    3  A    between atoms: C_1  and  C_13
REMARK    4  A    between atoms: C_6  and  C_7
REMARK    5  A    between atoms: C_13  and  O_14
REMARK    6  A    between atoms: C_13  and  C_16
REMARK    7  A    between atoms: C_16  and  O_17
REMARK    8  A    between atoms: C_16  and  C_19
REMARK    9  A    between atoms: C_19  and  C_20
REMARK                            x       y       z     vdW  Elec       q    Type
REMARK                         _______ _______ _______ _____ _____    ______ ____
ROOT
ATOM      1  C   UNL     1      35.020 -17.600 -21.954  0.00  0.00    -0.036 C 
ENDROOT
BRANCH   1   2
ATOM      2  N   UNL     1      35.285 -17.257 -20.548  0.00  0.00    +0.383 N 
ATOM      3  H   UNL     1      34.400 -17.155 -20.051  0.00  0.00    -0.089 HD
ATOM      4  H   UNL     1      35.804 -16.379 -20.504  0.00  0.00    -0.089 HD
ATOM      5  H   UNL     1      35.835 -17.998 -20.115  0.00  0.00    -0.089 HD
ENDBRANCH   1   2
BRANCH   1   6
ATOM      6  C   UNL     1      34.588 -19.073 -22.068  0.00  0.00    -0.019 C 
BRANCH   6   7
ATOM      7  C   UNL     1      34.475 -19.793 -20.726  0.00  0.00    -0.002 C 
ATOM      8  C   UNL     1      33.112 -20.485 -20.595  0.00  0.00    -0.000 C 
ATOM      9  C   UNL     1      35.619 -20.802 -20.554  0.00  0.00    -0.000 C 
ATOM     10  C   UNL     1      32.995 -21.256 -19.281  0.00  0.00    -0.000 C 
ATOM     11  C   UNL     1      35.498 -21.573 -19.241  0.00  0.00    -0.000 C 
ATOM     12  C   UNL     1      34.138 -22.252 -19.110  0.00  0.00    -0.000 C 
ENDBRANCH   6   7
ENDBRANCH   1   6
BRANCH   1  13
ATOM     13  C   UNL     1      33.959 -16.611 -22.492  0.00  0.00    +0.117 C 
BRANCH  13  14
ATOM     14  O   UNL     1      33.427 -15.891 -21.371  0.00  0.00    -0.384 OA
ATOM     15  H   UNL     1      32.459 -15.965 -21.369  0.00  0.00    +0.210 HD
ENDBRANCH  13  14
BRANCH  13  16
ATOM     16  C   UNL     1      34.462 -15.585 -23.529  0.00  0.00    +0.135 C 
BRANCH  16  17
ATOM     17  O   UNL     1      35.798 -15.963 -23.871  0.00  0.00    -0.382 OA
ATOM     18  H   UNL     1      35.907 -15.930 -24.835  0.00  0.00    +0.210 HD
ENDBRANCH  16  17
BRANCH  16  19
ATOM     19  C   UNL     1      33.603 -15.524 -24.804  0.00  0.00    +0.032 C 
BRANCH  19  20
ATOM     20  C   UNL     1      32.979 -14.146 -25.109  0.00  0.00    +0.002 C 
ATOM     21  C   UNL     1      33.096 -13.847 -26.607  0.00  0.00    +0.000 C 
ATOM     22  C   UNL     1      33.632 -13.018 -24.308  0.00  0.00    +0.000 C 
ENDBRANCH  19  20
ENDBRANCH  16  19
ENDBRANCH  13  16
ENDBRANCH   1  13
TORSDOF 9
ENDMDL
MODEL 4
REMARK VINA RESULT:      -7.2      2.019      6.870
REMARK  Name = 5288373
REMARK  9 active torsions:
REMARK  status: ('A' for Active; 'I' for Inactive)
REMARK    1  A    between atoms: C_1  and  N_2
REMARK    2  A    between atoms: C_1  and  C_6
REMARK    3  A    between atoms: C_1  and  C_13
REMARK    4  A    between atoms: C_6  and  C_7
REMARK    5  A    between atoms: C_13  and  O_14
REMARK    6  A    between atoms: C_13  and  C_16
REMARK    7  A    between atoms: C_16  and  O_17
REMARK    8  A    between atoms: C_16  and  C_19
REMARK    9  A    between atoms: C_19  and  C_20
REMARK                            x       y       z     vdW  Elec       q    Type
REMARK                         _______ _______ _______ _____ _____    ______ ____
ROOT
ATOM      1  C   UNL     1      33.658 -15.596 -22.183  0.00  0.00    -0.036 C 
ENDROOT
BRANCH   1   2
ATOM      2  N   UNL     1      32.766 -15.553 -21.014  0.00  0.00    +0.383 N 
ATOM      3  H   UNL     1      32.837 -16.430 -20.500  0.00  0.00    -0.089 HD
ATOM      4  H   UNL     1      31.804 -15.418 -21.326  0.00  0.00    -0.089 HD
ATOM      5  H   UNL     1      33.037 -14.779 -20.407  0.00  0.00    -0.089 HD
ENDBRANCH   1   2
BRANCH   1   6
ATOM      6  C   UNL     1      33.929 -14.171 -22.696  0.00  0.00    -0.019 C 
BRANCH   6   7
ATOM      7  C   UNL     1      33.301 -13.869 -24.054  0.00  0.00    -0.002 C 
ATOM      8  C   UNL     1      33.935 -12.619 -24.679  0.00  0.00    -0.000 C 
ATOM      9  C   UNL     1      33.431 -15.076 -24.993  0.00  0.00    -0.000 C 
ATOM     10  C   UNL     1      33.357 -12.326 -26.063  0.00  0.00    -0.000 C 
ATOM     11  C   UNL     1      32.855 -14.779 -26.376  0.00  0.00    -0.000 C 
ATOM     12  C   UNL     1      33.482 -13.531 -26.990  0.00  0.00    -0.000 C 
ENDBRANCH   6   7
ENDBRANCH   1   6
BRANCH   1  13
ATOM     13  C   UNL     1      34.946 -16.349 -21.769  0.00  0.00    +0.117 C 
BRANCH  13  14
ATOM     14  O   UNL     1      35.040 -16.296 -20.338  0.00  0.00    -0.384 OA
ATOM     15  H   UNL     1      35.799 -15.748 -20.084  0.00  0.00    +0.210 HD
ENDBRANCH  13  14
BRANCH  13  16
ATOM     16  C   UNL     1      35.028 -17.827 -22.204  0.00  0.00    +0.135 C 
BRANCH  16  17
ATOM     17  O   UNL     1      36.012 -17.901 -23.239  0.00  0.00    -0.382 OA
ATOM     18  H   UNL     1      35.672 -18.439 -23.971  0.00  0.00    +0.210 HD
ENDBRANCH  16  17
BRANCH  16  19
ATOM     19  C   UNL     1      35.410 -18.786 -21.063  0.00  0.00    +0.032 C 
BRANCH  19  20
ATOM     20  C   UNL     1      34.555 -20.068 -20.970  0.00  0.00    +0.002 C 
ATOM     21  C   UNL     1      33.093 -19.693 -20.706  0.00  0.00    +0.000 C 
ATOM     22  C   UNL     1      35.045 -21.021 -19.879  0.00  0.00    +0.000 C 
ENDBRANCH  19  20
ENDBRANCH  16  19
ENDBRANCH  13  16
ENDBRANCH   1  13
TORSDOF 9
ENDMDL
MODEL 5
REMARK VINA RESULT:      -7.2      1.995      7.328
REMARK  Name = 5288373
REMARK  9 active torsions:
REMARK  status: ('A' for Active; 'I' for Inactive)
REMARK    1  A    between atoms: C_1  and  N_2
REMARK    2  A    between atoms: C_1  and  C_6
REMARK    3  A    between atoms: C_1  and  C_13
REMARK    4  A    between atoms: C_6  and  C_7
REMARK    5  A    between atoms: C_13  and  O_14
REMARK    6  A    between atoms: C_13  and  C_16
REMARK    7  A    between atoms: C_16  and  O_17
REMARK    8  A    between atoms: C_16  and  C_19
REMARK    9  A    between atoms: C_19  and  C_20
REMARK                            x       y       z     vdW  Elec       q    Type
REMARK                         _______ _______ _______ _____ _____    ______ ____
ROOT
ATOM      1  C   UNL     1      33.581 -13.935 -22.506  0.00  0.00    -0.036 C 
ENDROOT
BRANCH   1   2
ATOM      2  N   UNL     1      33.198 -14.534 -23.793  0.00  0.00    +0.383 N 
ATOM      3  H   UNL     1      33.887 -15.236 -24.061  0.00  0.00    -0.089 HD
ATOM      4  H   UNL     1      33.158 -13.807 -24.508  0.00  0.00    -0.089 HD
ATOM      5  H   UNL     1      32.281 -14.973 -23.705  0.00  0.00    -0.089 HD
ENDBRANCH   1   2
BRANCH   1   6
ATOM      6  C   UNL     1      32.365 -13.877 -21.565  0.00  0.00    -0.019 C 
BRANCH   6   7
ATOM      7  C   UNL     1      31.712 -12.499 -21.478  0.00  0.00    -0.002 C 
ATOM      8  C   UNL     1      31.818 -11.938 -20.054  0.00  0.00    -0.000 C 
ATOM      9  C   UNL     1      32.340 -11.536 -22.493  0.00  0.00    -0.000 C 
ATOM     10  C   UNL     1      31.217 -10.537 -19.954  0.00  0.00    -0.000 C 
ATOM     11  C   UNL     1      31.739 -10.136 -22.389  0.00  0.00    -0.000 C 
ATOM     12  C   UNL     1      31.838  -9.585 -20.970  0.00  0.00    -0.000 C 
ENDBRANCH   6   7
ENDBRANCH   1   6
BRANCH   1  13
ATOM     13  C   UNL     1      34.756 -14.762 -21.930  0.00  0.00    +0.117 C 
BRANCH  13  14
ATOM     14  O   UNL     1      34.709 -14.649 -20.500  0.00  0.00    -0.384 OA
ATOM     15  H   UNL     1      35.517 -14.215 -20.183  0.00  0.00    +0.210 HD
ENDBRANCH  13  14
BRANCH  13  16
ATOM     16  C   UNL     1      34.764 -16.261 -22.295  0.00  0.00    +0.135 C 
BRANCH  16  17
ATOM     17  O   UNL     1      35.740 -16.431 -23.327  0.00  0.00    -0.382 OA
ATOM     18  H   UNL     1      36.339 -17.157 -23.090  0.00  0.00    +0.210 HD
ENDBRANCH  16  17
BRANCH  16  19
ATOM     19  C   UNL     1      35.102 -17.184 -21.111  0.00  0.00    +0.032 C 
BRANCH  19  20
ATOM     20  C   UNL     1      35.185 -18.686 -21.454  0.00  0.00    +0.002 C 
ATOM     21  C   UNL     1      33.904 -19.390 -20.995  0.00  0.00    +0.000 C 
ATOM     22  C   UNL     1      36.399 -19.366 -20.820  0.00  0.00    +0.000 C 
ENDBRANCH  19  20
ENDBRANCH  16  19
ENDBRANCH  13  16
ENDBRANCH   1  13
TORSDOF 9
ENDMDL
MODEL 6
REMARK VINA RESULT:      -7.1      1.336      6.345
REMARK  Name = 5288373
REMARK  9 active torsions:
REMARK  status: ('A' for Active; 'I' for Inactive)
REMARK    1  A    between atoms: C_1  and  N_2
REMARK    2  A    between atoms: C_1  and  C_6
REMARK    3  A    between atoms: C_1  and  C_13
REMARK    4  A    between atoms: C_6  and  C_7
REMARK    5  A    between atoms: C_13  and  O_14
REMARK    6  A    between atoms: C_13  and  C_16
REMARK    7  A    between atoms: C_16  and  O_17
REMARK    8  A    between atoms: C_16  and  C_19
REMARK    9  A    between atoms: C_19  and  C_20
REMARK                            x       y       z     vdW  Elec       q    Type
REMARK                         _______ _______ _______ _____ _____    ______ ____
ROOT
ATOM      1  C   UNL     1      35.124 -16.248 -22.696  0.00  0.00    -0.036 C 
ENDROOT
BRANCH   1   2
ATOM      2  N   UNL     1      35.445 -16.506 -24.108  0.00  0.00    +0.383 N 
ATOM      3  H   UNL     1      34.803 -15.984 -24.703  0.00  0.00    -0.089 HD
ATOM      4  H   UNL     1      35.354 -17.504 -24.301  0.00  0.00    -0.089 HD
ATOM      5  H   UNL     1      36.403 -16.210 -24.298  0.00  0.00    -0.089 HD
ENDBRANCH   1   2
BRANCH   1   6
ATOM      6  C   UNL     1      33.636 -15.886 -22.548  0.00  0.00    -0.019 C 
BRANCH   6   7
ATOM      7  C   UNL     1      33.386 -14.448 -22.102  0.00  0.00    -0.002 C 
ATOM      8  C   UNL     1      32.717 -13.640 -23.222  0.00  0.00    -0.000 C 
ATOM      9  C   UNL     1      32.538 -14.416 -20.823  0.00  0.00    -0.000 C 
ATOM     10  C   UNL     1      32.410 -12.210 -22.780  0.00  0.00    -0.000 C 
ATOM     11  C   UNL     1      32.231 -12.985 -20.385  0.00  0.00    -0.000 C 
ATOM     12  C   UNL     1      31.574 -12.183 -21.504  0.00  0.00    -0.000 C 
ENDBRANCH   6   7
ENDBRANCH   1   6
BRANCH   1  13
ATOM     13  C   UNL     1      35.529 -17.500 -21.881  0.00  0.00    +0.117 C 
BRANCH  13  14
ATOM     14  O   UNL     1      35.488 -17.147 -20.491  0.00  0.00    -0.384 OA
ATOM     15  H   UNL     1      35.048 -17.853 -19.992  0.00  0.00    +0.210 HD
ENDBRANCH  13  14
BRANCH  13  16
ATOM     16  C   UNL     1      34.647 -18.749 -22.088  0.00  0.00    +0.135 C 
BRANCH  16  17
ATOM     17  O   UNL     1      34.799 -19.142 -23.455  0.00  0.00    -0.382 OA
ATOM     18  H   UNL     1      34.257 -19.928 -23.628  0.00  0.00    +0.210 HD
ENDBRANCH  16  17
BRANCH  16  19
ATOM     19  C   UNL     1      35.018 -19.927 -21.171  0.00  0.00    +0.032 C 
BRANCH  19  20
ATOM     20  C   UNL     1      33.964 -20.283 -20.101  0.00  0.00    +0.002 C 
ATOM     21  C   UNL     1      34.211 -21.704 -19.587  0.00  0.00    +0.000 C 
ATOM     22  C   UNL     1      32.533 -20.169 -20.629  0.00  0.00    +0.000 C 
ENDBRANCH  19  20
ENDBRANCH  16  19
ENDBRANCH  13  16
ENDBRANCH   1  13
TORSDOF 9
ENDMDL
MODEL 7
REMARK VINA RESULT:      -7.1      3.264      7.118
REMARK  Name = 5288373
REMARK  9 active torsions:
REMARK  status: ('A' for Active; 'I' for Inactive)
REMARK    1  A    between atoms: C_1  and  N_2
REMARK    2  A    between atoms: C_1  and  C_6
REMARK    3  A    between atoms: C_1  and  C_13
REMARK    4  A    between atoms: C_6  and  C_7
REMARK    5  A    between atoms: C_13  and  O_14
REMARK    6  A    between atoms: C_13  and  C_16
REMARK    7  A    between atoms: C_16  and  O_17
REMARK    8  A    between atoms: C_16  and  C_19
REMARK    9  A    between atoms: C_19  and  C_20
REMARK                            x       y       z     vdW  Elec       q    Type
REMARK                         _______ _______ _______ _____ _____    ______ ____
ROOT
ATOM      1  C   UNL     1      35.258 -20.450 -19.927  0.00  0.00    -0.036 C 
ENDROOT
BRANCH   1   2
ATOM      2  N   UNL     1      36.657 -20.067 -20.170  0.00  0.00    +0.383 N 
ATOM      3  H   UNL     1      37.202 -20.898 -20.397  0.00  0.00    -0.089 HD
ATOM      4  H   UNL     1      37.039 -19.627 -19.332  0.00  0.00    -0.089 HD
ATOM      5  H   UNL     1      36.699 -19.408 -20.947  0.00  0.00    -0.089 HD
ENDBRANCH   1   2
BRANCH   1   6
ATOM      6  C   UNL     1      34.379 -20.034 -21.120  0.00  0.00    -0.019 C 
BRANCH   6   7
ATOM      7  C   UNL     1      34.934 -18.857 -21.920  0.00  0.00    -0.002 C 
ATOM      8  C   UNL     1      34.617 -19.019 -23.412  0.00  0.00    -0.000 C 
ATOM      9  C   UNL     1      34.381 -17.529 -21.384  0.00  0.00    -0.000 C 
ATOM     10  C   UNL     1      35.117 -17.827 -24.227  0.00  0.00    -0.000 C 
ATOM     11  C   UNL     1      34.881 -16.340 -22.202  0.00  0.00    -0.000 C 
ATOM     12  C   UNL     1      34.572 -16.508 -23.686  0.00  0.00    -0.000 C 
ENDBRANCH   6   7
ENDBRANCH   1   6
BRANCH   1  13
ATOM     13  C   UNL     1      35.225 -21.972 -19.649  0.00  0.00    +0.117 C 
BRANCH  13  14
ATOM     14  O   UNL     1      35.978 -22.213 -18.452  0.00  0.00    -0.384 OA
ATOM     15  H   UNL     1      35.709 -21.579 -17.768  0.00  0.00    +0.210 HD
ENDBRANCH  13  14
BRANCH  13  16
ATOM     16  C   UNL     1      33.822 -22.591 -19.469  0.00  0.00    +0.135 C 
BRANCH  16  17
ATOM     17  O   UNL     1      33.992 -24.011 -19.479  0.00  0.00    -0.382 OA
ATOM     18  H   UNL     1      33.132 -24.439 -19.614  0.00  0.00    +0.210 HD
ENDBRANCH  16  17
BRANCH  16  19
ATOM     19  C   UNL     1      33.121 -22.166 -18.168  0.00  0.00    +0.032 C 
BRANCH  19  20
ATOM     20  C   UNL     1      32.870 -23.305 -17.156  0.00  0.00    +0.002 C 
ATOM     21  C   UNL     1      31.478 -23.145 -16.537  0.00  0.00    +0.000 C 
ATOM     22  C   UNL     1      33.924 -23.347 -16.049  0.00  0.00    +0.000 C 
ENDBRANCH  19  20
ENDBRANCH  16  19
ENDBRANCH  13  16
ENDBRANCH   1  13
TORSDOF 9
ENDMDL
MODEL 8
REMARK VINA RESULT:      -7.1      5.054      7.455
REMARK  Name = 5288373
REMARK  9 active torsions:
REMARK  status: ('A' for Active; 'I' for Inactive)
REMARK    1  A    between atoms: C_1  and  N_2
REMARK    2  A    between atoms: C_1  and  C_6
REMARK    3  A    between atoms: C_1  and  C_13
REMARK    4  A    between atoms: C_6  and  C_7
REMARK    5  A    between atoms: C_13  and  O_14
REMARK    6  A    between atoms: C_13  and  C_16
REMARK    7  A    between atoms: C_16  and  O_17
REMARK    8  A    between atoms: C_16  and  C_19
REMARK    9  A    between atoms: C_19  and  C_20
REMARK                            x       y       z     vdW  Elec       q    Type
REMARK                         _______ _______ _______ _____ _____    ______ ____
ROOT
ATOM      1  C   UNL     1      31.663 -11.128 -21.488  0.00  0.00    -0.036 C 
ENDROOT
BRANCH   1   2
ATOM      2  N   UNL     1      30.237 -11.486 -21.444  0.00  0.00    +0.383 N 
ATOM      3  H   UNL     1      29.684 -10.732 -21.851  0.00  0.00    -0.089 HD
ATOM      4  H   UNL     1      29.953 -11.632 -20.474  0.00  0.00    -0.089 HD
ATOM      5  H   UNL     1      30.085 -12.345 -21.974  0.00  0.00    -0.089 HD
ENDBRANCH   1   2
BRANCH   1   6
ATOM      6  C   UNL     1      32.360 -11.870 -22.642  0.00  0.00    -0.019 C 
BRANCH   6   7
ATOM      7  C   UNL     1      32.663 -13.337 -22.345  0.00  0.00    -0.002 C 
ATOM      8  C   UNL     1      34.003 -13.751 -22.967  0.00  0.00    -0.000 C 
ATOM      9  C   UNL     1      32.659 -13.597 -20.833  0.00  0.00    -0.000 C 
ATOM     10  C   UNL     1      34.353 -15.201 -22.640  0.00  0.00    -0.000 C 
ATOM     11  C   UNL     1      33.011 -15.047 -20.508  0.00  0.00    -0.000 C 
ATOM     12  C   UNL     1      34.340 -15.457 -21.136  0.00  0.00    -0.000 C 
ENDBRANCH   6   7
ENDBRANCH   1   6
BRANCH   1  13
ATOM     13  C   UNL     1      31.762  -9.588 -21.608  0.00  0.00    +0.117 C 
BRANCH  13  14
ATOM     14  O   UNL     1      32.480  -9.107 -20.462  0.00  0.00    -0.384 OA
ATOM     15  H   UNL     1      32.951  -9.845 -20.043  0.00  0.00    +0.210 HD
ENDBRANCH  13  14
BRANCH  13  16
ATOM     16  C   UNL     1      32.465  -9.058 -22.875  0.00  0.00    +0.135 C 
BRANCH  16  17
ATOM     17  O   UNL     1      31.442  -8.534 -23.727  0.00  0.00    -0.382 OA
ATOM     18  H   UNL     1      31.137  -7.681 -23.380  0.00  0.00    +0.210 HD
ENDBRANCH  16  17
BRANCH  16  19
ATOM     19  C   UNL     1      33.507  -7.963 -22.591  0.00  0.00    +0.032 C 
BRANCH  19  20
ATOM     20  C   UNL     1      34.705  -7.931 -23.563  0.00  0.00    +0.002 C 
ATOM     21  C   UNL     1      34.494  -6.827 -24.605  0.00  0.00    +0.000 C 
ATOM     22  C   UNL     1      34.923  -9.270 -24.270  0.00  0.00    +0.000 C 
ENDBRANCH  19  20
ENDBRANCH  16  19
ENDBRANCH  13  16
ENDBRANCH   1  13
TORSDOF 9
ENDMDL
MODEL 9
REMARK VINA RESULT:      -7.1      7.592     11.049
REMARK  Name = 5288373
REMARK  9 active torsions:
REMARK  status: ('A' for Active; 'I' for Inactive)
REMARK    1  A    between atoms: C_1  and  N_2
REMARK    2  A    between atoms: C_1  and  C_6
REMARK    3  A    between atoms: C_1  and  C_13
REMARK    4  A    between atoms: C_6  and  C_7
REMARK    5  A    between atoms: C_13  and  O_14
REMARK    6  A    between atoms: C_13  and  C_16
REMARK    7  A    between atoms: C_16  and  O_17
REMARK    8  A    between atoms: C_16  and  C_19
REMARK    9  A    between atoms: C_19  and  C_20
REMARK                            x       y       z     vdW  Elec       q    Type
REMARK                         _______ _______ _______ _____ _____    ______ ____
ROOT
ATOM      1  C   UNL     1      35.237 -24.580 -14.171  0.00  0.00    -0.036 C 
ENDROOT
BRANCH   1   2
ATOM      2  N   UNL     1      33.833 -24.983 -13.998  0.00  0.00    +0.383 N 
ATOM      3  H   UNL     1      33.721 -25.956 -14.283  0.00  0.00    -0.089 HD
ATOM      4  H   UNL     1      33.235 -24.389 -14.574  0.00  0.00    -0.089 HD
ATOM      5  H   UNL     1      33.568 -24.882 -13.018  0.00  0.00    -0.089 HD
ENDBRANCH   1   2
BRANCH   1   6
ATOM      6  C   UNL     1      35.311 -23.156 -14.751  0.00  0.00    -0.019 C 
BRANCH   6   7
ATOM      7  C   UNL     1      35.434 -23.110 -16.272  0.00  0.00    -0.002 C 
ATOM      8  C   UNL     1      34.051 -22.988 -16.925  0.00  0.00    -0.000 C 
ATOM      9  C   UNL     1      36.347 -21.955 -16.708  0.00  0.00    -0.000 C 
ATOM     10  C   UNL     1      34.152 -22.888 -18.446  0.00  0.00    -0.000 C 
ATOM     11  C   UNL     1      36.445 -21.856 -18.229  0.00  0.00    -0.000 C 
ATOM     12  C   UNL     1      35.067 -21.745 -18.875  0.00  0.00    -0.000 C 
ENDBRANCH   6   7
ENDBRANCH   1   6
BRANCH   1  13
ATOM     13  C   UNL     1      35.941 -24.716 -12.801  0.00  0.00    +0.117 C 
BRANCH  13  14
ATOM     14  O   UNL     1      34.932 -24.979 -11.816  0.00  0.00    -0.384 OA
ATOM     15  H   UNL     1      34.064 -24.726 -12.167  0.00  0.00    +0.210 HD
ENDBRANCH  13  14
BRANCH  13  16
ATOM     16  C   UNL     1      37.011 -25.824 -12.703  0.00  0.00    +0.135 C 
BRANCH  16  17
ATOM     17  O   UNL     1      36.681 -26.806 -13.689  0.00  0.00    -0.382 OA
ATOM     18  H   UNL     1      36.646 -26.388 -14.564  0.00  0.00    +0.210 HD
ENDBRANCH  16  17
BRANCH  16  19
ATOM     19  C   UNL     1      38.445 -25.322 -12.939  0.00  0.00    +0.032 C 
BRANCH  19  20
ATOM     20  C   UNL     1      38.997 -25.556 -14.362  0.00  0.00    +0.002 C 
ATOM     21  C   UNL     1      40.476 -25.946 -14.283  0.00  0.00    +0.000 C 
ATOM     22  C   UNL     1      38.836 -24.330 -15.261  0.00  0.00    +0.000 C 
ENDBRANCH  19  20
ENDBRANCH  16  19
ENDBRANCH  13  16
ENDBRANCH   1  13
TORSDOF 9
ENDMDL
