MODEL 1
REMARK VINA RESULT:      -6.6      0.000      0.000
REMARK  Name = 9815689
REMARK  9 active torsions:
REMARK  status: ('A' for Active; 'I' for Inactive)
REMARK    1  A    between atoms: C_1  and  O_3
REMARK    2  A    between atoms: C_1  and  C_10
REMARK    3  A    between atoms: O_3  and  C_5
REMARK    4  A    between atoms: C_5  and  C_6
REMARK    5  A    between atoms: C_6  and  C_9
REMARK    6  A    between atoms: C_10  and  C_11
REMARK    7  A    between atoms: C_11  and  C_12
REMARK    8  A    between atoms: C_12  and  C_13
REMARK    9  A    between atoms: C_13  and  C_14
REMARK                            x       y       z     vdW  Elec       q    Type
REMARK                         _______ _______ _______ _____ _____    ______ ____
ROOT
ATOM      1  C   UNL     1      35.732 -18.572 -21.712  0.00  0.00    +0.169 C 
ATOM      2  C   UNL     1      34.968 -17.433 -21.053  0.00  0.00    +0.047 C 
ENDROOT
BRANCH   1   3
ATOM      3  O   UNL     1      35.004 -19.782 -21.525  0.00  0.00    -0.449 OA
BRANCH   3   5
ATOM      4  O   UNL     1      36.216 -20.439 -19.681  0.00  0.00    -0.244 OA
ATOM      5  C   UNL     1      35.176 -20.402 -20.322  0.00  0.00    +0.351 C 
BRANCH   5   6
ATOM      6  C   UNL     1      33.898 -21.038 -19.894  0.00  0.00    +0.144 C 
ATOM      7  C   UNL     1      32.763 -20.357 -20.101  0.00  0.00    +0.018 C 
BRANCH   6   9
ATOM      8  N   UNL     1      33.829 -23.371 -18.782  0.00  0.00    -0.191 NA
ATOM      9  C   UNL     1      33.859 -22.324 -19.283  0.00  0.00    +0.107 C 
ENDBRANCH   6   9
ENDBRANCH   5   6
ENDBRANCH   3   5
ENDBRANCH   1   3
BRANCH   1  10
ATOM     10  C   UNL     1      35.917 -18.322 -23.212  0.00  0.00    +0.044 C 
BRANCH  10  11
ATOM     11  C   UNL     1      34.903 -19.103 -24.057  0.00  0.00    +0.004 C 
BRANCH  11  12
ATOM     12  C   UNL     1      34.225 -18.196 -25.086  0.00  0.00    +0.000 C 
BRANCH  12  13
ATOM     13  C   UNL     1      34.810 -16.781 -25.128  0.00  0.00    +0.000 C 
BRANCH  13  14
ATOM     14  C   UNL     1      33.796 -15.693 -24.771  0.00  0.00    +0.000 C 
ATOM     15  C   UNL     1      34.264 -14.868 -23.583  0.00  0.00    +0.000 C 
ENDBRANCH  13  14
ENDBRANCH  12  13
ENDBRANCH  11  12
ENDBRANCH  10  11
ENDBRANCH   1  10
TORSDOF 9
ENDMDL
MODEL 2
REMARK VINA RESULT:      -6.6      3.316      6.243
REMARK  Name = 9815689
REMARK  9 active torsions:
REMARK  status: ('A' for Active; 'I' for Inactive)
REMARK    1  A    between atoms: C_1  and  O_3
REMARK    2  A    between atoms: C_1  and  C_10
REMARK    3  A    between atoms: O_3  and  C_5
REMARK    4  A    between atoms: C_5  and  C_6
REMARK    5  A    between atoms: C_6  and  C_9
REMARK    6  A    between atoms: C_10  and  C_11
REMARK    7  A    between atoms: C_11  and  C_12
REMARK    8  A    between atoms: C_12  and  C_13
REMARK    9  A    between atoms: C_13  and  C_14
REMARK                            x       y       z     vdW  Elec       q    Type
REMARK                         _______ _______ _______ _____ _____    ______ ____
ROOT
ATOM      1  C   UNL     1      35.548 -17.933 -21.547  0.00  0.00    +0.169 C 
ATOM      2  C   UNL     1      36.591 -18.910 -21.026  0.00  0.00    +0.047 C 
ENDROOT
BRANCH   1   3
ATOM      3  O   UNL     1      35.590 -17.932 -22.971  0.00  0.00    -0.449 OA
BRANCH   3   5
ATOM      4  O   UNL     1      35.254 -15.662 -23.161  0.00  0.00    -0.244 OA
ATOM      5  C   UNL     1      35.124 -16.803 -23.581  0.00  0.00    +0.351 C 
BRANCH   5   6
ATOM      6  C   UNL     1      34.425 -17.163 -24.846  0.00  0.00    +0.144 C 
ATOM      7  C   UNL     1      34.359 -18.460 -25.175  0.00  0.00    +0.018 C 
BRANCH   6   9
ATOM      8  N   UNL     1      33.363 -15.376 -26.383  0.00  0.00    -0.191 NA
ATOM      9  C   UNL     1      33.840 -16.180 -25.694  0.00  0.00    +0.107 C 
ENDBRANCH   6   9
ENDBRANCH   5   6
ENDBRANCH   3   5
ENDBRANCH   1   3
BRANCH   1  10
ATOM     10  C   UNL     1      34.140 -18.326 -21.086  0.00  0.00    +0.044 C 
BRANCH  10  11
ATOM     11  C   UNL     1      33.846 -19.811 -21.330  0.00  0.00    +0.004 C 
BRANCH  11  12
ATOM     12  C   UNL     1      32.881 -20.363 -20.279  0.00  0.00    +0.000 C 
BRANCH  12  13
ATOM     13  C   UNL     1      33.509 -21.428 -19.375  0.00  0.00    +0.000 C 
BRANCH  13  14
ATOM     14  C   UNL     1      34.940 -21.794 -19.771  0.00  0.00    +0.000 C 
ATOM     15  C   UNL     1      35.871 -21.765 -18.570  0.00  0.00    +0.000 C 
ENDBRANCH  13  14
ENDBRANCH  12  13
ENDBRANCH  11  12
ENDBRANCH  10  11
ENDBRANCH   1  10
TORSDOF 9
ENDMDL
MODEL 3
REMARK VINA RESULT:      -6.4      1.827      2.800
REMARK  Name = 9815689
REMARK  9 active torsions:
REMARK  status: ('A' for Active; 'I' for Inactive)
REMARK    1  A    between atoms: C_1  and  O_3
REMARK    2  A    between atoms: C_1  and  C_10
REMARK    3  A    between atoms: O_3  and  C_5
REMARK    4  A    between atoms: C_5  and  C_6
REMARK    5  A    between atoms: C_6  and  C_9
REMARK    6  A    between atoms: C_10  and  C_11
REMARK    7  A    between atoms: C_11  and  C_12
REMARK    8  A    between atoms: C_12  and  C_13
REMARK    9  A    between atoms: C_13  and  C_14
REMARK                            x       y       z     vdW  Elec       q    Type
REMARK                         _______ _______ _______ _____ _____    ______ ____
ROOT
ATOM      1  C   UNL     1      34.227 -19.430 -21.015  0.00  0.00    +0.169 C 
ATOM      2  C   UNL     1      32.794 -19.868 -20.750  0.00  0.00    +0.047 C 
ENDROOT
BRANCH   1   3
ATOM      3  O   UNL     1      35.076 -20.572 -20.955  0.00  0.00    -0.449 OA
BRANCH   3   5
ATOM      4  O   UNL     1      36.998 -19.751 -19.990  0.00  0.00    -0.244 OA
ATOM      5  C   UNL     1      36.061 -20.535 -20.011  0.00  0.00    +0.351 C 
BRANCH   5   6
ATOM      6  C   UNL     1      35.829 -21.602 -18.997  0.00  0.00    +0.144 C 
ATOM      7  C   UNL     1      36.680 -21.676 -17.965  0.00  0.00    +0.018 C 
BRANCH   6   9
ATOM      8  N   UNL     1      33.867 -23.274 -19.188  0.00  0.00    -0.191 NA
ATOM      9  C   UNL     1      34.748 -22.523 -19.101  0.00  0.00    +0.107 C 
ENDBRANCH   6   9
ENDBRANCH   5   6
ENDBRANCH   3   5
ENDBRANCH   1   3
BRANCH   1  10
ATOM     10  C   UNL     1      34.360 -18.776 -22.394  0.00  0.00    +0.044 C 
BRANCH  10  11
ATOM     11  C   UNL     1      35.052 -17.409 -22.320  0.00  0.00    +0.004 C 
BRANCH  11  12
ATOM     12  C   UNL     1      35.076 -16.879 -20.885  0.00  0.00    +0.000 C 
BRANCH  12  13
ATOM     13  C   UNL     1      34.404 -15.511 -20.730  0.00  0.00    +0.000 C 
BRANCH  13  14
ATOM     14  C   UNL     1      32.903 -15.535 -21.020  0.00  0.00    +0.000 C 
ATOM     15  C   UNL     1      32.439 -14.231 -21.648  0.00  0.00    +0.000 C 
ENDBRANCH  13  14
ENDBRANCH  12  13
ENDBRANCH  11  12
ENDBRANCH  10  11
ENDBRANCH   1  10
TORSDOF 9
ENDMDL
MODEL 4
REMARK VINA RESULT:      -6.3      5.180      7.377
REMARK  Name = 9815689
REMARK  9 active torsions:
REMARK  status: ('A' for Active; 'I' for Inactive)
REMARK    1  A    between atoms: C_1  and  O_3
REMARK    2  A    between atoms: C_1  and  C_10
REMARK    3  A    between atoms: O_3  and  C_5
REMARK    4  A    between atoms: C_5  and  C_6
REMARK    5  A    between atoms: C_6  and  C_9
REMARK    6  A    between atoms: C_10  and  C_11
REMARK    7  A    between atoms: C_11  and  C_12
REMARK    8  A    between atoms: C_12  and  C_13
REMARK    9  A    between atoms: C_13  and  C_14
REMARK                            x       y       z     vdW  Elec       q    Type
REMARK                         _______ _______ _______ _____ _____    ______ ____
ROOT
ATOM      1  C   UNL     1      36.054 -22.816 -15.937  0.00  0.00    +0.169 C 
ATOM      2  C   UNL     1      34.588 -23.164 -16.147  0.00  0.00    +0.047 C 
ENDROOT
BRANCH   1   3
ATOM      3  O   UNL     1      36.784 -24.017 -15.711  0.00  0.00    -0.449 OA
BRANCH   3   5
ATOM      4  O   UNL     1      37.684 -23.133 -13.785  0.00  0.00    -0.244 OA
ATOM      5  C   UNL     1      37.610 -24.019 -14.625  0.00  0.00    +0.351 C 
BRANCH   5   6
ATOM      6  C   UNL     1      38.421 -25.269 -14.608  0.00  0.00    +0.144 C 
ATOM      7  C   UNL     1      37.767 -26.437 -14.582  0.00  0.00    +0.018 C 
BRANCH   6   9
ATOM      8  N   UNL     1      41.006 -25.231 -14.628  0.00  0.00    -0.191 NA
ATOM      9  C   UNL     1      39.845 -25.247 -14.618  0.00  0.00    +0.107 C 
ENDBRANCH   6   9
ENDBRANCH   5   6
ENDBRANCH   3   5
ENDBRANCH   1   3
BRANCH   1  10
ATOM     10  C   UNL     1      36.633 -22.096 -17.159  0.00  0.00    +0.044 C 
BRANCH  10  11
ATOM     11  C   UNL     1      35.616 -21.988 -18.302  0.00  0.00    +0.004 C 
BRANCH  11  12
ATOM     12  C   UNL     1      36.225 -21.289 -19.520  0.00  0.00    +0.000 C 
BRANCH  12  13
ATOM     13  C   UNL     1      35.202 -20.505 -20.347  0.00  0.00    +0.000 C 
BRANCH  13  14
ATOM     14  C   UNL     1      33.753 -20.898 -20.053  0.00  0.00    +0.000 C 
ATOM     15  C   UNL     1      32.780 -19.849 -20.566  0.00  0.00    +0.000 C 
ENDBRANCH  13  14
ENDBRANCH  12  13
ENDBRANCH  11  12
ENDBRANCH  10  11
ENDBRANCH   1  10
TORSDOF 9
ENDMDL
MODEL 5
REMARK VINA RESULT:      -6.3      3.412      6.414
REMARK  Name = 9815689
REMARK  9 active torsions:
REMARK  status: ('A' for Active; 'I' for Inactive)
REMARK    1  A    between atoms: C_1  and  O_3
REMARK    2  A    between atoms: C_1  and  C_10
REMARK    3  A    between atoms: O_3  and  C_5
REMARK    4  A    between atoms: C_5  and  C_6
REMARK    5  A    between atoms: C_6  and  C_9
REMARK    6  A    between atoms: C_10  and  C_11
REMARK    7  A    between atoms: C_11  and  C_12
REMARK    8  A    between atoms: C_12  and  C_13
REMARK    9  A    between atoms: C_13  and  C_14
REMARK                            x       y       z     vdW  Elec       q    Type
REMARK                         _______ _______ _______ _____ _____    ______ ____
ROOT
ATOM      1  C   UNL     1      34.328 -16.106 -21.916  0.00  0.00    +0.169 C 
ATOM      2  C   UNL     1      34.499 -15.459 -20.550  0.00  0.00    +0.047 C 
ENDROOT
BRANCH   1   3
ATOM      3  O   UNL     1      34.546 -15.121 -22.922  0.00  0.00    -0.449 OA
BRANCH   3   5
ATOM      4  O   UNL     1      32.547 -13.981 -23.015  0.00  0.00    -0.244 OA
ATOM      5  C   UNL     1      33.428 -14.645 -23.543  0.00  0.00    +0.351 C 
BRANCH   5   6
ATOM      6  C   UNL     1      33.433 -15.055 -24.976  0.00  0.00    +0.144 C 
ATOM      7  C   UNL     1      32.774 -14.282 -25.849  0.00  0.00    +0.018 C 
BRANCH   6   9
ATOM      8  N   UNL     1      34.655 -17.183 -25.790  0.00  0.00    -0.191 NA
ATOM      9  C   UNL     1      34.107 -16.227 -25.425  0.00  0.00    +0.107 C 
ENDBRANCH   6   9
ENDBRANCH   5   6
ENDBRANCH   3   5
ENDBRANCH   1   3
BRANCH   1  10
ATOM     10  C   UNL     1      35.321 -17.256 -22.114  0.00  0.00    +0.044 C 
BRANCH  10  11
ATOM     11  C   UNL     1      34.613 -18.589 -22.388  0.00  0.00    +0.004 C 
BRANCH  11  12
ATOM     12  C   UNL     1      34.671 -19.506 -21.165  0.00  0.00    +0.000 C 
BRANCH  12  13
ATOM     13  C   UNL     1      33.292 -19.843 -20.590  0.00  0.00    +0.000 C 
BRANCH  13  14
ATOM     14  C   UNL     1      33.260 -21.165 -19.823  0.00  0.00    +0.000 C 
ATOM     15  C   UNL     1      34.654 -21.588 -19.388  0.00  0.00    +0.000 C 
ENDBRANCH  13  14
ENDBRANCH  12  13
ENDBRANCH  11  12
ENDBRANCH  10  11
ENDBRANCH   1  10
TORSDOF 9
ENDMDL
MODEL 6
REMARK VINA RESULT:      -6.3      3.690      6.659
REMARK  Name = 9815689
REMARK  9 active torsions:
REMARK  status: ('A' for Active; 'I' for Inactive)
REMARK    1  A    between atoms: C_1  and  O_3
REMARK    2  A    between atoms: C_1  and  C_10
REMARK    3  A    between atoms: O_3  and  C_5
REMARK    4  A    between atoms: C_5  and  C_6
REMARK    5  A    between atoms: C_6  and  C_9
REMARK    6  A    between atoms: C_10  and  C_11
REMARK    7  A    between atoms: C_11  and  C_12
REMARK    8  A    between atoms: C_12  and  C_13
REMARK    9  A    between atoms: C_13  and  C_14
REMARK                            x       y       z     vdW  Elec       q    Type
REMARK                         _______ _______ _______ _____ _____    ______ ____
ROOT
ATOM      1  C   UNL     1      34.647 -16.895 -22.699  0.00  0.00    +0.169 C 
ATOM      2  C   UNL     1      34.697 -16.037 -21.443  0.00  0.00    +0.047 C 
ENDROOT
BRANCH   1   3
ATOM      3  O   UNL     1      35.032 -16.098 -23.816  0.00  0.00    -0.449 OA
BRANCH   3   5
ATOM      4  O   UNL     1      34.253 -17.272 -25.637  0.00  0.00    -0.244 OA
ATOM      5  C   UNL     1      34.291 -16.262 -24.950  0.00  0.00    +0.351 C 
BRANCH   5   6
ATOM      6  C   UNL     1      33.525 -15.016 -25.237  0.00  0.00    +0.144 C 
ATOM      7  C   UNL     1      32.804 -14.973 -26.365  0.00  0.00    +0.018 C 
BRANCH   6   9
ATOM      8  N   UNL     1      33.562 -12.985 -23.637  0.00  0.00    -0.191 NA
ATOM      9  C   UNL     1      33.544 -13.897 -24.356  0.00  0.00    +0.107 C 
ENDBRANCH   6   9
ENDBRANCH   5   6
ENDBRANCH   3   5
ENDBRANCH   1   3
BRANCH   1  10
ATOM     10  C   UNL     1      35.590 -18.097 -22.588  0.00  0.00    +0.044 C 
BRANCH  10  11
ATOM     11  C   UNL     1      34.828 -19.412 -22.380  0.00  0.00    +0.004 C 
BRANCH  11  12
ATOM     12  C   UNL     1      34.763 -19.783 -20.897  0.00  0.00    +0.000 C 
BRANCH  12  13
ATOM     13  C   UNL     1      33.362 -20.195 -20.433  0.00  0.00    +0.000 C 
BRANCH  13  14
ATOM     14  C   UNL     1      33.361 -21.419 -19.517  0.00  0.00    +0.000 C 
ATOM     15  C   UNL     1      34.775 -21.915 -19.253  0.00  0.00    +0.000 C 
ENDBRANCH  13  14
ENDBRANCH  12  13
ENDBRANCH  11  12
ENDBRANCH  10  11
ENDBRANCH   1  10
TORSDOF 9
ENDMDL
MODEL 7
REMARK VINA RESULT:      -6.3      3.814      6.281
REMARK  Name = 9815689
REMARK  9 active torsions:
REMARK  status: ('A' for Active; 'I' for Inactive)
REMARK    1  A    between atoms: C_1  and  O_3
REMARK    2  A    between atoms: C_1  and  C_10
REMARK    3  A    between atoms: O_3  and  C_5
REMARK    4  A    between atoms: C_5  and  C_6
REMARK    5  A    between atoms: C_6  and  C_9
REMARK    6  A    between atoms: C_10  and  C_11
REMARK    7  A    between atoms: C_11  and  C_12
REMARK    8  A    between atoms: C_12  and  C_13
REMARK    9  A    between atoms: C_13  and  C_14
REMARK                            x       y       z     vdW  Elec       q    Type
REMARK                         _______ _______ _______ _____ _____    ______ ____
ROOT
ATOM      1  C   UNL     1      34.970 -16.909 -23.711  0.00  0.00    +0.169 C 
ATOM      2  C   UNL     1      34.625 -17.473 -25.082  0.00  0.00    +0.047 C 
ENDROOT
BRANCH   1   3
ATOM      3  O   UNL     1      33.786 -16.384 -23.118  0.00  0.00    -0.449 OA
BRANCH   3   5
ATOM      4  O   UNL     1      34.391 -14.208 -23.567  0.00  0.00    -0.244 OA
ATOM      5  C   UNL     1      33.768 -15.034 -22.916  0.00  0.00    +0.351 C 
BRANCH   5   6
ATOM      6  C   UNL     1      32.871 -14.707 -21.773  0.00  0.00    +0.144 C 
ATOM      7  C   UNL     1      32.629 -15.670 -20.873  0.00  0.00    +0.018 C 
BRANCH   6   9
ATOM      8  N   UNL     1      31.792 -12.373 -21.496  0.00  0.00    -0.191 NA
ATOM      9  C   UNL     1      32.277 -13.421 -21.620  0.00  0.00    +0.107 C 
ENDBRANCH   6   9
ENDBRANCH   5   6
ENDBRANCH   3   5
ENDBRANCH   1   3
BRANCH   1  10
ATOM     10  C   UNL     1      35.554 -17.991 -22.797  0.00  0.00    +0.044 C 
BRANCH  10  11
ATOM     11  C   UNL     1      34.538 -19.098 -22.491  0.00  0.00    +0.004 C 
BRANCH  11  12
ATOM     12  C   UNL     1      34.254 -19.187 -20.990  0.00  0.00    +0.000 C 
BRANCH  12  13
ATOM     13  C   UNL     1      33.018 -20.026 -20.653  0.00  0.00    +0.000 C 
BRANCH  13  14
ATOM     14  C   UNL     1      33.295 -21.133 -19.634  0.00  0.00    +0.000 C 
ATOM     15  C   UNL     1      34.774 -21.481 -19.583  0.00  0.00    +0.000 C 
ENDBRANCH  13  14
ENDBRANCH  12  13
ENDBRANCH  11  12
ENDBRANCH  10  11
ENDBRANCH   1  10
TORSDOF 9
ENDMDL
MODEL 8
REMARK VINA RESULT:      -6.3      1.249      2.584
REMARK  Name = 9815689
REMARK  9 active torsions:
REMARK  status: ('A' for Active; 'I' for Inactive)
REMARK    1  A    between atoms: C_1  and  O_3
REMARK    2  A    between atoms: C_1  and  C_10
REMARK    3  A    between atoms: O_3  and  C_5
REMARK    4  A    between atoms: C_5  and  C_6
REMARK    5  A    between atoms: C_6  and  C_9
REMARK    6  A    between atoms: C_10  and  C_11
REMARK    7  A    between atoms: C_11  and  C_12
REMARK    8  A    between atoms: C_12  and  C_13
REMARK    9  A    between atoms: C_13  and  C_14
REMARK                            x       y       z     vdW  Elec       q    Type
REMARK                         _______ _______ _______ _____ _____    ______ ____
ROOT
ATOM      1  C   UNL     1      34.329 -18.333 -21.481  0.00  0.00    +0.169 C 
ATOM      2  C   UNL     1      34.896 -18.685 -22.848  0.00  0.00    +0.047 C 
ENDROOT
BRANCH   1   3
ATOM      3  O   UNL     1      34.799 -19.283 -20.529  0.00  0.00    -0.449 OA
BRANCH   3   5
ATOM      4  O   UNL     1      32.787 -20.403 -20.562  0.00  0.00    -0.244 OA
ATOM      5  C   UNL     1      33.978 -20.349 -20.296  0.00  0.00    +0.351 C 
BRANCH   5   6
ATOM      6  C   UNL     1      34.752 -21.452 -19.660  0.00  0.00    +0.144 C 
ATOM      7  C   UNL     1      36.088 -21.361 -19.666  0.00  0.00    +0.018 C 
BRANCH   6   9
ATOM      8  N   UNL     1      33.595 -23.491 -18.570  0.00  0.00    -0.191 NA
ATOM      9  C   UNL     1      34.114 -22.576 -19.061  0.00  0.00    +0.107 C 
ENDBRANCH   6   9
ENDBRANCH   5   6
ENDBRANCH   3   5
ENDBRANCH   1   3
BRANCH   1  10
ATOM     10  C   UNL     1      34.762 -16.929 -21.046  0.00  0.00    +0.044 C 
BRANCH  10  11
ATOM     11  C   UNL     1      33.596 -15.932 -21.069  0.00  0.00    +0.004 C 
BRANCH  11  12
ATOM     12  C   UNL     1      33.975 -14.657 -21.826  0.00  0.00    +0.000 C 
BRANCH  12  13
ATOM     13  C   UNL     1      34.574 -14.926 -23.209  0.00  0.00    +0.000 C 
BRANCH  13  14
ATOM     14  C   UNL     1      33.528 -14.996 -24.322  0.00  0.00    +0.000 C 
ATOM     15  C   UNL     1      33.871 -16.073 -25.338  0.00  0.00    +0.000 C 
ENDBRANCH  13  14
ENDBRANCH  12  13
ENDBRANCH  11  12
ENDBRANCH  10  11
ENDBRANCH   1  10
TORSDOF 9
ENDMDL
MODEL 9
REMARK VINA RESULT:      -6.3      1.803      3.069
REMARK  Name = 9815689
REMARK  9 active torsions:
REMARK  status: ('A' for Active; 'I' for Inactive)
REMARK    1  A    between atoms: C_1  and  O_3
REMARK    2  A    between atoms: C_1  and  C_10
REMARK    3  A    between atoms: O_3  and  C_5
REMARK    4  A    between atoms: C_5  and  C_6
REMARK    5  A    between atoms: C_6  and  C_9
REMARK    6  A    between atoms: C_10  and  C_11
REMARK    7  A    between atoms: C_11  and  C_12
REMARK    8  A    between atoms: C_12  and  C_13
REMARK    9  A    between atoms: C_13  and  C_14
REMARK                            x       y       z     vdW  Elec       q    Type
REMARK                         _______ _______ _______ _____ _____    ______ ____
ROOT
ATOM      1  C   UNL     1      34.233 -18.722 -21.677  0.00  0.00    +0.169 C 
ATOM      2  C   UNL     1      35.405 -18.631 -22.644  0.00  0.00    +0.047 C 
ENDROOT
BRANCH   1   3
ATOM      3  O   UNL     1      34.641 -19.457 -20.527  0.00  0.00    -0.449 OA
BRANCH   3   5
ATOM      4  O   UNL     1      32.669 -20.642 -20.435  0.00  0.00    -0.244 OA
ATOM      5  C   UNL     1      33.863 -20.528 -20.196  0.00  0.00    +0.351 C 
BRANCH   5   6
ATOM      6  C   UNL     1      34.684 -21.551 -19.489  0.00  0.00    +0.144 C 
ATOM      7  C   UNL     1      36.010 -21.369 -19.452  0.00  0.00    +0.018 C 
BRANCH   6   9
ATOM      8  N   UNL     1      33.623 -23.622 -18.362  0.00  0.00    -0.191 NA
ATOM      9  C   UNL     1      34.101 -22.692 -18.867  0.00  0.00    +0.107 C 
ENDBRANCH   6   9
ENDBRANCH   5   6
ENDBRANCH   3   5
ENDBRANCH   1   3
BRANCH   1  10
ATOM     10  C   UNL     1      33.762 -17.330 -21.244  0.00  0.00    +0.044 C 
BRANCH  10  11
ATOM     11  C   UNL     1      34.936 -16.395 -20.928  0.00  0.00    +0.004 C 
BRANCH  11  12
ATOM     12  C   UNL     1      34.450 -14.971 -20.654  0.00  0.00    +0.000 C 
BRANCH  12  13
ATOM     13  C   UNL     1      32.925 -14.855 -20.564  0.00  0.00    +0.000 C 
BRANCH  13  14
ATOM     14  C   UNL     1      32.345 -13.767 -21.470  0.00  0.00    +0.000 C 
ATOM     15  C   UNL     1      32.823 -13.928 -22.904  0.00  0.00    +0.000 C 
ENDBRANCH  13  14
ENDBRANCH  12  13
ENDBRANCH  11  12
ENDBRANCH  10  11
ENDBRANCH   1  10
TORSDOF 9
ENDMDL
