MODEL 1
REMARK VINA RESULT:      -9.0      0.000      0.000
REMARK  Name = 15593907
REMARK  14 active torsions:
REMARK  status: ('A' for Active; 'I' for Inactive)
REMARK    1  A    between atoms: C_1  and  C_2
REMARK    2  A    between atoms: C_1  and  C_18
REMARK    3  A    between atoms: C_2  and  C_3
REMARK    4  A    between atoms: C_2  and  C_13
REMARK    5  A    between atoms: C_2  and  C_17
REMARK    6  A    between atoms: C_6  and  O_9
REMARK    7  A    between atoms: C_8  and  O_11
REMARK    8  A    between atoms: C_18  and  C_19
REMARK    9  A    between atoms: C_19  and  N_20
REMARK   10  A    between atoms: N_20  and  C_23
REMARK   11  A    between atoms: C_23  and  C_24
REMARK   12  A    between atoms: C_24  and  C_25
REMARK   13  A    between atoms: C_28  and  O_31
REMARK   14  A    between atoms: C_30  and  O_33
REMARK                            x       y       z     vdW  Elec       q    Type
REMARK                         _______ _______ _______ _____ _____    ______ ____
ROOT
ATOM      1  C   UNL     1      34.546 -19.293 -22.903  0.00  0.00    +0.016 C 
ENDROOT
BRANCH   1   2
ATOM      2  C   UNL     1      35.209 -18.975 -21.513  0.00  0.00    +0.098 C 
BRANCH   2   3
ATOM      3  C   UNL     1      34.932 -20.138 -20.530  0.00  0.00    -0.006 C 
ATOM      4  C   UNL     1      35.975 -20.681 -19.780  0.00  0.00    +0.037 C 
ATOM      5  C   UNL     1      33.638 -20.642 -20.394  0.00  0.00    +0.000 C 
ATOM      6  C   UNL     1      35.725 -21.729 -18.894  0.00  0.00    +0.172 C 
ATOM      7  C   UNL     1      33.389 -21.691 -19.508  0.00  0.00    +0.040 C 
ATOM      8  C   UNL     1      34.432 -22.233 -18.759  0.00  0.00    +0.172 C 
BRANCH   6   9
ATOM      9  O   UNL     1      36.752 -22.251 -18.166  0.00  0.00    -0.468 OA
ATOM     10  C   UNL     1      37.057 -21.615 -16.927  0.00  0.00    +0.253 C 
ENDBRANCH   6   9
BRANCH   8  11
ATOM     11  O   UNL     1      34.174 -23.256 -17.896  0.00  0.00    -0.468 OA
ATOM     12  C   UNL     1      32.929 -23.221 -17.201  0.00  0.00    +0.253 C 
ENDBRANCH   8  11
ENDBRANCH   2   3
BRANCH   2  13
ATOM     13  C   UNL     1      34.599 -17.637 -20.915  0.00  0.00    +0.017 C 
ATOM     14  C   UNL     1      33.069 -17.530 -21.038  0.00  0.00    +0.001 C 
ATOM     15  C   UNL     1      35.226 -16.364 -21.517  0.00  0.00    +0.001 C 
ENDBRANCH   2  13
BRANCH   2  17
ATOM     16  N   UNL     1      37.798 -18.608 -21.957  0.00  0.00    -0.196 NA
ATOM     17  C   UNL     1      36.663 -18.759 -21.766  0.00  0.00    +0.075 C 
ENDBRANCH   2  17
ENDBRANCH   1   2
BRANCH   1  18
ATOM     18  C   UNL     1      35.197 -18.595 -24.115  0.00  0.00    -0.022 C 
BRANCH  18  19
ATOM     19  C   UNL     1      34.202 -17.750 -24.917  0.00  0.00    -0.082 C 
BRANCH  19  20
ATOM     20  N   UNL     1      34.739 -16.434 -25.239  0.00  0.00    +0.384 N 
ATOM     21  H   UNL     1      35.115 -16.448 -26.187  0.00  0.00    -0.085 HD
ATOM     22  H   UNL     1      35.475 -16.210 -24.568  0.00  0.00    -0.085 HD
BRANCH  20  23
ATOM     23  C   UNL     1      33.704 -15.415 -25.151  0.00  0.00    -0.077 C 
BRANCH  23  24
ATOM     24  C   UNL     1      33.426 -15.040 -23.694  0.00  0.00    +0.003 C 
BRANCH  24  25
ATOM     25  C   UNL     1      33.150 -13.565 -23.546  0.00  0.00    -0.021 C 
ATOM     26  C   UNL     1      32.254 -13.117 -22.575  0.00  0.00    +0.036 C 
ATOM     27  C   UNL     1      33.790 -12.647 -24.379  0.00  0.00    -0.001 C 
ATOM     28  C   UNL     1      31.999 -11.752 -22.438  0.00  0.00    +0.172 C 
ATOM     29  C   UNL     1      33.535 -11.282 -24.243  0.00  0.00    +0.040 C 
ATOM     30  C   UNL     1      32.639 -10.835 -23.272  0.00  0.00    +0.172 C 
BRANCH  28  31
ATOM     31  O   UNL     1      31.121 -11.327 -21.487  0.00  0.00    -0.468 OA
ATOM     32  C   UNL     1      31.522 -11.468 -20.126  0.00  0.00    +0.253 C 
ENDBRANCH  28  31
BRANCH  30  33
ATOM     33  O   UNL     1      32.398  -9.500 -23.148  0.00  0.00    -0.468 OA
ATOM     34  C   UNL     1      33.513  -8.667 -22.842  0.00  0.00    +0.253 C 
ENDBRANCH  30  33
ENDBRANCH  24  25
ENDBRANCH  23  24
ENDBRANCH  20  23
ENDBRANCH  19  20
ENDBRANCH  18  19
ENDBRANCH   1  18
TORSDOF 14
ENDMDL
MODEL 2
REMARK VINA RESULT:      -8.7      3.549      7.396
REMARK  Name = 15593907
REMARK  14 active torsions:
REMARK  status: ('A' for Active; 'I' for Inactive)
REMARK    1  A    between atoms: C_1  and  C_2
REMARK    2  A    between atoms: C_1  and  C_18
REMARK    3  A    between atoms: C_2  and  C_3
REMARK    4  A    between atoms: C_2  and  C_13
REMARK    5  A    between atoms: C_2  and  C_17
REMARK    6  A    between atoms: C_6  and  O_9
REMARK    7  A    between atoms: C_8  and  O_11
REMARK    8  A    between atoms: C_18  and  C_19
REMARK    9  A    between atoms: C_19  and  N_20
REMARK   10  A    between atoms: N_20  and  C_23
REMARK   11  A    between atoms: C_23  and  C_24
REMARK   12  A    between atoms: C_24  and  C_25
REMARK   13  A    between atoms: C_28  and  O_31
REMARK   14  A    between atoms: C_30  and  O_33
REMARK                            x       y       z     vdW  Elec       q    Type
REMARK                         _______ _______ _______ _____ _____    ______ ____
ROOT
ATOM      1  C   UNL     1      36.591 -22.447 -15.052  0.00  0.00    +0.016 C 
ENDROOT
BRANCH   1   2
ATOM      2  C   UNL     1      35.882 -23.685 -14.393  0.00  0.00    +0.098 C 
BRANCH   2   3
ATOM      3  C   UNL     1      34.363 -23.624 -14.679  0.00  0.00    -0.006 C 
ATOM      4  C   UNL     1      33.905 -23.228 -15.936  0.00  0.00    +0.037 C 
ATOM      5  C   UNL     1      33.451 -23.966 -13.680  0.00  0.00    +0.000 C 
ATOM      6  C   UNL     1      32.535 -23.172 -16.194  0.00  0.00    +0.172 C 
ATOM      7  C   UNL     1      32.080 -23.909 -13.939  0.00  0.00    +0.040 C 
ATOM      8  C   UNL     1      31.624 -23.513 -15.195  0.00  0.00    +0.172 C 
BRANCH   6   9
ATOM      9  O   UNL     1      32.100 -22.784 -17.426  0.00  0.00    -0.468 OA
ATOM     10  C   UNL     1      33.095 -22.544 -18.418  0.00  0.00    +0.253 C 
ENDBRANCH   6   9
BRANCH   8  11
ATOM     11  O   UNL     1      30.283 -23.464 -15.434  0.00  0.00    -0.468 OA
ATOM     12  C   UNL     1      29.545 -24.668 -15.241  0.00  0.00    +0.253 C 
ENDBRANCH   8  11
ENDBRANCH   2   3
BRANCH   2  13
ATOM     13  C   UNL     1      36.112 -23.669 -12.822  0.00  0.00    +0.017 C 
ATOM     14  C   UNL     1      37.304 -22.808 -12.367  0.00  0.00    +0.001 C 
ATOM     15  C   UNL     1      36.271 -25.078 -12.217  0.00  0.00    +0.001 C 
ENDBRANCH   2  13
BRANCH   2  17
ATOM     16  N   UNL     1      37.024 -25.857 -15.399  0.00  0.00    -0.196 NA
ATOM     17  C   UNL     1      36.532 -24.905 -14.952  0.00  0.00    +0.075 C 
ENDBRANCH   2  17
ENDBRANCH   1   2
BRANCH   1  18
ATOM     18  C   UNL     1      37.070 -22.661 -16.503  0.00  0.00    -0.022 C 
BRANCH  18  19
ATOM     19  C   UNL     1      36.951 -21.396 -17.359  0.00  0.00    -0.082 C 
BRANCH  19  20
ATOM     20  N   UNL     1      36.475 -21.691 -18.704  0.00  0.00    +0.384 N 
ATOM     21  H   UNL     1      35.525 -22.059 -18.649  0.00  0.00    -0.085 HD
ATOM     22  H   UNL     1      37.098 -22.379 -19.127  0.00  0.00    -0.085 HD
BRANCH  20  23
ATOM     23  C   UNL     1      36.475 -20.492 -19.530  0.00  0.00    -0.077 C 
BRANCH  23  24
ATOM     24  C   UNL     1      35.319 -20.516 -20.531  0.00  0.00    +0.003 C 
BRANCH  24  25
ATOM     25  C   UNL     1      35.267 -19.248 -21.346  0.00  0.00    -0.021 C 
ATOM     26  C   UNL     1      35.144 -18.014 -20.708  0.00  0.00    +0.036 C 
ATOM     27  C   UNL     1      35.342 -19.309 -22.737  0.00  0.00    -0.001 C 
ATOM     28  C   UNL     1      35.096 -16.840 -21.462  0.00  0.00    +0.172 C 
ATOM     29  C   UNL     1      35.293 -18.136 -23.491  0.00  0.00    +0.040 C 
ATOM     30  C   UNL     1      35.170 -16.902 -22.853  0.00  0.00    +0.172 C 
BRANCH  28  31
ATOM     31  O   UNL     1      34.975 -15.641 -20.827  0.00  0.00    -0.468 OA
ATOM     32  C   UNL     1      33.653 -15.169 -20.580  0.00  0.00    +0.253 C 
ENDBRANCH  28  31
BRANCH  30  33
ATOM     33  O   UNL     1      35.124 -15.763 -23.600  0.00  0.00    -0.468 OA
ATOM     34  C   UNL     1      33.952 -15.549 -24.382  0.00  0.00    +0.253 C 
ENDBRANCH  30  33
ENDBRANCH  24  25
ENDBRANCH  23  24
ENDBRANCH  20  23
ENDBRANCH  19  20
ENDBRANCH  18  19
ENDBRANCH   1  18
TORSDOF 14
ENDMDL
MODEL 3
REMARK VINA RESULT:      -8.5      3.551      7.270
REMARK  Name = 15593907
REMARK  14 active torsions:
REMARK  status: ('A' for Active; 'I' for Inactive)
REMARK    1  A    between atoms: C_1  and  C_2
REMARK    2  A    between atoms: C_1  and  C_18
REMARK    3  A    between atoms: C_2  and  C_3
REMARK    4  A    between atoms: C_2  and  C_13
REMARK    5  A    between atoms: C_2  and  C_17
REMARK    6  A    between atoms: C_6  and  O_9
REMARK    7  A    between atoms: C_8  and  O_11
REMARK    8  A    between atoms: C_18  and  C_19
REMARK    9  A    between atoms: C_19  and  N_20
REMARK   10  A    between atoms: N_20  and  C_23
REMARK   11  A    between atoms: C_23  and  C_24
REMARK   12  A    between atoms: C_24  and  C_25
REMARK   13  A    between atoms: C_28  and  O_31
REMARK   14  A    between atoms: C_30  and  O_33
REMARK                            x       y       z     vdW  Elec       q    Type
REMARK                         _______ _______ _______ _____ _____    ______ ____
ROOT
ATOM      1  C   UNL     1      36.425 -22.369 -15.359  0.00  0.00    +0.016 C 
ENDROOT
BRANCH   1   2
ATOM      2  C   UNL     1      35.513 -23.515 -14.786  0.00  0.00    +0.098 C 
BRANCH   2   3
ATOM      3  C   UNL     1      34.071 -23.343 -15.319  0.00  0.00    -0.006 C 
ATOM      4  C   UNL     1      33.000 -23.273 -14.427  0.00  0.00    +0.037 C 
ATOM      5  C   UNL     1      33.841 -23.256 -16.692  0.00  0.00    +0.000 C 
ATOM      6  C   UNL     1      31.700 -23.119 -14.908  0.00  0.00    +0.172 C 
ATOM      7  C   UNL     1      32.540 -23.102 -17.172  0.00  0.00    +0.040 C 
ATOM      8  C   UNL     1      31.471 -23.032 -16.280  0.00  0.00    +0.172 C 
BRANCH   6   9
ATOM      9  O   UNL     1      30.663 -23.052 -14.026  0.00  0.00    -0.468 OA
ATOM     10  C   UNL     1      30.583 -24.079 -13.042  0.00  0.00    +0.253 C 
ENDBRANCH   6   9
BRANCH   8  11
ATOM     11  O   UNL     1      30.205 -22.881 -16.763  0.00  0.00    -0.468 OA
ATOM     12  C   UNL     1      29.279 -23.931 -16.495  0.00  0.00    +0.253 C 
ENDBRANCH   8  11
ENDBRANCH   2   3
BRANCH   2  13
ATOM     13  C   UNL     1      35.490 -23.445 -13.200  0.00  0.00    +0.017 C 
ATOM     14  C   UNL     1      36.822 -23.007 -12.567  0.00  0.00    +0.001 C 
ATOM     15  C   UNL     1      35.050 -24.768 -12.541  0.00  0.00    +0.001 C 
ENDBRANCH   2  13
BRANCH   2  17
ATOM     16  N   UNL     1      36.633 -25.805 -15.517  0.00  0.00    -0.196 NA
ATOM     17  C   UNL     1      36.135 -24.808 -15.192  0.00  0.00    +0.075 C 
ENDBRANCH   2  17
ENDBRANCH   1   2
BRANCH   1  18
ATOM     18  C   UNL     1      36.965 -22.612 -16.784  0.00  0.00    -0.022 C 
BRANCH  18  19
ATOM     19  C   UNL     1      36.848 -21.376 -17.681  0.00  0.00    -0.082 C 
BRANCH  19  20
ATOM     20  N   UNL     1      36.353 -21.711 -19.010  0.00  0.00    +0.384 N 
ATOM     21  H   UNL     1      35.398 -22.062 -18.932  0.00  0.00    -0.085 HD
ATOM     22  H   UNL     1      36.961 -22.424 -19.414  0.00  0.00    -0.085 HD
BRANCH  20  23
ATOM     23  C   UNL     1      36.364 -20.544 -19.879  0.00  0.00    -0.077 C 
BRANCH  23  24
ATOM     24  C   UNL     1      35.007 -20.353 -20.559  0.00  0.00    +0.003 C 
BRANCH  24  25
ATOM     25  C   UNL     1      35.005 -19.144 -21.459  0.00  0.00    -0.021 C 
ATOM     26  C   UNL     1      34.888 -17.867 -20.911  0.00  0.00    +0.036 C 
ATOM     27  C   UNL     1      35.119 -19.302 -22.840  0.00  0.00    -0.001 C 
ATOM     28  C   UNL     1      34.887 -16.747 -21.744  0.00  0.00    +0.172 C 
ATOM     29  C   UNL     1      35.117 -18.183 -23.674  0.00  0.00    +0.040 C 
ATOM     30  C   UNL     1      35.001 -16.905 -23.126  0.00  0.00    +0.172 C 
BRANCH  28  31
ATOM     31  O   UNL     1      34.771 -15.505 -21.197  0.00  0.00    -0.468 OA
ATOM     32  C   UNL     1      33.475 -15.109 -20.754  0.00  0.00    +0.253 C 
ENDBRANCH  28  31
BRANCH  30  33
ATOM     33  O   UNL     1      35.000 -15.820 -23.949  0.00  0.00    -0.468 OA
ATOM     34  C   UNL     1      33.795 -15.549 -24.660  0.00  0.00    +0.253 C 
ENDBRANCH  30  33
ENDBRANCH  24  25
ENDBRANCH  23  24
ENDBRANCH  20  23
ENDBRANCH  19  20
ENDBRANCH  18  19
ENDBRANCH   1  18
TORSDOF 14
ENDMDL
MODEL 4
REMARK VINA RESULT:      -8.5      3.761     12.071
REMARK  Name = 15593907
REMARK  14 active torsions:
REMARK  status: ('A' for Active; 'I' for Inactive)
REMARK    1  A    between atoms: C_1  and  C_2
REMARK    2  A    between atoms: C_1  and  C_18
REMARK    3  A    between atoms: C_2  and  C_3
REMARK    4  A    between atoms: C_2  and  C_13
REMARK    5  A    between atoms: C_2  and  C_17
REMARK    6  A    between atoms: C_6  and  O_9
REMARK    7  A    between atoms: C_8  and  O_11
REMARK    8  A    between atoms: C_18  and  C_19
REMARK    9  A    between atoms: C_19  and  N_20
REMARK   10  A    between atoms: N_20  and  C_23
REMARK   11  A    between atoms: C_23  and  C_24
REMARK   12  A    between atoms: C_24  and  C_25
REMARK   13  A    between atoms: C_28  and  O_31
REMARK   14  A    between atoms: C_30  and  O_33
REMARK                            x       y       z     vdW  Elec       q    Type
REMARK                         _______ _______ _______ _____ _____    ______ ____
ROOT
ATOM      1  C   UNL     1      31.504  -9.593 -22.948  0.00  0.00    +0.016 C 
ENDROOT
BRANCH   1   2
ATOM      2  C   UNL     1      32.466  -8.506 -22.344  0.00  0.00    +0.098 C 
BRANCH   2   3
ATOM      3  C   UNL     1      31.988  -7.098 -22.772  0.00  0.00    -0.006 C 
ATOM      4  C   UNL     1      32.165  -6.670 -24.087  0.00  0.00    +0.037 C 
ATOM      5  C   UNL     1      31.378  -6.258 -21.840  0.00  0.00    +0.000 C 
ATOM      6  C   UNL     1      31.734  -5.400 -24.471  0.00  0.00    +0.172 C 
ATOM      7  C   UNL     1      30.947  -4.987 -22.226  0.00  0.00    +0.040 C 
ATOM      8  C   UNL     1      31.124  -4.560 -23.541  0.00  0.00    +0.172 C 
BRANCH   6   9
ATOM      9  O   UNL     1      31.913  -4.993 -25.760  0.00  0.00    -0.468 OA
ATOM     10  C   UNL     1      33.228  -5.104 -26.297  0.00  0.00    +0.253 C 
ENDBRANCH   6   9
BRANCH   8  11
ATOM     11  O   UNL     1      30.698  -3.317 -23.904  0.00  0.00    -0.468 OA
ATOM     12  C   UNL     1      31.549  -2.220 -23.581  0.00  0.00    +0.253 C 
ENDBRANCH   8  11
ENDBRANCH   2   3
BRANCH   2  13
ATOM     13  C   UNL     1      33.944  -8.734 -22.879  0.00  0.00    +0.017 C 
ATOM     14  C   UNL     1      34.684  -7.440 -23.261  0.00  0.00    +0.001 C 
ATOM     15  C   UNL     1      34.013  -9.705 -24.074  0.00  0.00    +0.001 C 
ENDBRANCH   2  13
BRANCH   2  17
ATOM     16  N   UNL     1      32.476  -8.862 -19.716  0.00  0.00    -0.196 NA
ATOM     17  C   UNL     1      32.464  -8.699 -20.866  0.00  0.00    +0.075 C 
ENDBRANCH   2  17
ENDBRANCH   1   2
BRANCH   1  18
ATOM     18  C   UNL     1      31.037 -10.679 -21.956  0.00  0.00    -0.022 C 
BRANCH  18  19
ATOM     19  C   UNL     1      32.077 -11.786 -21.756  0.00  0.00    -0.082 C 
BRANCH  19  20
ATOM     20  N   UNL     1      31.701 -13.017 -22.438  0.00  0.00    +0.384 N 
ATOM     21  H   UNL     1      30.738 -12.937 -22.765  0.00  0.00    -0.085 HD
ATOM     22  H   UNL     1      31.790 -13.794 -21.782  0.00  0.00    -0.085 HD
BRANCH  20  23
ATOM     23  C   UNL     1      32.572 -13.268 -23.576  0.00  0.00    -0.077 C 
BRANCH  23  24
ATOM     24  C   UNL     1      34.033 -13.373 -23.136  0.00  0.00    +0.003 C 
BRANCH  24  25
ATOM     25  C   UNL     1      34.341 -14.733 -22.561  0.00  0.00    -0.021 C 
ATOM     26  C   UNL     1      34.481 -15.833 -23.408  0.00  0.00    +0.036 C 
ATOM     27  C   UNL     1      34.487 -14.892 -21.183  0.00  0.00    -0.001 C 
ATOM     28  C   UNL     1      34.766 -17.091 -22.876  0.00  0.00    +0.172 C 
ATOM     29  C   UNL     1      34.772 -16.150 -20.651  0.00  0.00    +0.040 C 
ATOM     30  C   UNL     1      34.911 -17.249 -21.497  0.00  0.00    +0.172 C 
BRANCH  28  31
ATOM     31  O   UNL     1      34.899 -18.157 -23.713  0.00  0.00    -0.468 OA
ATOM     32  C   UNL     1      34.624 -17.935 -25.094  0.00  0.00    +0.253 C 
ENDBRANCH  28  31
BRANCH  30  33
ATOM     33  O   UNL     1      35.190 -18.473 -20.966  0.00  0.00    -0.468 OA
ATOM     34  C   UNL     1      34.094 -19.368 -20.794  0.00  0.00    +0.253 C 
ENDBRANCH  30  33
ENDBRANCH  24  25
ENDBRANCH  23  24
ENDBRANCH  20  23
ENDBRANCH  19  20
ENDBRANCH  18  19
ENDBRANCH   1  18
TORSDOF 14
ENDMDL
MODEL 5
REMARK VINA RESULT:      -8.3      2.488     10.355
REMARK  Name = 15593907
REMARK  14 active torsions:
REMARK  status: ('A' for Active; 'I' for Inactive)
REMARK    1  A    between atoms: C_1  and  C_2
REMARK    2  A    between atoms: C_1  and  C_18
REMARK    3  A    between atoms: C_2  and  C_3
REMARK    4  A    between atoms: C_2  and  C_13
REMARK    5  A    between atoms: C_2  and  C_17
REMARK    6  A    between atoms: C_6  and  O_9
REMARK    7  A    between atoms: C_8  and  O_11
REMARK    8  A    between atoms: C_18  and  C_19
REMARK    9  A    between atoms: C_19  and  N_20
REMARK   10  A    between atoms: N_20  and  C_23
REMARK   11  A    between atoms: C_23  and  C_24
REMARK   12  A    between atoms: C_24  and  C_25
REMARK   13  A    between atoms: C_28  and  O_31
REMARK   14  A    between atoms: C_30  and  O_33
REMARK                            x       y       z     vdW  Elec       q    Type
REMARK                         _______ _______ _______ _____ _____    ______ ____
ROOT
ATOM      1  C   UNL     1      33.416 -18.337 -22.092  0.00  0.00    +0.016 C 
ENDROOT
BRANCH   1   2
ATOM      2  C   UNL     1      34.539 -17.290 -22.431  0.00  0.00    +0.098 C 
BRANCH   2   3
ATOM      3  C   UNL     1      34.045 -16.347 -23.554  0.00  0.00    -0.006 C 
ATOM      4  C   UNL     1      33.567 -15.075 -23.238  0.00  0.00    +0.037 C 
ATOM      5  C   UNL     1      34.079 -16.770 -24.883  0.00  0.00    +0.000 C 
ATOM      6  C   UNL     1      33.121 -14.226 -24.251  0.00  0.00    +0.172 C 
ATOM      7  C   UNL     1      33.632 -15.919 -25.896  0.00  0.00    +0.040 C 
ATOM      8  C   UNL     1      33.155 -14.648 -25.579  0.00  0.00    +0.172 C 
BRANCH   6   9
ATOM      9  O   UNL     1      32.657 -12.986 -23.930  0.00  0.00    -0.468 OA
ATOM     10  C   UNL     1      33.626 -11.954 -23.764  0.00  0.00    +0.253 C 
ENDBRANCH   6   9
BRANCH   8  11
ATOM     11  O   UNL     1      32.723 -13.828 -26.578  0.00  0.00    -0.468 OA
ATOM     12  C   UNL     1      33.722 -13.164 -27.349  0.00  0.00    +0.253 C 
ENDBRANCH   8  11
ENDBRANCH   2   3
BRANCH   2  13
ATOM     13  C   UNL     1      35.847 -18.041 -22.925  0.00  0.00    +0.017 C 
ATOM     14  C   UNL     1      35.577 -19.236 -23.856  0.00  0.00    +0.001 C 
ATOM     15  C   UNL     1      36.745 -18.519 -21.767  0.00  0.00    +0.001 C 
ENDBRANCH   2  13
BRANCH   2  17
ATOM     16  N   UNL     1      35.121 -16.020 -20.177  0.00  0.00    -0.196 NA
ATOM     17  C   UNL     1      34.857 -16.571 -21.164  0.00  0.00    +0.075 C 
ENDBRANCH   2  17
ENDBRANCH   1   2
BRANCH   1  18
ATOM     18  C   UNL     1      33.531 -18.995 -20.702  0.00  0.00    -0.022 C 
BRANCH  18  19
ATOM     19  C   UNL     1      33.135 -20.475 -20.711  0.00  0.00    -0.082 C 
BRANCH  19  20
ATOM     20  N   UNL     1      32.702 -20.932 -19.397  0.00  0.00    +0.384 N 
ATOM     21  H   UNL     1      31.710 -21.166 -19.434  0.00  0.00    -0.085 HD
ATOM     22  H   UNL     1      32.866 -20.184 -18.722  0.00  0.00    -0.085 HD
BRANCH  20  23
ATOM     23  C   UNL     1      33.455 -22.106 -18.981  0.00  0.00    -0.077 C 
BRANCH  23  24
ATOM     24  C   UNL     1      34.959 -21.828 -18.998  0.00  0.00    +0.003 C 
BRANCH  24  25
ATOM     25  C   UNL     1      35.611 -22.237 -17.701  0.00  0.00    -0.021 C 
ATOM     26  C   UNL     1      34.896 -22.985 -16.766  0.00  0.00    +0.036 C 
ATOM     27  C   UNL     1      36.930 -21.867 -17.436  0.00  0.00    -0.001 C 
ATOM     28  C   UNL     1      35.500 -23.364 -15.566  0.00  0.00    +0.172 C 
ATOM     29  C   UNL     1      37.534 -22.245 -16.237  0.00  0.00    +0.040 C 
ATOM     30  C   UNL     1      36.819 -22.993 -15.302  0.00  0.00    +0.172 C 
BRANCH  28  31
ATOM     31  O   UNL     1      34.791 -24.094 -14.661  0.00  0.00    -0.468 OA
ATOM     32  C   UNL     1      33.443 -23.696 -14.420  0.00  0.00    +0.253 C 
ENDBRANCH  28  31
BRANCH  30  33
ATOM     33  O   UNL     1      37.419 -23.357 -14.134  0.00  0.00    -0.468 OA
ATOM     34  C   UNL     1      38.201 -24.548 -14.152  0.00  0.00    +0.253 C 
ENDBRANCH  30  33
ENDBRANCH  24  25
ENDBRANCH  23  24
ENDBRANCH  20  23
ENDBRANCH  19  20
ENDBRANCH  18  19
ENDBRANCH   1  18
TORSDOF 14
ENDMDL
MODEL 6
REMARK VINA RESULT:      -8.3      4.159     12.681
REMARK  Name = 15593907
REMARK  14 active torsions:
REMARK  status: ('A' for Active; 'I' for Inactive)
REMARK    1  A    between atoms: C_1  and  C_2
REMARK    2  A    between atoms: C_1  and  C_18
REMARK    3  A    between atoms: C_2  and  C_3
REMARK    4  A    between atoms: C_2  and  C_13
REMARK    5  A    between atoms: C_2  and  C_17
REMARK    6  A    between atoms: C_6  and  O_9
REMARK    7  A    between atoms: C_8  and  O_11
REMARK    8  A    between atoms: C_18  and  C_19
REMARK    9  A    between atoms: C_19  and  N_20
REMARK   10  A    between atoms: N_20  and  C_23
REMARK   11  A    between atoms: C_23  and  C_24
REMARK   12  A    between atoms: C_24  and  C_25
REMARK   13  A    between atoms: C_28  and  O_31
REMARK   14  A    between atoms: C_30  and  O_33
REMARK                            x       y       z     vdW  Elec       q    Type
REMARK                         _______ _______ _______ _____ _____    ______ ____
ROOT
ATOM      1  C   UNL     1      33.436  -8.468 -22.874  0.00  0.00    +0.016 C 
ENDROOT
BRANCH   1   2
ATOM      2  C   UNL     1      32.463  -7.279 -23.207  0.00  0.00    +0.098 C 
BRANCH   2   3
ATOM      3  C   UNL     1      33.028  -6.465 -24.395  0.00  0.00    -0.006 C 
ATOM      4  C   UNL     1      32.231  -5.512 -25.030  0.00  0.00    +0.037 C 
ATOM      5  C   UNL     1      34.335  -6.684 -24.830  0.00  0.00    +0.000 C 
ATOM      6  C   UNL     1      32.741  -4.779 -26.102  0.00  0.00    +0.172 C 
ATOM      7  C   UNL     1      34.844  -5.950 -25.902  0.00  0.00    +0.040 C 
ATOM      8  C   UNL     1      34.048  -4.998 -26.537  0.00  0.00    +0.172 C 
BRANCH   6   9
ATOM      9  O   UNL     1      31.953  -3.851 -26.714  0.00  0.00    -0.468 OA
ATOM     10  C   UNL     1      31.563  -2.720 -25.938  0.00  0.00    +0.253 C 
ENDBRANCH   6   9
BRANCH   8  11
ATOM     11  O   UNL     1      34.558  -4.288 -27.582  0.00  0.00    -0.468 OA
ATOM     12  C   UNL     1      35.919  -4.533 -27.930  0.00  0.00    +0.253 C 
ENDBRANCH   8  11
ENDBRANCH   2   3
BRANCH   2  13
ATOM     13  C   UNL     1      32.325  -6.324 -21.945  0.00  0.00    +0.017 C 
ATOM     14  C   UNL     1      32.582  -7.018 -20.596  0.00  0.00    +0.001 C 
ATOM     15  C   UNL     1      30.962  -5.609 -21.873  0.00  0.00    +0.001 C 
ENDBRANCH   2  13
BRANCH   2  17
ATOM     16  N   UNL     1      30.093  -8.360 -23.705  0.00  0.00    -0.196 NA
ATOM     17  C   UNL     1      31.128  -7.878 -23.493  0.00  0.00    +0.075 C 
ENDBRANCH   2  17
ENDBRANCH   1   2
BRANCH   1  18
ATOM     18  C   UNL     1      32.880  -9.875 -23.181  0.00  0.00    -0.022 C 
BRANCH  18  19
ATOM     19  C   UNL     1      33.632 -10.575 -24.317  0.00  0.00    -0.082 C 
BRANCH  19  20
ATOM     20  N   UNL     1      34.257 -11.815 -23.875  0.00  0.00    +0.384 N 
ATOM     21  H   UNL     1      34.543 -11.716 -22.900  0.00  0.00    -0.085 HD
ATOM     22  H   UNL     1      35.068 -12.000 -24.466  0.00  0.00    -0.085 HD
BRANCH  20  23
ATOM     23  C   UNL     1      33.332 -12.933 -23.990  0.00  0.00    -0.077 C 
BRANCH  23  24
ATOM     24  C   UNL     1      32.947 -13.470 -22.611  0.00  0.00    +0.003 C 
BRANCH  24  25
ATOM     25  C   UNL     1      33.713 -14.724 -22.272  0.00  0.00    -0.021 C 
ATOM     26  C   UNL     1      34.131 -15.582 -23.289  0.00  0.00    +0.036 C 
ATOM     27  C   UNL     1      34.005 -15.025 -20.942  0.00  0.00    -0.001 C 
ATOM     28  C   UNL     1      34.841 -16.742 -22.975  0.00  0.00    +0.172 C 
ATOM     29  C   UNL     1      34.714 -16.185 -20.627  0.00  0.00    +0.040 C 
ATOM     30  C   UNL     1      35.132 -17.044 -21.644  0.00  0.00    +0.172 C 
BRANCH  28  31
ATOM     31  O   UNL     1      35.242 -17.573 -23.977  0.00  0.00    -0.468 OA
ATOM     32  C   UNL     1      34.520 -17.505 -25.204  0.00  0.00    +0.253 C 
ENDBRANCH  28  31
BRANCH  30  33
ATOM     33  O   UNL     1      35.823 -18.173 -21.325  0.00  0.00    -0.468 OA
ATOM     34  C   UNL     1      35.058 -19.328 -20.993  0.00  0.00    +0.253 C 
ENDBRANCH  30  33
ENDBRANCH  24  25
ENDBRANCH  23  24
ENDBRANCH  20  23
ENDBRANCH  19  20
ENDBRANCH  18  19
ENDBRANCH   1  18
TORSDOF 14
ENDMDL
MODEL 7
REMARK VINA RESULT:      -8.3      1.478      9.578
REMARK  Name = 15593907
REMARK  14 active torsions:
REMARK  status: ('A' for Active; 'I' for Inactive)
REMARK    1  A    between atoms: C_1  and  C_2
REMARK    2  A    between atoms: C_1  and  C_18
REMARK    3  A    between atoms: C_2  and  C_3
REMARK    4  A    between atoms: C_2  and  C_13
REMARK    5  A    between atoms: C_2  and  C_17
REMARK    6  A    between atoms: C_6  and  O_9
REMARK    7  A    between atoms: C_8  and  O_11
REMARK    8  A    between atoms: C_18  and  C_19
REMARK    9  A    between atoms: C_19  and  N_20
REMARK   10  A    between atoms: N_20  and  C_23
REMARK   11  A    between atoms: C_23  and  C_24
REMARK   12  A    between atoms: C_24  and  C_25
REMARK   13  A    between atoms: C_28  and  O_31
REMARK   14  A    between atoms: C_30  and  O_33
REMARK                            x       y       z     vdW  Elec       q    Type
REMARK                         _______ _______ _______ _____ _____    ______ ____
ROOT
ATOM      1  C   UNL     1      33.429 -15.670 -23.521  0.00  0.00    +0.016 C 
ENDROOT
BRANCH   1   2
ATOM      2  C   UNL     1      33.337 -14.968 -22.117  0.00  0.00    +0.098 C 
BRANCH   2   3
ATOM      3  C   UNL     1      32.917 -13.491 -22.304  0.00  0.00    -0.006 C 
ATOM      4  C   UNL     1      32.031 -12.897 -21.405  0.00  0.00    +0.037 C 
ATOM      5  C   UNL     1      33.427 -12.752 -23.372  0.00  0.00    +0.000 C 
ATOM      6  C   UNL     1      31.653 -11.566 -21.575  0.00  0.00    +0.172 C 
ATOM      7  C   UNL     1      33.048 -11.419 -23.541  0.00  0.00    +0.040 C 
ATOM      8  C   UNL     1      32.162 -10.827 -22.642  0.00  0.00    +0.172 C 
BRANCH   6   9
ATOM      9  O   UNL     1      30.787 -10.997 -20.690  0.00  0.00    -0.468 OA
ATOM     10  C   UNL     1      31.230 -10.870 -19.341  0.00  0.00    +0.253 C 
ENDBRANCH   6   9
BRANCH   8  11
ATOM     11  O   UNL     1      31.801  -9.525 -22.818  0.00  0.00    -0.468 OA
ATOM     12  C   UNL     1      32.692  -8.531 -22.315  0.00  0.00    +0.253 C 
ENDBRANCH   8  11
ENDBRANCH   2   3
BRANCH   2  13
ATOM     13  C   UNL     1      34.750 -15.017 -21.395  0.00  0.00    +0.017 C 
ATOM     14  C   UNL     1      35.020 -16.320 -20.622  0.00  0.00    +0.001 C 
ATOM     15  C   UNL     1      34.985 -13.829 -20.442  0.00  0.00    +0.001 C 
ENDBRANCH   2  13
BRANCH   2  17
ATOM     16  N   UNL     1      31.596 -16.366 -20.685  0.00  0.00    -0.196 NA
ATOM     17  C   UNL     1      32.364 -15.752 -21.304  0.00  0.00    +0.075 C 
ENDBRANCH   2  17
ENDBRANCH   1   2
BRANCH   1  18
ATOM     18  C   UNL     1      34.855 -16.043 -23.975  0.00  0.00    -0.022 C 
BRANCH  18  19
ATOM     19  C   UNL     1      34.949 -17.471 -24.523  0.00  0.00    -0.082 C 
BRANCH  19  20
ATOM     20  N   UNL     1      35.700 -18.348 -23.635  0.00  0.00    +0.384 N 
ATOM     21  H   UNL     1      36.132 -17.788 -22.899  0.00  0.00    -0.085 HD
ATOM     22  H   UNL     1      36.415 -18.829 -24.180  0.00  0.00    -0.085 HD
BRANCH  20  23
ATOM     23  C   UNL     1      34.829 -19.344 -23.028  0.00  0.00    -0.077 C 
BRANCH  23  24
ATOM     24  C   UNL     1      34.381 -18.904 -21.634  0.00  0.00    +0.003 C 
BRANCH  24  25
ATOM     25  C   UNL     1      34.348 -20.065 -20.672  0.00  0.00    -0.021 C 
ATOM     26  C   UNL     1      35.531 -20.527 -20.096  0.00  0.00    +0.036 C 
ATOM     27  C   UNL     1      33.134 -20.676 -20.357  0.00  0.00    -0.001 C 
ATOM     28  C   UNL     1      35.500 -21.601 -19.205  0.00  0.00    +0.172 C 
ATOM     29  C   UNL     1      33.103 -21.750 -19.467  0.00  0.00    +0.040 C 
ATOM     30  C   UNL     1      34.286 -22.213 -18.891  0.00  0.00    +0.172 C 
BRANCH  28  31
ATOM     31  O   UNL     1      36.662 -22.044 -18.650  0.00  0.00    -0.468 OA
ATOM     32  C   UNL     1      36.963 -21.595 -17.331  0.00  0.00    +0.253 C 
ENDBRANCH  28  31
BRANCH  30  33
ATOM     33  O   UNL     1      34.243 -23.262 -18.024  0.00  0.00    -0.468 OA
ATOM     34  C   UNL     1      33.252 -23.216 -17.001  0.00  0.00    +0.253 C 
ENDBRANCH  30  33
ENDBRANCH  24  25
ENDBRANCH  23  24
ENDBRANCH  20  23
ENDBRANCH  19  20
ENDBRANCH  18  19
ENDBRANCH   1  18
TORSDOF 14
ENDMDL
MODEL 8
REMARK VINA RESULT:      -8.2      2.816     10.575
REMARK  Name = 15593907
REMARK  14 active torsions:
REMARK  status: ('A' for Active; 'I' for Inactive)
REMARK    1  A    between atoms: C_1  and  C_2
REMARK    2  A    between atoms: C_1  and  C_18
REMARK    3  A    between atoms: C_2  and  C_3
REMARK    4  A    between atoms: C_2  and  C_13
REMARK    5  A    between atoms: C_2  and  C_17
REMARK    6  A    between atoms: C_6  and  O_9
REMARK    7  A    between atoms: C_8  and  O_11
REMARK    8  A    between atoms: C_18  and  C_19
REMARK    9  A    between atoms: C_19  and  N_20
REMARK   10  A    between atoms: N_20  and  C_23
REMARK   11  A    between atoms: C_23  and  C_24
REMARK   12  A    between atoms: C_24  and  C_25
REMARK   13  A    between atoms: C_28  and  O_31
REMARK   14  A    between atoms: C_30  and  O_33
REMARK                            x       y       z     vdW  Elec       q    Type
REMARK                         _______ _______ _______ _____ _____    ______ ____
ROOT
ATOM      1  C   UNL     1      33.820 -19.163 -21.739  0.00  0.00    +0.016 C 
ENDROOT
BRANCH   1   2
ATOM      2  C   UNL     1      34.591 -18.059 -22.550  0.00  0.00    +0.098 C 
BRANCH   2   3
ATOM      3  C   UNL     1      34.090 -16.659 -22.123  0.00  0.00    -0.006 C 
ATOM      4  C   UNL     1      34.385 -15.543 -22.905  0.00  0.00    +0.037 C 
ATOM      5  C   UNL     1      33.342 -16.514 -20.954  0.00  0.00    +0.000 C 
ATOM      6  C   UNL     1      33.933 -14.281 -22.519  0.00  0.00    +0.172 C 
ATOM      7  C   UNL     1      32.891 -15.251 -20.568  0.00  0.00    +0.040 C 
ATOM      8  C   UNL     1      33.186 -14.135 -21.351  0.00  0.00    +0.172 C 
BRANCH   6   9
ATOM      9  O   UNL     1      34.228 -13.198 -23.292  0.00  0.00    -0.468 OA
ATOM     10  C   UNL     1      33.580 -13.111 -24.559  0.00  0.00    +0.253 C 
ENDBRANCH   6   9
BRANCH   8  11
ATOM     11  O   UNL     1      32.738 -12.908 -20.963  0.00  0.00    -0.468 OA
ATOM     12  C   UNL     1      31.576 -12.405 -21.618  0.00  0.00    +0.253 C 
ENDBRANCH   8  11
ENDBRANCH   2   3
BRANCH   2  13
ATOM     13  C   UNL     1      34.329 -18.249 -24.105  0.00  0.00    +0.017 C 
ATOM     14  C   UNL     1      34.759 -19.620 -24.655  0.00  0.00    +0.001 C 
ATOM     15  C   UNL     1      34.983 -17.152 -24.968  0.00  0.00    +0.001 C 
ENDBRANCH   2  13
BRANCH   2  17
ATOM     16  N   UNL     1      37.180 -18.412 -22.098  0.00  0.00    -0.196 NA
ATOM     17  C   UNL     1      36.044 -18.264 -22.288  0.00  0.00    +0.075 C 
ENDBRANCH   2  17
ENDBRANCH   1   2
BRANCH   1  18
ATOM     18  C   UNL     1      34.691 -19.995 -20.774  0.00  0.00    -0.022 C 
BRANCH  18  19
ATOM     19  C   UNL     1      33.862 -20.908 -19.865  0.00  0.00    -0.082 C 
BRANCH  19  20
ATOM     20  N   UNL     1      34.537 -22.172 -19.600  0.00  0.00    +0.384 N 
ATOM     21  H   UNL     1      35.453 -22.162 -20.048  0.00  0.00    -0.085 HD
ATOM     22  H   UNL     1      33.966 -22.930 -19.974  0.00  0.00    -0.085 HD
BRANCH  20  23
ATOM     23  C   UNL     1      34.707 -22.380 -18.169  0.00  0.00    -0.077 C 
BRANCH  23  24
ATOM     24  C   UNL     1      33.488 -23.082 -17.569  0.00  0.00    +0.003 C 
BRANCH  24  25
ATOM     25  C   UNL     1      33.716 -23.446 -16.123  0.00  0.00    -0.021 C 
ATOM     26  C   UNL     1      32.639 -23.501 -15.239  0.00  0.00    +0.036 C 
ATOM     27  C   UNL     1      35.005 -23.730 -15.670  0.00  0.00    -0.001 C 
ATOM     28  C   UNL     1      32.850 -23.839 -13.902  0.00  0.00    +0.172 C 
ATOM     29  C   UNL     1      35.216 -24.067 -14.333  0.00  0.00    +0.040 C 
ATOM     30  C   UNL     1      34.139 -24.122 -13.448  0.00  0.00    +0.172 C 
BRANCH  28  31
ATOM     31  O   UNL     1      31.790 -23.888 -13.048  0.00  0.00    -0.468 OA
ATOM     32  C   UNL     1      30.586 -24.472 -13.542  0.00  0.00    +0.253 C 
ENDBRANCH  28  31
BRANCH  30  33
ATOM     33  O   UNL     1      34.358 -24.452 -12.145  0.00  0.00    -0.468 OA
ATOM     34  C   UNL     1      35.694 -24.337 -11.664  0.00  0.00    +0.253 C 
ENDBRANCH  30  33
ENDBRANCH  24  25
ENDBRANCH  23  24
ENDBRANCH  20  23
ENDBRANCH  19  20
ENDBRANCH  18  19
ENDBRANCH   1  18
TORSDOF 14
ENDMDL
MODEL 9
REMARK VINA RESULT:      -8.2      2.631     10.412
REMARK  Name = 15593907
REMARK  14 active torsions:
REMARK  status: ('A' for Active; 'I' for Inactive)
REMARK    1  A    between atoms: C_1  and  C_2
REMARK    2  A    between atoms: C_1  and  C_18
REMARK    3  A    between atoms: C_2  and  C_3
REMARK    4  A    between atoms: C_2  and  C_13
REMARK    5  A    between atoms: C_2  and  C_17
REMARK    6  A    between atoms: C_6  and  O_9
REMARK    7  A    between atoms: C_8  and  O_11
REMARK    8  A    between atoms: C_18  and  C_19
REMARK    9  A    between atoms: C_19  and  N_20
REMARK   10  A    between atoms: N_20  and  C_23
REMARK   11  A    between atoms: C_23  and  C_24
REMARK   12  A    between atoms: C_24  and  C_25
REMARK   13  A    between atoms: C_28  and  O_31
REMARK   14  A    between atoms: C_30  and  O_33
REMARK                            x       y       z     vdW  Elec       q    Type
REMARK                         _______ _______ _______ _____ _____    ______ ____
ROOT
ATOM      1  C   UNL     1      33.823 -19.403 -22.055  0.00  0.00    +0.016 C 
ENDROOT
BRANCH   1   2
ATOM      2  C   UNL     1      34.851 -18.356 -22.620  0.00  0.00    +0.098 C 
BRANCH   2   3
ATOM      3  C   UNL     1      34.305 -16.926 -22.404  0.00  0.00    -0.006 C 
ATOM      4  C   UNL     1      34.269 -16.024 -23.467  0.00  0.00    +0.037 C 
ATOM      5  C   UNL     1      33.845 -16.538 -21.144  0.00  0.00    +0.000 C 
ATOM      6  C   UNL     1      33.777 -14.733 -23.271  0.00  0.00    +0.172 C 
ATOM      7  C   UNL     1      33.353 -15.247 -20.950  0.00  0.00    +0.040 C 
ATOM      8  C   UNL     1      33.318 -14.346 -22.013  0.00  0.00    +0.172 C 
BRANCH   6   9
ATOM      9  O   UNL     1      33.747 -13.861 -24.318  0.00  0.00    -0.468 OA
ATOM     10  C   UNL     1      33.144 -14.319 -25.526  0.00  0.00    +0.253 C 
ENDBRANCH   6   9
BRANCH   8  11
ATOM     11  O   UNL     1      32.833 -13.089 -21.809  0.00  0.00    -0.468 OA
ATOM     12  C   UNL     1      32.074 -12.871 -20.621  0.00  0.00    +0.253 C 
ENDBRANCH   8  11
ENDBRANCH   2   3
BRANCH   2  13
ATOM     13  C   UNL     1      35.070 -18.597 -24.174  0.00  0.00    +0.017 C 
ATOM     14  C   UNL     1      33.944 -18.042 -25.064  0.00  0.00    +0.001 C 
ATOM     15  C   UNL     1      35.288 -20.080 -24.533  0.00  0.00    +0.001 C 
ENDBRANCH   2  13
BRANCH   2  17
ATOM     16  N   UNL     1      37.146 -18.778 -21.358  0.00  0.00    -0.196 NA
ATOM     17  C   UNL     1      36.145 -18.599 -21.919  0.00  0.00    +0.075 C 
ENDBRANCH   2  17
ENDBRANCH   1   2
BRANCH   1  18
ATOM     18  C   UNL     1      34.161 -19.966 -20.659  0.00  0.00    -0.022 C 
BRANCH  18  19
ATOM     19  C   UNL     1      32.939 -20.554 -19.945  0.00  0.00    -0.082 C 
BRANCH  19  20
ATOM     20  N   UNL     1      33.069 -21.991 -19.737  0.00  0.00    +0.384 N 
ATOM     21  H   UNL     1      33.182 -22.451 -20.640  0.00  0.00    -0.085 HD
ATOM     22  H   UNL     1      32.227 -22.329 -19.269  0.00  0.00    -0.085 HD
BRANCH  20  23
ATOM     23  C   UNL     1      34.220 -22.293 -18.899  0.00  0.00    -0.077 C 
BRANCH  23  24
ATOM     24  C   UNL     1      33.780 -22.798 -17.524  0.00  0.00    +0.003 C 
BRANCH  24  25
ATOM     25  C   UNL     1      34.963 -23.063 -16.628  0.00  0.00    -0.021 C 
ATOM     26  C   UNL     1      34.827 -23.907 -15.525  0.00  0.00    +0.036 C 
ATOM     27  C   UNL     1      36.193 -22.466 -16.901  0.00  0.00    -0.001 C 
ATOM     28  C   UNL     1      35.922 -24.153 -14.696  0.00  0.00    +0.172 C 
ATOM     29  C   UNL     1      37.288 -22.710 -16.071  0.00  0.00    +0.040 C 
ATOM     30  C   UNL     1      37.153 -23.554 -14.969  0.00  0.00    +0.172 C 
BRANCH  28  31
ATOM     31  O   UNL     1      35.777 -24.978 -13.622  0.00  0.00    -0.468 OA
ATOM     32  C   UNL     1      35.166 -24.425 -12.458  0.00  0.00    +0.253 C 
ENDBRANCH  28  31
BRANCH  30  33
ATOM     33  O   UNL     1      38.229 -23.786 -14.166  0.00  0.00    -0.468 OA
ATOM     34  C   UNL     1      39.064 -24.890 -14.506  0.00  0.00    +0.253 C 
ENDBRANCH  30  33
ENDBRANCH  24  25
ENDBRANCH  23  24
ENDBRANCH  20  23
ENDBRANCH  19  20
ENDBRANCH  18  19
ENDBRANCH   1  18
TORSDOF 14
ENDMDL
