MODEL 1
REMARK VINA RESULT:     -11.3      0.000      0.000
REMARK  Name = 216454
REMARK  6 active torsions:
REMARK  status: ('A' for Active; 'I' for Inactive)
REMARK    1  A    between atoms: N_2  and  C_16
REMARK    2  A    between atoms: N_3  and  C_10
REMARK    3  A    between atoms: C_16  and  C_19
REMARK    4  A    between atoms: N_17  and  C_22
REMARK    5  A    between atoms: C_22  and  C_23
REMARK    6  A    between atoms: C_28  and  C_30
REMARK                            x       y       z     vdW  Elec       q    Type
REMARK                         _______ _______ _______ _____ _____    ______ ____
ROOT
ATOM      1  O   UNL     1      31.154 -10.709 -22.028  0.00  0.00    -0.277 OA
ATOM      2  N   UNL     1      32.790 -13.643 -23.086  0.00  0.00    +0.398 N 
ATOM      3  N   UNL     1      33.095 -10.856 -23.337  0.00  0.00    -0.262 N 
ATOM      4  C   UNL     1      34.098 -13.144 -23.498  0.00  0.00    -0.054 C 
ATOM      5  C   UNL     1      33.904 -11.780 -24.141  0.00  0.00    +0.075 C 
ATOM      6  C   UNL     1      32.268 -12.793 -22.018  0.00  0.00    +0.011 C 
ATOM      7  C   UNL     1      32.102 -11.357 -22.479  0.00  0.00    +0.208 C 
ATOM      8  H   UNL     1      32.152 -13.619 -23.882  0.00  0.00    -0.078 HD
ENDROOT
BRANCH   3  10
ATOM      9 CL   UNL     1      30.760  -6.326 -24.113  0.00  0.00    -0.082 Cl
ATOM     10  C   UNL     1      33.210  -9.442 -23.614  0.00  0.00    +0.054 C 
ATOM     11  C   UNL     1      32.063  -8.662 -23.717  0.00  0.00    +0.026 C 
ATOM     12  C   UNL     1      34.469  -8.871 -23.773  0.00  0.00    +0.015 C 
ATOM     13  C   UNL     1      32.176  -7.298 -23.983  0.00  0.00    +0.059 C 
ATOM     14  C   UNL     1      34.582  -7.507 -24.039  0.00  0.00    +0.002 C 
ATOM     15  C   UNL     1      33.435  -6.720 -24.145  0.00  0.00    +0.011 C 
ENDBRANCH   3  10
BRANCH   2  16
ATOM     16  C   UNL     1      32.894 -15.027 -22.625  0.00  0.00    -0.032 C 
BRANCH  16  19
ATOM     17  N   UNL     1      34.743 -16.634 -23.138  0.00  0.00    -0.270 N 
ATOM     18  N   UNL     1      34.591 -16.914 -25.336  0.00  0.00    -0.225 NA
ATOM     19  C   UNL     1      33.715 -15.872 -23.563  0.00  0.00    +0.029 C 
ATOM     20  C   UNL     1      33.623 -16.042 -24.904  0.00  0.00    +0.109 C 
ATOM     21  C   UNL     1      35.248 -17.251 -24.249  0.00  0.00    +0.168 C 
BRANCH  17  22
ATOM     22  C   UNL     1      35.236 -16.790 -21.790  0.00  0.00    +0.123 C 
BRANCH  22  23
ATOM     23  C   UNL     1      34.954 -18.169 -21.258  0.00  0.00    -0.002 C 
ATOM     24  C   UNL     1      36.012 -19.007 -20.931  0.00  0.00    -0.002 C 
ATOM     25  C   UNL     1      33.639 -18.586 -21.101  0.00  0.00    -0.002 C 
ATOM     26  C   UNL     1      35.751 -20.285 -20.437  0.00  0.00    +0.010 C 
ATOM     27  C   UNL     1      33.378 -19.864 -20.607  0.00  0.00    +0.010 C 
ATOM     28  C   UNL     1      34.433 -20.714 -20.275  0.00  0.00    +0.068 C 
BRANCH  28  30
ATOM     29  N   UNL     1      33.948 -23.087 -19.357  0.00  0.00    -0.191 NA
ATOM     30  C   UNL     1      34.166 -22.022 -19.768  0.00  0.00    +0.100 C 
ENDBRANCH  28  30
ENDBRANCH  22  23
ENDBRANCH  17  22
ENDBRANCH  16  19
ENDBRANCH   2  16
TORSDOF 6
ENDMDL
MODEL 2
REMARK VINA RESULT:     -11.2      3.576     10.118
REMARK  Name = 216454
REMARK  6 active torsions:
REMARK  status: ('A' for Active; 'I' for Inactive)
REMARK    1  A    between atoms: N_2  and  C_16
REMARK    2  A    between atoms: N_3  and  C_10
REMARK    3  A    between atoms: C_16  and  C_19
REMARK    4  A    between atoms: N_17  and  C_22
REMARK    5  A    between atoms: C_22  and  C_23
REMARK    6  A    between atoms: C_28  and  C_30
REMARK                            x       y       z     vdW  Elec       q    Type
REMARK                         _______ _______ _______ _____ _____    ______ ____
ROOT
ATOM      1  O   UNL     1      34.227 -15.000 -20.624  0.00  0.00    -0.277 OA
ATOM      2  N   UNL     1      33.718 -13.852 -23.915  0.00  0.00    +0.398 N 
ATOM      3  N   UNL     1      34.316 -16.266 -22.597  0.00  0.00    -0.262 N 
ATOM      4  C   UNL     1      33.499 -15.093 -24.651  0.00  0.00    -0.054 C 
ATOM      5  C   UNL     1      34.402 -16.162 -24.059  0.00  0.00    +0.075 C 
ATOM      6  C   UNL     1      33.250 -14.022 -22.541  0.00  0.00    +0.011 C 
ATOM      7  C   UNL     1      34.001 -15.133 -21.830  0.00  0.00    +0.208 C 
ATOM      8  H   UNL     1      34.714 -13.633 -23.910  0.00  0.00    -0.078 HD
ENDROOT
BRANCH   3  10
ATOM      9 CL   UNL     1      33.139 -20.591 -20.050  0.00  0.00    -0.082 Cl
ATOM     10  C   UNL     1      34.765 -17.494 -21.980  0.00  0.00    +0.054 C 
ATOM     11  C   UNL     1      33.842 -18.346 -21.384  0.00  0.00    +0.026 C 
ATOM     12  C   UNL     1      36.119 -17.815 -21.990  0.00  0.00    +0.015 C 
ATOM     13  C   UNL     1      34.276 -19.531 -20.791  0.00  0.00    +0.059 C 
ATOM     14  C   UNL     1      36.554 -19.000 -21.397  0.00  0.00    +0.002 C 
ATOM     15  C   UNL     1      35.633 -19.858 -20.797  0.00  0.00    +0.011 C 
ENDBRANCH   3  10
BRANCH   2  16
ATOM     16  C   UNL     1      33.010 -12.745 -24.557  0.00  0.00    -0.032 C 
BRANCH  16  19
ATOM     17  N   UNL     1      33.725 -10.469 -23.803  0.00  0.00    -0.270 N 
ATOM     18  N   UNL     1      35.360  -9.946 -25.212  0.00  0.00    -0.225 NA
ATOM     19  C   UNL     1      33.865 -11.509 -24.649  0.00  0.00    +0.029 C 
ATOM     20  C   UNL     1      34.861 -11.190 -25.508  0.00  0.00    +0.109 C 
ATOM     21  C   UNL     1      34.654  -9.539 -24.181  0.00  0.00    +0.168 C 
BRANCH  17  22
ATOM     22  C   UNL     1      32.793 -10.331 -22.709  0.00  0.00    +0.123 C 
BRANCH  22  23
ATOM     23  C   UNL     1      32.246  -8.931 -22.627  0.00  0.00    -0.002 C 
ATOM     24  C   UNL     1      32.621  -8.110 -21.571  0.00  0.00    -0.002 C 
ATOM     25  C   UNL     1      31.375  -8.478 -23.608  0.00  0.00    -0.002 C 
ATOM     26  C   UNL     1      32.115  -6.813 -21.496  0.00  0.00    +0.010 C 
ATOM     27  C   UNL     1      30.869  -7.181 -23.533  0.00  0.00    +0.010 C 
ATOM     28  C   UNL     1      31.239  -6.348 -22.476  0.00  0.00    +0.068 C 
BRANCH  28  30
ATOM     29  N   UNL     1      30.300  -3.938 -22.336  0.00  0.00    -0.191 NA
ATOM     30  C   UNL     1      30.721  -5.018 -22.399  0.00  0.00    +0.100 C 
ENDBRANCH  28  30
ENDBRANCH  22  23
ENDBRANCH  17  22
ENDBRANCH  16  19
ENDBRANCH   2  16
TORSDOF 6
ENDMDL
MODEL 3
REMARK VINA RESULT:     -11.1      0.934      1.283
REMARK  Name = 216454
REMARK  6 active torsions:
REMARK  status: ('A' for Active; 'I' for Inactive)
REMARK    1  A    between atoms: N_2  and  C_16
REMARK    2  A    between atoms: N_3  and  C_10
REMARK    3  A    between atoms: C_16  and  C_19
REMARK    4  A    between atoms: N_17  and  C_22
REMARK    5  A    between atoms: C_22  and  C_23
REMARK    6  A    between atoms: C_28  and  C_30
REMARK                            x       y       z     vdW  Elec       q    Type
REMARK                         _______ _______ _______ _____ _____    ______ ____
ROOT
ATOM      1  O   UNL     1      34.568 -11.341 -25.304  0.00  0.00    -0.277 OA
ATOM      2  N   UNL     1      33.181 -13.490 -22.882  0.00  0.00    +0.398 N 
ATOM      3  N   UNL     1      33.181 -10.745 -23.508  0.00  0.00    -0.262 N 
ATOM      4  C   UNL     1      32.130 -12.666 -22.294  0.00  0.00    -0.054 C 
ATOM      5  C   UNL     1      32.628 -11.231 -22.238  0.00  0.00    +0.075 C 
ATOM      6  C   UNL     1      33.369 -13.101 -24.279  0.00  0.00    +0.011 C 
ATOM      7  C   UNL     1      33.785 -11.646 -24.400  0.00  0.00    +0.208 C 
ATOM      8  H   UNL     1      34.050 -13.346 -22.369  0.00  0.00    -0.078 HD
ENDROOT
BRANCH   3  10
ATOM      9 CL   UNL     1      30.765  -6.211 -23.926  0.00  0.00    -0.082 Cl
ATOM     10  C   UNL     1      33.269  -9.316 -23.704  0.00  0.00    +0.054 C 
ATOM     11  C   UNL     1      32.109  -8.548 -23.719  0.00  0.00    +0.026 C 
ATOM     12  C   UNL     1      34.514  -8.719 -23.874  0.00  0.00    +0.015 C 
ATOM     13  C   UNL     1      32.196  -7.169 -23.905  0.00  0.00    +0.059 C 
ATOM     14  C   UNL     1      34.601  -7.340 -24.061  0.00  0.00    +0.002 C 
ATOM     15  C   UNL     1      33.442  -6.564 -24.077  0.00  0.00    +0.011 C 
ENDBRANCH   3  10
BRANCH   2  16
ATOM     16  C   UNL     1      32.827 -14.906 -22.796  0.00  0.00    -0.032 C 
BRANCH  16  19
ATOM     17  N   UNL     1      34.716 -16.513 -23.134  0.00  0.00    -0.270 N 
ATOM     18  N   UNL     1      34.742 -16.828 -25.332  0.00  0.00    -0.225 NA
ATOM     19  C   UNL     1      33.723 -15.762 -23.652  0.00  0.00    +0.029 C 
ATOM     20  C   UNL     1      33.740 -15.954 -24.992  0.00  0.00    +0.109 C 
ATOM     21  C   UNL     1      35.311 -17.146 -24.190  0.00  0.00    +0.168 C 
BRANCH  17  22
ATOM     22  C   UNL     1      35.101 -16.646 -21.749  0.00  0.00    +0.123 C 
BRANCH  22  23
ATOM     23  C   UNL     1      34.853 -18.041 -21.241  0.00  0.00    -0.002 C 
ATOM     24  C   UNL     1      35.932 -18.865 -20.949  0.00  0.00    -0.002 C 
ATOM     25  C   UNL     1      33.549 -18.486 -21.071  0.00  0.00    -0.002 C 
ATOM     26  C   UNL     1      35.703 -20.158 -20.478  0.00  0.00    +0.010 C 
ATOM     27  C   UNL     1      33.320 -19.778 -20.600  0.00  0.00    +0.010 C 
ATOM     28  C   UNL     1      34.397 -20.615 -20.303  0.00  0.00    +0.068 C 
BRANCH  28  30
ATOM     29  N   UNL     1      33.972 -23.015 -19.428  0.00  0.00    -0.191 NA
ATOM     30  C   UNL     1      34.162 -21.938 -19.820  0.00  0.00    +0.100 C 
ENDBRANCH  28  30
ENDBRANCH  22  23
ENDBRANCH  17  22
ENDBRANCH  16  19
ENDBRANCH   2  16
TORSDOF 6
ENDMDL
MODEL 4
REMARK VINA RESULT:     -10.7      3.935      9.934
REMARK  Name = 216454
REMARK  6 active torsions:
REMARK  status: ('A' for Active; 'I' for Inactive)
REMARK    1  A    between atoms: N_2  and  C_16
REMARK    2  A    between atoms: N_3  and  C_10
REMARK    3  A    between atoms: C_16  and  C_19
REMARK    4  A    between atoms: N_17  and  C_22
REMARK    5  A    between atoms: C_22  and  C_23
REMARK    6  A    between atoms: C_28  and  C_30
REMARK                            x       y       z     vdW  Elec       q    Type
REMARK                         _______ _______ _______ _____ _____    ______ ____
ROOT
ATOM      1  O   UNL     1      35.002 -18.032 -23.803  0.00  0.00    -0.277 OA
ATOM      2  N   UNL     1      33.898 -14.828 -22.843  0.00  0.00    +0.398 N 
ATOM      3  N   UNL     1      34.203 -17.381 -21.695  0.00  0.00    -0.262 N 
ATOM      4  C   UNL     1      33.909 -14.914 -21.386  0.00  0.00    -0.054 C 
ATOM      5  C   UNL     1      33.478 -16.317 -20.990  0.00  0.00    +0.075 C 
ATOM      6  C   UNL     1      34.933 -15.707 -23.382  0.00  0.00    +0.011 C 
ATOM      7  C   UNL     1      34.694 -17.154 -22.991  0.00  0.00    +0.208 C 
ATOM      8  H   UNL     1      32.986 -15.123 -23.192  0.00  0.00    -0.078 HD
ENDROOT
BRANCH   3  10
ATOM      9 CL   UNL     1      36.905 -21.374 -19.873  0.00  0.00    -0.082 Cl
ATOM     10  C   UNL     1      34.205 -18.701 -21.106  0.00  0.00    +0.054 C 
ATOM     11  C   UNL     1      35.413 -19.324 -20.811  0.00  0.00    +0.026 C 
ATOM     12  C   UNL     1      32.997 -19.337 -20.838  0.00  0.00    +0.015 C 
ATOM     13  C   UNL     1      35.413 -20.596 -20.241  0.00  0.00    +0.059 C 
ATOM     14  C   UNL     1      32.998 -20.610 -20.268  0.00  0.00    +0.002 C 
ATOM     15  C   UNL     1      34.206 -21.241 -19.970  0.00  0.00    +0.011 C 
ENDBRANCH   3  10
BRANCH   2  16
ATOM     16  C   UNL     1      34.130 -13.450 -23.275  0.00  0.00    -0.032 C 
BRANCH  16  19
ATOM     17  N   UNL     1      34.026 -12.138 -25.403  0.00  0.00    -0.270 N 
ATOM     18  N   UNL     1      32.678 -13.345 -26.691  0.00  0.00    -0.225 NA
ATOM     19  C   UNL     1      33.654 -13.216 -24.684  0.00  0.00    +0.029 C 
ATOM     20  C   UNL     1      32.831 -13.952 -25.470  0.00  0.00    +0.109 C 
ATOM     21  C   UNL     1      33.409 -12.255 -26.618  0.00  0.00    +0.168 C 
BRANCH  17  22
ATOM     22  C   UNL     1      34.897 -11.059 -25.002  0.00  0.00    +0.123 C 
BRANCH  22  23
ATOM     23  C   UNL     1      34.143  -9.997 -24.247  0.00  0.00    -0.002 C 
ATOM     24  C   UNL     1      34.735  -8.760 -24.030  0.00  0.00    -0.002 C 
ATOM     25  C   UNL     1      32.866 -10.269 -23.776  0.00  0.00    -0.002 C 
ATOM     26  C   UNL     1      34.037  -7.776 -23.331  0.00  0.00    +0.010 C 
ATOM     27  C   UNL     1      32.167  -9.285 -23.077  0.00  0.00    +0.010 C 
ATOM     28  C   UNL     1      32.752  -8.038 -22.854  0.00  0.00    +0.068 C 
BRANCH  28  30
ATOM     29  N   UNL     1      31.455  -6.210 -21.556  0.00  0.00    -0.191 NA
ATOM     30  C   UNL     1      32.036  -7.030 -22.138  0.00  0.00    +0.100 C 
ENDBRANCH  28  30
ENDBRANCH  22  23
ENDBRANCH  17  22
ENDBRANCH  16  19
ENDBRANCH   2  16
TORSDOF 6
ENDMDL
MODEL 5
REMARK VINA RESULT:     -10.7      3.825     10.662
REMARK  Name = 216454
REMARK  6 active torsions:
REMARK  status: ('A' for Active; 'I' for Inactive)
REMARK    1  A    between atoms: N_2  and  C_16
REMARK    2  A    between atoms: N_3  and  C_10
REMARK    3  A    between atoms: C_16  and  C_19
REMARK    4  A    between atoms: N_17  and  C_22
REMARK    5  A    between atoms: C_22  and  C_23
REMARK    6  A    between atoms: C_28  and  C_30
REMARK                            x       y       z     vdW  Elec       q    Type
REMARK                         _______ _______ _______ _____ _____    ______ ____
ROOT
ATOM      1  O   UNL     1      34.587 -17.738 -24.060  0.00  0.00    -0.277 OA
ATOM      2  N   UNL     1      33.683 -14.590 -22.762  0.00  0.00    +0.398 N 
ATOM      3  N   UNL     1      34.709 -17.039 -21.824  0.00  0.00    -0.262 N 
ATOM      4  C   UNL     1      34.328 -14.593 -21.452  0.00  0.00    -0.054 C 
ATOM      5  C   UNL     1      34.253 -16.003 -20.889  0.00  0.00    +0.075 C 
ATOM      6  C   UNL     1      34.471 -15.407 -23.684  0.00  0.00    +0.011 C 
ATOM      7  C   UNL     1      34.570 -16.845 -23.208  0.00  0.00    +0.208 C 
ATOM      8  H   UNL     1      32.745 -14.982 -22.678  0.00  0.00    -0.078 HD
ENDROOT
BRANCH   3  10
ATOM      9 CL   UNL     1      33.295 -21.560 -19.793  0.00  0.00    -0.082 Cl
ATOM     10  C   UNL     1      35.098 -18.319 -21.276  0.00  0.00    +0.054 C 
ATOM     11  C   UNL     1      34.121 -19.213 -20.850  0.00  0.00    +0.026 C 
ATOM     12  C   UNL     1      36.447 -18.647 -21.181  0.00  0.00    +0.015 C 
ATOM     13  C   UNL     1      34.498 -20.448 -20.323  0.00  0.00    +0.059 C 
ATOM     14  C   UNL     1      36.823 -19.882 -20.654  0.00  0.00    +0.002 C 
ATOM     15  C   UNL     1      35.849 -20.783 -20.224  0.00  0.00    +0.011 C 
ENDBRANCH   3  10
BRANCH   2  16
ATOM     16  C   UNL     1      33.566 -13.225 -23.271  0.00  0.00    -0.032 C 
BRANCH  16  19
ATOM     17  N   UNL     1      32.420 -11.084 -22.665  0.00  0.00    -0.270 N 
ATOM     18  N   UNL     1      31.039 -11.681 -21.031  0.00  0.00    -0.225 NA
ATOM     19  C   UNL     1      32.589 -12.408 -22.468  0.00  0.00    +0.029 C 
ATOM     20  C   UNL     1      31.747 -12.771 -21.471  0.00  0.00    +0.109 C 
ATOM     21  C   UNL     1      31.468 -10.682 -21.769  0.00  0.00    +0.168 C 
BRANCH  17  22
ATOM     22  C   UNL     1      33.092 -10.234 -23.618  0.00  0.00    +0.123 C 
BRANCH  22  23
ATOM     23  C   UNL     1      32.614  -8.810 -23.516  0.00  0.00    -0.002 C 
ATOM     24  C   UNL     1      31.378  -8.462 -24.045  0.00  0.00    -0.002 C 
ATOM     25  C   UNL     1      33.416  -7.863 -22.892  0.00  0.00    -0.002 C 
ATOM     26  C   UNL     1      30.936  -7.143 -23.949  0.00  0.00    +0.010 C 
ATOM     27  C   UNL     1      32.974  -6.544 -22.796  0.00  0.00    +0.010 C 
ATOM     28  C   UNL     1      31.733  -6.183 -23.324  0.00  0.00    +0.068 C 
BRANCH  28  30
ATOM     29  N   UNL     1      30.910  -3.734 -23.144  0.00  0.00    -0.191 NA
ATOM     30  C   UNL     1      31.280  -4.832 -23.225  0.00  0.00    +0.100 C 
ENDBRANCH  28  30
ENDBRANCH  22  23
ENDBRANCH  17  22
ENDBRANCH  16  19
ENDBRANCH   2  16
TORSDOF 6
ENDMDL
MODEL 6
REMARK VINA RESULT:     -10.6      3.821     10.851
REMARK  Name = 216454
REMARK  6 active torsions:
REMARK  status: ('A' for Active; 'I' for Inactive)
REMARK    1  A    between atoms: N_2  and  C_16
REMARK    2  A    between atoms: N_3  and  C_10
REMARK    3  A    between atoms: C_16  and  C_19
REMARK    4  A    between atoms: N_17  and  C_22
REMARK    5  A    between atoms: C_22  and  C_23
REMARK    6  A    between atoms: C_28  and  C_30
REMARK                            x       y       z     vdW  Elec       q    Type
REMARK                         _______ _______ _______ _____ _____    ______ ____
ROOT
ATOM      1  O   UNL     1      32.278 -14.517 -21.163  0.00  0.00    -0.277 OA
ATOM      2  N   UNL     1      32.589 -11.347 -22.669  0.00  0.00    +0.398 N 
ATOM      3  N   UNL     1      33.428 -13.993 -23.140  0.00  0.00    -0.262 N 
ATOM      4  C   UNL     1      33.036 -11.682 -24.017  0.00  0.00    -0.054 C 
ATOM      5  C   UNL     1      33.970 -12.877 -23.924  0.00  0.00    +0.075 C 
ATOM      6  C   UNL     1      31.758 -12.436 -22.157  0.00  0.00    +0.011 C 
ATOM      7  C   UNL     1      32.530 -13.741 -22.089  0.00  0.00    +0.208 C 
ATOM      8  H   UNL     1      33.401 -11.226 -22.063  0.00  0.00    -0.078 HD
ENDROOT
BRANCH   3  10
ATOM      9 CL   UNL     1      35.805 -18.110 -21.147  0.00  0.00    -0.082 Cl
ATOM     10  C   UNL     1      34.001 -15.304 -23.345  0.00  0.00    +0.054 C 
ATOM     11  C   UNL     1      34.560 -15.990 -22.271  0.00  0.00    +0.026 C 
ATOM     12  C   UNL     1      33.987 -15.871 -24.616  0.00  0.00    +0.015 C 
ATOM     13  C   UNL     1      35.111 -17.255 -22.470  0.00  0.00    +0.059 C 
ATOM     14  C   UNL     1      34.538 -17.136 -24.815  0.00  0.00    +0.002 C 
ATOM     15  C   UNL     1      35.101 -17.829 -23.742  0.00  0.00    +0.011 C 
ENDBRANCH   3  10
BRANCH   2  16
ATOM     16  C   UNL     1      31.832 -10.096 -22.677  0.00  0.00    -0.032 C 
BRANCH  16  19
ATOM     17  N   UNL     1      32.900  -8.157 -21.508  0.00  0.00    -0.270 N 
ATOM     18  N   UNL     1      32.228  -8.387 -19.404  0.00  0.00    -0.225 NA
ATOM     19  C   UNL     1      32.121  -9.257 -21.460  0.00  0.00    +0.029 C 
ATOM     20  C   UNL     1      31.712  -9.398 -20.176  0.00  0.00    +0.109 C 
ATOM     21  C   UNL     1      32.939  -7.659 -20.235  0.00  0.00    +0.168 C 
BRANCH  17  22
ATOM     22  C   UNL     1      33.572  -7.593 -22.654  0.00  0.00    +0.123 C 
BRANCH  22  23
ATOM     23  C   UNL     1      32.781  -6.460 -23.251  0.00  0.00    -0.002 C 
ATOM     24  C   UNL     1      31.880  -5.761 -22.459  0.00  0.00    -0.002 C 
ATOM     25  C   UNL     1      32.964  -6.128 -24.587  0.00  0.00    -0.002 C 
ATOM     26  C   UNL     1      31.148  -4.711 -23.013  0.00  0.00    +0.010 C 
ATOM     27  C   UNL     1      32.232  -5.078 -25.141  0.00  0.00    +0.010 C 
ATOM     28  C   UNL     1      31.324  -4.369 -24.354  0.00  0.00    +0.068 C 
BRANCH  28  30
ATOM     29  N   UNL     1      29.966  -2.417 -25.382  0.00  0.00    -0.191 NA
ATOM     30  C   UNL     1      30.575  -3.292 -24.920  0.00  0.00    +0.100 C 
ENDBRANCH  28  30
ENDBRANCH  22  23
ENDBRANCH  17  22
ENDBRANCH  16  19
ENDBRANCH   2  16
TORSDOF 6
ENDMDL
MODEL 7
REMARK VINA RESULT:     -10.5      1.718      2.233
REMARK  Name = 216454
REMARK  6 active torsions:
REMARK  status: ('A' for Active; 'I' for Inactive)
REMARK    1  A    between atoms: N_2  and  C_16
REMARK    2  A    between atoms: N_3  and  C_10
REMARK    3  A    between atoms: C_16  and  C_19
REMARK    4  A    between atoms: N_17  and  C_22
REMARK    5  A    between atoms: C_22  and  C_23
REMARK    6  A    between atoms: C_28  and  C_30
REMARK                            x       y       z     vdW  Elec       q    Type
REMARK                         _______ _______ _______ _____ _____    ______ ____
ROOT
ATOM      1  O   UNL     1      30.613 -11.531 -21.438  0.00  0.00    -0.277 OA
ATOM      2  N   UNL     1      32.772 -13.545 -23.360  0.00  0.00    +0.398 N 
ATOM      3  N   UNL     1      32.370 -10.812 -22.816  0.00  0.00    -0.262 N 
ATOM      4  C   UNL     1      33.866 -12.629 -23.667  0.00  0.00    -0.054 C 
ATOM      5  C   UNL     1      33.280 -11.244 -23.884  0.00  0.00    +0.075 C 
ATOM      6  C   UNL     1      32.188 -13.176 -22.071  0.00  0.00    +0.011 C 
ATOM      7  C   UNL     1      31.631 -11.764 -22.096  0.00  0.00    +0.208 C 
ATOM      8  H   UNL     1      32.060 -13.477 -24.087  0.00  0.00    -0.078 HD
ENDROOT
BRANCH   3  10
ATOM      9 CL   UNL     1      32.612  -6.556 -19.918  0.00  0.00    -0.082 Cl
ATOM     10  C   UNL     1      32.111  -9.396 -22.682  0.00  0.00    +0.054 C 
ATOM     11  C   UNL     1      32.448  -8.740 -21.503  0.00  0.00    +0.026 C 
ATOM     12  C   UNL     1      31.529  -8.699 -23.737  0.00  0.00    +0.015 C 
ATOM     13  C   UNL     1      32.199  -7.374 -21.376  0.00  0.00    +0.059 C 
ATOM     14  C   UNL     1      31.280  -7.333 -23.610  0.00  0.00    +0.002 C 
ATOM     15  C   UNL     1      31.615  -6.670 -22.429  0.00  0.00    +0.011 C 
ENDBRANCH   3  10
BRANCH   2  16
ATOM     16  C   UNL     1      33.256 -14.924 -23.318  0.00  0.00    -0.032 C 
BRANCH  16  19
ATOM     17  N   UNL     1      34.338 -16.483 -21.687  0.00  0.00    -0.270 N 
ATOM     18  N   UNL     1      34.963 -15.145 -20.028  0.00  0.00    -0.225 NA
ATOM     19  C   UNL     1      33.963 -15.232 -22.025  0.00  0.00    +0.029 C 
ATOM     20  C   UNL     1      34.343 -14.417 -21.013  0.00  0.00    +0.109 C 
ATOM     21  C   UNL     1      34.943 -16.384 -20.464  0.00  0.00    +0.168 C 
BRANCH  17  22
ATOM     22  C   UNL     1      34.154 -17.701 -22.439  0.00  0.00    +0.123 C 
BRANCH  22  23
ATOM     23  C   UNL     1      34.148 -18.907 -21.539  0.00  0.00    -0.002 C 
ATOM     24  C   UNL     1      35.339 -19.571 -21.275  0.00  0.00    -0.002 C 
ATOM     25  C   UNL     1      32.952 -19.339 -20.982  0.00  0.00    -0.002 C 
ATOM     26  C   UNL     1      35.333 -20.688 -20.440  0.00  0.00    +0.010 C 
ATOM     27  C   UNL     1      32.946 -20.455 -20.147  0.00  0.00    +0.010 C 
ATOM     28  C   UNL     1      34.136 -21.130 -19.875  0.00  0.00    +0.068 C 
BRANCH  28  30
ATOM     29  N   UNL     1      34.127 -23.204 -18.323  0.00  0.00    -0.191 NA
ATOM     30  C   UNL     1      34.131 -22.274 -19.019  0.00  0.00    +0.100 C 
ENDBRANCH  28  30
ENDBRANCH  22  23
ENDBRANCH  17  22
ENDBRANCH  16  19
ENDBRANCH   2  16
TORSDOF 6
ENDMDL
MODEL 8
REMARK VINA RESULT:     -10.5      3.183      5.928
REMARK  Name = 216454
REMARK  6 active torsions:
REMARK  status: ('A' for Active; 'I' for Inactive)
REMARK    1  A    between atoms: N_2  and  C_16
REMARK    2  A    between atoms: N_3  and  C_10
REMARK    3  A    between atoms: C_16  and  C_19
REMARK    4  A    between atoms: N_17  and  C_22
REMARK    5  A    between atoms: C_22  and  C_23
REMARK    6  A    between atoms: C_28  and  C_30
REMARK                            x       y       z     vdW  Elec       q    Type
REMARK                         _______ _______ _______ _____ _____    ______ ____
ROOT
ATOM      1  O   UNL     1      33.054 -15.272 -21.623  0.00  0.00    -0.277 OA
ATOM      2  N   UNL     1      34.832 -18.304 -21.862  0.00  0.00    +0.398 N 
ATOM      3  N   UNL     1      34.280 -16.055 -23.464  0.00  0.00    -0.262 N 
ATOM      4  C   UNL     1      35.690 -18.075 -23.021  0.00  0.00    -0.054 C 
ATOM      5  C   UNL     1      34.911 -17.253 -24.033  0.00  0.00    +0.075 C 
ATOM      6  C   UNL     1      34.579 -17.028 -21.196  0.00  0.00    +0.011 C 
ATOM      7  C   UNL     1      33.877 -16.047 -22.119  0.00  0.00    +0.208 C 
ATOM      8  H   UNL     1      33.948 -18.708 -22.171  0.00  0.00    -0.078 HD
ENDROOT
BRANCH   3  10
ATOM      9 CL   UNL     1      33.796 -11.001 -24.350  0.00  0.00    -0.082 Cl
ATOM     10  C   UNL     1      33.905 -14.994 -24.371  0.00  0.00    +0.054 C 
ATOM     11  C   UNL     1      34.019 -13.668 -23.967  0.00  0.00    +0.026 C 
ATOM     12  C   UNL     1      33.436 -15.308 -25.643  0.00  0.00    +0.015 C 
ATOM     13  C   UNL     1      33.659 -12.645 -24.843  0.00  0.00    +0.059 C 
ATOM     14  C   UNL     1      33.076 -14.285 -26.519  0.00  0.00    +0.002 C 
ATOM     15  C   UNL     1      33.187 -12.953 -26.120  0.00  0.00    +0.011 C 
ENDBRANCH   3  10
BRANCH   2  16
ATOM     16  C   UNL     1      35.465 -19.240 -20.934  0.00  0.00    -0.032 C 
BRANCH  16  19
ATOM     17  N   UNL     1      34.859 -21.271 -19.604  0.00  0.00    -0.270 N 
ATOM     18  N   UNL     1      32.662 -21.437 -19.881  0.00  0.00    -0.225 NA
ATOM     19  C   UNL     1      34.483 -20.248 -20.397  0.00  0.00    +0.029 C 
ATOM     20  C   UNL     1      33.144 -20.349 -20.567  0.00  0.00    +0.109 C 
ATOM     21  C   UNL     1      33.720 -21.970 -19.313  0.00  0.00    +0.168 C 
BRANCH  17  22
ATOM     22  C   UNL     1      36.186 -21.594 -19.137  0.00  0.00    +0.123 C 
BRANCH  22  23
ATOM     23  C   UNL     1      36.168 -22.054 -17.704  0.00  0.00    -0.002 C 
ATOM     24  C   UNL     1      35.073 -22.762 -17.226  0.00  0.00    -0.002 C 
ATOM     25  C   UNL     1      37.246 -21.764 -16.878  0.00  0.00    -0.002 C 
ATOM     26  C   UNL     1      35.056 -23.189 -15.898  0.00  0.00    +0.010 C 
ATOM     27  C   UNL     1      37.229 -22.191 -15.551  0.00  0.00    +0.010 C 
ATOM     28  C   UNL     1      36.134 -22.903 -15.060  0.00  0.00    +0.068 C 
BRANCH  28  30
ATOM     29  N   UNL     1      36.105 -23.697 -12.594  0.00  0.00    -0.191 NA
ATOM     30  C   UNL     1      36.117 -23.341 -13.700  0.00  0.00    +0.100 C 
ENDBRANCH  28  30
ENDBRANCH  22  23
ENDBRANCH  17  22
ENDBRANCH  16  19
ENDBRANCH   2  16
TORSDOF 6
ENDMDL
MODEL 9
REMARK VINA RESULT:     -10.5      3.728     10.621
REMARK  Name = 216454
REMARK  6 active torsions:
REMARK  status: ('A' for Active; 'I' for Inactive)
REMARK    1  A    between atoms: N_2  and  C_16
REMARK    2  A    between atoms: N_3  and  C_10
REMARK    3  A    between atoms: C_16  and  C_19
REMARK    4  A    between atoms: N_17  and  C_22
REMARK    5  A    between atoms: C_22  and  C_23
REMARK    6  A    between atoms: C_28  and  C_30
REMARK                            x       y       z     vdW  Elec       q    Type
REMARK                         _______ _______ _______ _____ _____    ______ ____
ROOT
ATOM      1  O   UNL     1      32.188 -13.771 -20.380  0.00  0.00    -0.277 OA
ATOM      2  N   UNL     1      32.347 -10.898 -22.412  0.00  0.00    +0.398 N 
ATOM      3  N   UNL     1      33.280 -13.554 -22.445  0.00  0.00    -0.262 N 
ATOM      4  C   UNL     1      32.783 -11.442 -23.694  0.00  0.00    -0.054 C 
ATOM      5  C   UNL     1      33.764 -12.570 -23.422  0.00  0.00    +0.075 C 
ATOM      6  C   UNL     1      31.569 -11.912 -21.702  0.00  0.00    +0.011 C 
ATOM      7  C   UNL     1      32.393 -13.158 -21.432  0.00  0.00    +0.208 C 
ATOM      8  H   UNL     1      33.164 -10.646 -21.856  0.00  0.00    -0.078 HD
ENDROOT
BRANCH   3  10
ATOM      9 CL   UNL     1      34.770 -17.726 -25.080  0.00  0.00    -0.082 Cl
ATOM     10  C   UNL     1      33.901 -14.859 -22.437  0.00  0.00    +0.054 C 
ATOM     11  C   UNL     1      34.020 -15.575 -23.624  0.00  0.00    +0.026 C 
ATOM     12  C   UNL     1      34.378 -15.388 -21.242  0.00  0.00    +0.015 C 
ATOM     13  C   UNL     1      34.620 -16.834 -23.615  0.00  0.00    +0.059 C 
ATOM     14  C   UNL     1      34.979 -16.647 -21.233  0.00  0.00    +0.002 C 
ATOM     15  C   UNL     1      35.100 -17.370 -22.420  0.00  0.00    +0.011 C 
ENDBRANCH   3  10
BRANCH   2  16
ATOM     16  C   UNL     1      31.541  -9.695 -22.615  0.00  0.00    -0.032 C 
BRANCH  16  19
ATOM     17  N   UNL     1      31.674  -7.301 -21.896  0.00  0.00    -0.270 N 
ATOM     18  N   UNL     1      32.623  -7.414 -19.892  0.00  0.00    -0.225 NA
ATOM     19  C   UNL     1      31.905  -8.605 -21.641  0.00  0.00    +0.029 C 
ATOM     20  C   UNL     1      32.484  -8.673 -20.419  0.00  0.00    +0.109 C 
ATOM     21  C   UNL     1      32.126  -6.611 -20.806  0.00  0.00    +0.168 C 
BRANCH  17  22
ATOM     22  C   UNL     1      31.073  -6.718 -23.072  0.00  0.00    +0.123 C 
BRANCH  22  23
ATOM     23  C   UNL     1      32.117  -6.302 -24.074  0.00  0.00    -0.002 C 
ATOM     24  C   UNL     1      31.833  -5.287 -24.978  0.00  0.00    -0.002 C 
ATOM     25  C   UNL     1      33.351  -6.939 -24.079  0.00  0.00    -0.002 C 
ATOM     26  C   UNL     1      32.801  -4.902 -25.905  0.00  0.00    +0.010 C 
ATOM     27  C   UNL     1      34.318  -6.554 -25.007  0.00  0.00    +0.010 C 
ATOM     28  C   UNL     1      34.044  -5.535 -25.920  0.00  0.00    +0.068 C 
BRANCH  28  30
ATOM     29  N   UNL     1      35.842  -4.819 -27.641  0.00  0.00    -0.191 NA
ATOM     30  C   UNL     1      35.036  -5.139 -26.869  0.00  0.00    +0.100 C 
ENDBRANCH  28  30
ENDBRANCH  22  23
ENDBRANCH  17  22
ENDBRANCH  16  19
ENDBRANCH   2  16
TORSDOF 6
ENDMDL
