MODEL 1
REMARK VINA RESULT:      -9.9      0.000      0.000
REMARK  Name = 25210531
REMARK  10 active torsions:
REMARK  status: ('A' for Active; 'I' for Inactive)
REMARK    1  A    between atoms: C_1  and  O_2
REMARK    2  A    between atoms: C_1  and  C_15
REMARK    3  A    between atoms: O_2  and  N_3
REMARK    4  A    between atoms: N_3  and  C_4
REMARK    5  A    between atoms: C_4  and  C_5
REMARK    6  A    between atoms: C_6  and  C_12
REMARK    7  A    between atoms: C_12  and  O_13
REMARK    8  A    between atoms: C_15  and  O_16
REMARK    9  A    between atoms: O_16  and  N_17
REMARK   10  A    between atoms: N_17  and  C_18
REMARK                            x       y       z     vdW  Elec       q    Type
REMARK                         _______ _______ _______ _____ _____    ______ ____
ROOT
ATOM      1  C   UNL     1      33.777 -22.776 -18.372  0.00  0.00    +0.203 C 
ENDROOT
BRANCH   1   2
ATOM      2  O   UNL     1      32.634 -22.044 -18.797  0.00  0.00    -0.263 OA
BRANCH   2   3
ATOM      3  N   UNL     1      32.827 -21.681 -20.136  0.00  0.00    -0.079 NA
BRANCH   3   4
ATOM      4  C   UNL     1      32.990 -20.400 -20.196  0.00  0.00    +0.148 C 
BRANCH   4   5
ATOM      5  C   UNL     1      34.185 -19.788 -20.798  0.00  0.00    -0.002 C 
ATOM      6  C   UNL     1      35.189 -18.367 -22.475  0.00  0.00    +0.075 C 
ATOM      7  C   UNL     1      34.056 -18.946 -21.904  0.00  0.00    +0.004 C 
ATOM      8  C   UNL     1      35.447 -20.051 -20.266  0.00  0.00    -0.003 C 
ATOM      9  C   UNL     1      36.451 -18.630 -21.942  0.00  0.00    +0.006 C 
ATOM     10  C   UNL     1      36.579 -19.471 -20.837  0.00  0.00    -0.000 C 
BRANCH   6  12
ATOM     11  O   UNL     1      34.377 -17.724 -24.632  0.00  0.00    -0.245 OA
ATOM     12  C   UNL     1      35.055 -17.488 -23.626  0.00  0.00    +0.338 C 
BRANCH  12  13
ATOM     13  O   UNL     1      35.770 -16.339 -23.490  0.00  0.00    -0.477 OA
ATOM     14  H   UNL     1      35.430 -15.532 -23.825  0.00  0.00    +0.295 HD
ENDBRANCH  12  13
ENDBRANCH   6  12
ENDBRANCH   4   5
ENDBRANCH   3   4
ENDBRANCH   2   3
ENDBRANCH   1   2
BRANCH   1  15
ATOM     15  C   UNL     1      33.503 -23.370 -17.003  0.00  0.00    +0.210 C 
BRANCH  15  16
ATOM     16  O   UNL     1      34.664 -24.050 -16.553  0.00  0.00    -0.233 OA
BRANCH  16  17
ATOM     17  N   UNL     1      35.716 -23.126 -16.497  0.00  0.00    -0.129 NA
BRANCH  17  18
ATOM     18  C   UNL     1      36.027 -22.926 -15.257  0.00  0.00    +0.138 C 
ATOM     19  O   UNL     1      38.254 -27.092 -14.943  0.00  0.00    -0.252 OA
ATOM     20  O   UNL     1      38.104 -24.365 -11.213  0.00  0.00    -0.274 OA
ATOM     21  N   UNL     1      37.179 -25.060 -15.064  0.00  0.00    -0.270 N 
ATOM     22  N   UNL     1      38.192 -25.746 -13.068  0.00  0.00    -0.239 N 
ATOM     23  C   UNL     1      36.784 -23.894 -14.465  0.00  0.00    +0.059 C 
ATOM     24  C   UNL     1      37.062 -23.607 -13.189  0.00  0.00    +0.128 C 
ATOM     25  C   UNL     1      37.899 -26.044 -14.402  0.00  0.00    +0.310 C 
ATOM     26  C   UNL     1      37.829 -24.591 -12.388  0.00  0.00    +0.235 C 
ATOM     27  H   UNL     1      36.939 -25.208 -16.008  0.00  0.00    +0.156 HD
ATOM     28  H   UNL     1      38.703 -26.419 -12.562  0.00  0.00    +0.159 HD
ENDBRANCH  17  18
ENDBRANCH  16  17
ENDBRANCH  15  16
ENDBRANCH   1  15
TORSDOF 10
ENDMDL
MODEL 2
REMARK VINA RESULT:      -9.9      1.349      1.824
REMARK  Name = 25210531
REMARK  10 active torsions:
REMARK  status: ('A' for Active; 'I' for Inactive)
REMARK    1  A    between atoms: C_1  and  O_2
REMARK    2  A    between atoms: C_1  and  C_15
REMARK    3  A    between atoms: O_2  and  N_3
REMARK    4  A    between atoms: N_3  and  C_4
REMARK    5  A    between atoms: C_4  and  C_5
REMARK    6  A    between atoms: C_6  and  C_12
REMARK    7  A    between atoms: C_12  and  O_13
REMARK    8  A    between atoms: C_15  and  O_16
REMARK    9  A    between atoms: O_16  and  N_17
REMARK   10  A    between atoms: N_17  and  C_18
REMARK                            x       y       z     vdW  Elec       q    Type
REMARK                         _______ _______ _______ _____ _____    ______ ____
ROOT
ATOM      1  C   UNL     1      33.279 -23.565 -17.614  0.00  0.00    +0.203 C 
ENDROOT
BRANCH   1   2
ATOM      2  O   UNL     1      32.642 -22.436 -18.202  0.00  0.00    -0.263 OA
BRANCH   2   3
ATOM      3  N   UNL     1      33.073 -22.341 -19.531  0.00  0.00    -0.079 NA
BRANCH   3   4
ATOM      4  C   UNL     1      33.077 -21.094 -19.873  0.00  0.00    +0.148 C 
BRANCH   4   5
ATOM      5  C   UNL     1      34.310 -20.391 -20.263  0.00  0.00    -0.002 C 
ATOM      6  C   UNL     1      35.404 -18.545 -21.374  0.00  0.00    +0.075 C 
ATOM      7  C   UNL     1      34.236 -19.211 -21.005  0.00  0.00    +0.004 C 
ATOM      8  C   UNL     1      35.553 -20.904 -19.892  0.00  0.00    -0.003 C 
ATOM      9  C   UNL     1      36.646 -19.059 -21.003  0.00  0.00    +0.006 C 
ATOM     10  C   UNL     1      36.720 -20.238 -20.261  0.00  0.00    -0.000 C 
BRANCH   6  12
ATOM     11  O   UNL     1      34.878 -16.240 -21.739  0.00  0.00    -0.245 OA
ATOM     12  C   UNL     1      35.327 -17.316 -22.147  0.00  0.00    +0.338 C 
BRANCH  12  13
ATOM     13  O   UNL     1      35.816 -17.463 -23.409  0.00  0.00    -0.477 OA
ATOM     14  H   UNL     1      36.430 -16.842 -23.749  0.00  0.00    +0.295 HD
ENDBRANCH  12  13
ENDBRANCH   6  12
ENDBRANCH   4   5
ENDBRANCH   3   4
ENDBRANCH   2   3
ENDBRANCH   1   2
BRANCH   1  15
ATOM     15  C   UNL     1      33.864 -23.159 -16.274  0.00  0.00    +0.210 C 
BRANCH  15  16
ATOM     16  O   UNL     1      35.126 -23.789 -16.111  0.00  0.00    -0.233 OA
BRANCH  16  17
ATOM     17  N   UNL     1      35.981 -22.888 -15.462  0.00  0.00    -0.129 NA
BRANCH  17  18
ATOM     18  C   UNL     1      37.203 -23.259 -15.663  0.00  0.00    +0.138 C 
ATOM     19  O   UNL     1      37.070 -26.321 -12.055  0.00  0.00    -0.252 OA
ATOM     20  O   UNL     1      40.972 -25.942 -14.504  0.00  0.00    -0.274 OA
ATOM     21  N   UNL     1      37.166 -24.841 -13.815  0.00  0.00    -0.270 N 
ATOM     22  N   UNL     1      39.028 -26.149 -13.264  0.00  0.00    -0.239 N 
ATOM     23  C   UNL     1      37.870 -24.268 -14.840  0.00  0.00    +0.059 C 
ATOM     24  C   UNL     1      39.136 -24.593 -15.118  0.00  0.00    +0.128 C 
ATOM     25  C   UNL     1      37.704 -25.807 -12.976  0.00  0.00    +0.310 C 
ATOM     26  C   UNL     1      39.809 -25.616 -14.282  0.00  0.00    +0.235 C 
ATOM     27  H   UNL     1      36.236 -24.554 -13.666  0.00  0.00    +0.156 HD
ATOM     28  H   UNL     1      39.448 -26.831 -12.691  0.00  0.00    +0.159 HD
ENDBRANCH  17  18
ENDBRANCH  16  17
ENDBRANCH  15  16
ENDBRANCH   1  15
TORSDOF 10
ENDMDL
MODEL 3
REMARK VINA RESULT:      -9.9      3.403      5.957
REMARK  Name = 25210531
REMARK  10 active torsions:
REMARK  status: ('A' for Active; 'I' for Inactive)
REMARK    1  A    between atoms: C_1  and  O_2
REMARK    2  A    between atoms: C_1  and  C_15
REMARK    3  A    between atoms: O_2  and  N_3
REMARK    4  A    between atoms: N_3  and  C_4
REMARK    5  A    between atoms: C_4  and  C_5
REMARK    6  A    between atoms: C_6  and  C_12
REMARK    7  A    between atoms: C_12  and  O_13
REMARK    8  A    between atoms: C_15  and  O_16
REMARK    9  A    between atoms: O_16  and  N_17
REMARK   10  A    between atoms: N_17  and  C_18
REMARK                            x       y       z     vdW  Elec       q    Type
REMARK                         _______ _______ _______ _____ _____    ______ ____
ROOT
ATOM      1  C   UNL     1      35.284 -21.683 -19.223  0.00  0.00    +0.203 C 
ENDROOT
BRANCH   1   2
ATOM      2  O   UNL     1      34.729 -22.987 -19.084  0.00  0.00    -0.263 OA
BRANCH   2   3
ATOM      3  N   UNL     1      33.453 -22.856 -18.522  0.00  0.00    -0.079 NA
BRANCH   3   4
ATOM      4  C   UNL     1      33.496 -23.285 -17.303  0.00  0.00    +0.148 C 
BRANCH   4   5
ATOM      5  C   UNL     1      32.348 -23.168 -16.390  0.00  0.00    -0.002 C 
ATOM      6  C   UNL     1      29.974 -22.891 -16.038  0.00  0.00    +0.075 C 
ATOM      7  C   UNL     1      31.061 -23.002 -16.904  0.00  0.00    +0.004 C 
ATOM      8  C   UNL     1      32.546 -23.221 -15.010  0.00  0.00    -0.003 C 
ATOM      9  C   UNL     1      30.172 -22.944 -14.658  0.00  0.00    +0.006 C 
ATOM     10  C   UNL     1      31.458 -23.110 -14.145  0.00  0.00    -0.000 C 
BRANCH   6  12
ATOM     11  O   UNL     1      28.208 -23.220 -17.619  0.00  0.00    -0.245 OA
ATOM     12  C   UNL     1      28.632 -22.718 -16.573  0.00  0.00    +0.338 C 
BRANCH  12  13
ATOM     13  O   UNL     1      27.856 -21.924 -15.786  0.00  0.00    -0.477 OA
ATOM     14  H   UNL     1      27.932 -20.992 -15.840  0.00  0.00    +0.295 HD
ENDBRANCH  12  13
ENDBRANCH   6  12
ENDBRANCH   4   5
ENDBRANCH   3   4
ENDBRANCH   2   3
ENDBRANCH   1   2
BRANCH   1  15
ATOM     15  C   UNL     1      36.636 -21.645 -18.536  0.00  0.00    +0.210 C 
BRANCH  15  16
ATOM     16  O   UNL     1      36.440 -21.626 -17.131  0.00  0.00    -0.233 OA
BRANCH  16  17
ATOM     17  N   UNL     1      37.436 -22.418 -16.542  0.00  0.00    -0.129 NA
BRANCH  17  18
ATOM     18  C   UNL     1      36.940 -23.000 -15.499  0.00  0.00    +0.138 C 
ATOM     19  O   UNL     1      40.552 -26.049 -15.244  0.00  0.00    -0.252 OA
ATOM     20  O   UNL     1      37.174 -26.339 -12.102  0.00  0.00    -0.274 OA
ATOM     21  N   UNL     1      38.783 -24.581 -15.341  0.00  0.00    -0.270 N 
ATOM     22  N   UNL     1      38.877 -26.212 -13.664  0.00  0.00    -0.239 N 
ATOM     23  C   UNL     1      37.595 -24.126 -14.835  0.00  0.00    +0.059 C 
ATOM     24  C   UNL     1      37.012 -24.669 -13.761  0.00  0.00    +0.128 C 
ATOM     25  C   UNL     1      39.484 -25.643 -14.787  0.00  0.00    +0.310 C 
ATOM     26  C   UNL     1      37.678 -25.812 -13.090  0.00  0.00    +0.235 C 
ATOM     27  H   UNL     1      39.156 -24.135 -16.136  0.00  0.00    +0.156 HD
ATOM     28  H   UNL     1      39.343 -26.969 -13.241  0.00  0.00    +0.159 HD
ENDBRANCH  17  18
ENDBRANCH  16  17
ENDBRANCH  15  16
ENDBRANCH   1  15
TORSDOF 10
ENDMDL
MODEL 4
REMARK VINA RESULT:      -9.7      5.255     11.176
REMARK  Name = 25210531
REMARK  10 active torsions:
REMARK  status: ('A' for Active; 'I' for Inactive)
REMARK    1  A    between atoms: C_1  and  O_2
REMARK    2  A    between atoms: C_1  and  C_15
REMARK    3  A    between atoms: O_2  and  N_3
REMARK    4  A    between atoms: N_3  and  C_4
REMARK    5  A    between atoms: C_4  and  C_5
REMARK    6  A    between atoms: C_6  and  C_12
REMARK    7  A    between atoms: C_12  and  O_13
REMARK    8  A    between atoms: C_15  and  O_16
REMARK    9  A    between atoms: O_16  and  N_17
REMARK   10  A    between atoms: N_17  and  C_18
REMARK                            x       y       z     vdW  Elec       q    Type
REMARK                         _______ _______ _______ _____ _____    ______ ____
ROOT
ATOM      1  C   UNL     1      35.064 -17.759 -23.829  0.00  0.00    +0.203 C 
ENDROOT
BRANCH   1   2
ATOM      2  O   UNL     1      34.374 -16.922 -22.908  0.00  0.00    -0.263 OA
BRANCH   2   3
ATOM      3  N   UNL     1      34.602 -17.417 -21.619  0.00  0.00    -0.079 NA
BRANCH   3   4
ATOM      4  C   UNL     1      33.997 -18.554 -21.503  0.00  0.00    +0.148 C 
BRANCH   4   5
ATOM      5  C   UNL     1      34.575 -19.677 -20.747  0.00  0.00    -0.002 C 
ATOM      6  C   UNL     1      34.287 -21.669 -19.411  0.00  0.00    +0.075 C 
ATOM      7  C   UNL     1      33.738 -20.606 -20.127  0.00  0.00    +0.004 C 
ATOM      8  C   UNL     1      35.960 -19.813 -20.649  0.00  0.00    -0.003 C 
ATOM      9  C   UNL     1      35.672 -21.804 -19.314  0.00  0.00    +0.006 C 
ATOM     10  C   UNL     1      36.508 -20.876 -19.933  0.00  0.00    -0.000 C 
BRANCH   6  12
ATOM     11  O   UNL     1      32.375 -22.370 -18.154  0.00  0.00    -0.245 OA
ATOM     12  C   UNL     1      33.415 -22.638 -18.765  0.00  0.00    +0.338 C 
BRANCH  12  13
ATOM     13  O   UNL     1      33.864 -23.915 -18.901  0.00  0.00    -0.477 OA
ATOM     14  H   UNL     1      34.783 -24.083 -18.977  0.00  0.00    +0.295 HD
ENDBRANCH  12  13
ENDBRANCH   6  12
ENDBRANCH   4   5
ENDBRANCH   3   4
ENDBRANCH   2   3
ENDBRANCH   1   2
BRANCH   1  15
ATOM     15  C   UNL     1      34.315 -17.768 -25.148  0.00  0.00    +0.210 C 
BRANCH  15  16
ATOM     16  O   UNL     1      34.638 -16.589 -25.870  0.00  0.00    -0.233 OA
BRANCH  16  17
ATOM     17  N   UNL     1      33.439 -15.973 -26.255  0.00  0.00    -0.129 NA
BRANCH  17  18
ATOM     18  C   UNL     1      33.594 -14.691 -26.193  0.00  0.00    +0.138 C 
ATOM     19  O   UNL     1      32.304 -14.560 -21.640  0.00  0.00    -0.252 OA
ATOM     20  O   UNL     1      33.440 -10.603 -23.741  0.00  0.00    -0.274 OA
ATOM     21  N   UNL     1      32.935 -14.591 -23.853  0.00  0.00    -0.270 N 
ATOM     22  N   UNL     1      32.867 -12.573 -22.669  0.00  0.00    -0.239 N 
ATOM     23  C   UNL     1      33.348 -13.921 -24.974  0.00  0.00    +0.059 C 
ATOM     24  C   UNL     1      33.533 -12.598 -24.998  0.00  0.00    +0.128 C 
ATOM     25  C   UNL     1      32.674 -13.957 -22.647  0.00  0.00    +0.310 C 
ATOM     26  C   UNL     1      33.282 -11.821 -23.760  0.00  0.00    +0.235 C 
ATOM     27  H   UNL     1      32.818 -15.568 -23.906  0.00  0.00    +0.156 HD
ATOM     28  H   UNL     1      32.692 -12.084 -21.832  0.00  0.00    +0.159 HD
ENDBRANCH  17  18
ENDBRANCH  16  17
ENDBRANCH  15  16
ENDBRANCH   1  15
TORSDOF 10
ENDMDL
MODEL 5
REMARK VINA RESULT:      -9.7      1.860      2.684
REMARK  Name = 25210531
REMARK  10 active torsions:
REMARK  status: ('A' for Active; 'I' for Inactive)
REMARK    1  A    between atoms: C_1  and  O_2
REMARK    2  A    between atoms: C_1  and  C_15
REMARK    3  A    between atoms: O_2  and  N_3
REMARK    4  A    between atoms: N_3  and  C_4
REMARK    5  A    between atoms: C_4  and  C_5
REMARK    6  A    between atoms: C_6  and  C_12
REMARK    7  A    between atoms: C_12  and  O_13
REMARK    8  A    between atoms: C_15  and  O_16
REMARK    9  A    between atoms: O_16  and  N_17
REMARK   10  A    between atoms: N_17  and  C_18
REMARK                            x       y       z     vdW  Elec       q    Type
REMARK                         _______ _______ _______ _____ _____    ______ ____
ROOT
ATOM      1  C   UNL     1      33.104 -23.167 -16.674  0.00  0.00    +0.203 C 
ENDROOT
BRANCH   1   2
ATOM      2  O   UNL     1      34.459 -23.569 -16.843  0.00  0.00    -0.263 OA
BRANCH   2   3
ATOM      3  N   UNL     1      35.054 -22.702 -17.767  0.00  0.00    -0.079 NA
BRANCH   3   4
ATOM      4  C   UNL     1      34.296 -22.634 -18.813  0.00  0.00    +0.148 C 
BRANCH   4   5
ATOM      5  C   UNL     1      34.155 -21.398 -19.601  0.00  0.00    -0.002 C 
ATOM      6  C   UNL     1      35.154 -19.592 -20.857  0.00  0.00    +0.075 C 
ATOM      7  C   UNL     1      35.288 -20.762 -20.111  0.00  0.00    +0.004 C 
ATOM      8  C   UNL     1      32.889 -20.862 -19.837  0.00  0.00    -0.003 C 
ATOM      9  C   UNL     1      33.888 -19.056 -21.093  0.00  0.00    +0.006 C 
ATOM     10  C   UNL     1      32.756 -19.692 -20.583  0.00  0.00    -0.000 C 
BRANCH   6  12
ATOM     11  O   UNL     1      37.500 -19.166 -21.056  0.00  0.00    -0.245 OA
ATOM     12  C   UNL     1      36.335 -18.929 -21.388  0.00  0.00    +0.338 C 
BRANCH  12  13
ATOM     13  O   UNL     1      36.027 -17.988 -22.323  0.00  0.00    -0.477 OA
ATOM     14  H   UNL     1      36.699 -17.437 -22.672  0.00  0.00    +0.295 HD
ENDBRANCH  12  13
ENDBRANCH   6  12
ENDBRANCH   4   5
ENDBRANCH   3   4
ENDBRANCH   2   3
ENDBRANCH   1   2
BRANCH   1  15
ATOM     15  C   UNL     1      32.696 -23.398 -15.231  0.00  0.00    +0.210 C 
BRANCH  15  16
ATOM     16  O   UNL     1      33.263 -24.618 -14.779  0.00  0.00    -0.233 OA
BRANCH  16  17
ATOM     17  N   UNL     1      33.504 -24.503 -13.403  0.00  0.00    -0.129 NA
BRANCH  17  18
ATOM     18  C   UNL     1      34.716 -24.088 -13.227  0.00  0.00    +0.138 C 
ATOM     19  O   UNL     1      36.475 -27.405 -16.111  0.00  0.00    -0.252 OA
ATOM     20  O   UNL     1      39.391 -24.430 -14.107  0.00  0.00    -0.274 OA
ATOM     21  N   UNL     1      35.650 -25.780 -14.704  0.00  0.00    -0.270 N 
ATOM     22  N   UNL     1      37.949 -25.930 -15.122  0.00  0.00    -0.239 N 
ATOM     23  C   UNL     1      35.868 -24.711 -13.877  0.00  0.00    +0.059 C 
ATOM     24  C   UNL     1      37.088 -24.218 -13.640  0.00  0.00    +0.128 C 
ATOM     25  C   UNL     1      36.673 -26.444 -15.367  0.00  0.00    +0.310 C 
ATOM     26  C   UNL     1      38.254 -24.853 -14.299  0.00  0.00    +0.235 C 
ATOM     27  H   UNL     1      34.725 -26.093 -14.834  0.00  0.00    +0.156 HD
ATOM     28  H   UNL     1      38.703 -26.373 -15.573  0.00  0.00    +0.159 HD
ENDBRANCH  17  18
ENDBRANCH  16  17
ENDBRANCH  15  16
ENDBRANCH   1  15
TORSDOF 10
ENDMDL
MODEL 6
REMARK VINA RESULT:      -9.6      2.108      2.622
REMARK  Name = 25210531
REMARK  10 active torsions:
REMARK  status: ('A' for Active; 'I' for Inactive)
REMARK    1  A    between atoms: C_1  and  O_2
REMARK    2  A    between atoms: C_1  and  C_15
REMARK    3  A    between atoms: O_2  and  N_3
REMARK    4  A    between atoms: N_3  and  C_4
REMARK    5  A    between atoms: C_4  and  C_5
REMARK    6  A    between atoms: C_6  and  C_12
REMARK    7  A    between atoms: C_12  and  O_13
REMARK    8  A    between atoms: C_15  and  O_16
REMARK    9  A    between atoms: O_16  and  N_17
REMARK   10  A    between atoms: N_17  and  C_18
REMARK                            x       y       z     vdW  Elec       q    Type
REMARK                         _______ _______ _______ _____ _____    ______ ____
ROOT
ATOM      1  C   UNL     1      35.306 -21.545 -19.543  0.00  0.00    +0.203 C 
ENDROOT
BRANCH   1   2
ATOM      2  O   UNL     1      35.061 -20.190 -19.901  0.00  0.00    -0.263 OA
BRANCH   2   3
ATOM      3  N   UNL     1      36.156 -19.735 -20.646  0.00  0.00    -0.079 NA
BRANCH   3   4
ATOM      4  C   UNL     1      35.956 -18.495 -20.955  0.00  0.00    +0.148 C 
BRANCH   4   5
ATOM      5  C   UNL     1      35.406 -18.090 -22.259  0.00  0.00    -0.002 C 
ATOM      6  C   UNL     1      34.535 -16.375 -23.720  0.00  0.00    +0.075 C 
ATOM      7  C   UNL     1      35.056 -16.758 -22.485  0.00  0.00    +0.004 C 
ATOM      8  C   UNL     1      35.234 -19.037 -23.268  0.00  0.00    -0.003 C 
ATOM      9  C   UNL     1      34.363 -17.322 -24.729  0.00  0.00    +0.006 C 
ATOM     10  C   UNL     1      34.713 -18.653 -24.503  0.00  0.00    -0.000 C 
BRANCH   6  12
ATOM     11  O   UNL     1      33.431 -14.584 -24.860  0.00  0.00    -0.245 OA
ATOM     12  C   UNL     1      34.170 -14.987 -23.957  0.00  0.00    +0.338 C 
BRANCH  12  13
ATOM     13  O   UNL     1      34.737 -14.139 -23.056  0.00  0.00    -0.477 OA
ATOM     14  H   UNL     1      35.461 -13.601 -23.310  0.00  0.00    +0.295 HD
ENDBRANCH  12  13
ENDBRANCH   6  12
ENDBRANCH   4   5
ENDBRANCH   3   4
ENDBRANCH   2   3
ENDBRANCH   1   2
BRANCH   1  15
ATOM     15  C   UNL     1      36.423 -21.591 -18.518  0.00  0.00    +0.210 C 
BRANCH  15  16
ATOM     16  O   UNL     1      36.049 -22.466 -17.464  0.00  0.00    -0.233 OA
BRANCH  16  17
ATOM     17  N   UNL     1      37.076 -22.462 -16.510  0.00  0.00    -0.129 NA
BRANCH  17  18
ATOM     18  C   UNL     1      36.655 -23.066 -15.447  0.00  0.00    +0.138 C 
ATOM     19  O   UNL     1      40.438 -25.910 -15.329  0.00  0.00    -0.252 OA
ATOM     20  O   UNL     1      37.210 -26.370 -12.052  0.00  0.00    -0.274 OA
ATOM     21  N   UNL     1      38.587 -24.542 -15.359  0.00  0.00    -0.270 N 
ATOM     22  N   UNL     1      38.839 -26.157 -13.683  0.00  0.00    -0.239 N 
ATOM     23  C   UNL     1      37.397 -24.151 -14.806  0.00  0.00    +0.059 C 
ATOM     24  C   UNL     1      36.889 -24.720 -13.708  0.00  0.00    +0.128 C 
ATOM     25  C   UNL     1      39.368 -25.560 -14.831  0.00  0.00    +0.310 C 
ATOM     26  C   UNL     1      37.643 -25.821 -13.062  0.00  0.00    +0.235 C 
ATOM     27  H   UNL     1      38.903 -24.079 -16.169  0.00  0.00    +0.156 HD
ATOM     28  H   UNL     1      39.363 -26.885 -13.276  0.00  0.00    +0.159 HD
ENDBRANCH  17  18
ENDBRANCH  16  17
ENDBRANCH  15  16
ENDBRANCH   1  15
TORSDOF 10
ENDMDL
MODEL 7
REMARK VINA RESULT:      -9.6      4.084     10.089
REMARK  Name = 25210531
REMARK  10 active torsions:
REMARK  status: ('A' for Active; 'I' for Inactive)
REMARK    1  A    between atoms: C_1  and  O_2
REMARK    2  A    between atoms: C_1  and  C_15
REMARK    3  A    between atoms: O_2  and  N_3
REMARK    4  A    between atoms: N_3  and  C_4
REMARK    5  A    between atoms: C_4  and  C_5
REMARK    6  A    between atoms: C_6  and  C_12
REMARK    7  A    between atoms: C_12  and  O_13
REMARK    8  A    between atoms: C_15  and  O_16
REMARK    9  A    between atoms: O_16  and  N_17
REMARK   10  A    between atoms: N_17  and  C_18
REMARK                            x       y       z     vdW  Elec       q    Type
REMARK                         _______ _______ _______ _____ _____    ______ ____
ROOT
ATOM      1  C   UNL     1      35.329 -22.007 -19.065  0.00  0.00    +0.203 C 
ENDROOT
BRANCH   1   2
ATOM      2  O   UNL     1      34.383 -23.025 -19.372  0.00  0.00    -0.263 OA
BRANCH   2   3
ATOM      3  N   UNL     1      33.203 -22.742 -18.672  0.00  0.00    -0.079 NA
BRANCH   3   4
ATOM      4  C   UNL     1      33.360 -23.100 -17.440  0.00  0.00    +0.148 C 
BRANCH   4   5
ATOM      5  C   UNL     1      32.249 -23.100 -16.475  0.00  0.00    -0.002 C 
ATOM      6  C   UNL     1      29.892 -22.861 -15.997  0.00  0.00    +0.075 C 
ATOM      7  C   UNL     1      30.945 -22.862 -16.912  0.00  0.00    +0.004 C 
ATOM      8  C   UNL     1      32.499 -23.335 -15.123  0.00  0.00    -0.003 C 
ATOM      9  C   UNL     1      30.143 -23.097 -14.645  0.00  0.00    +0.006 C 
ATOM     10  C   UNL     1      31.446 -23.334 -14.209  0.00  0.00    -0.000 C 
BRANCH   6  12
ATOM     11  O   UNL     1      27.700 -21.912 -15.871  0.00  0.00    -0.245 OA
ATOM     12  C   UNL     1      28.533 -22.614 -16.452  0.00  0.00    +0.338 C 
BRANCH  12  13
ATOM     13  O   UNL     1      28.253 -23.250 -17.622  0.00  0.00    -0.477 OA
ATOM     14  H   UNL     1      28.041 -22.751 -18.388  0.00  0.00    +0.295 HD
ENDBRANCH  12  13
ENDBRANCH   6  12
ENDBRANCH   4   5
ENDBRANCH   3   4
ENDBRANCH   2   3
ENDBRANCH   1   2
BRANCH   1  15
ATOM     15  C   UNL     1      35.044 -20.790 -19.925  0.00  0.00    +0.210 C 
BRANCH  15  16
ATOM     16  O   UNL     1      36.223 -20.006 -20.022  0.00  0.00    -0.233 OA
BRANCH  16  17
ATOM     17  N   UNL     1      35.866 -18.743 -20.515  0.00  0.00    -0.129 NA
BRANCH  17  18
ATOM     18  C   UNL     1      35.705 -18.828 -21.795  0.00  0.00    +0.138 C 
ATOM     19  O   UNL     1      34.394 -14.292 -22.128  0.00  0.00    -0.252 OA
ATOM     20  O   UNL     1      34.552 -16.847 -25.977  0.00  0.00    -0.274 OA
ATOM     21  N   UNL     1      35.028 -16.501 -21.999  0.00  0.00    -0.270 N 
ATOM     22  N   UNL     1      34.466 -15.549 -24.063  0.00  0.00    -0.239 N 
ATOM     23  C   UNL     1      35.273 -17.698 -22.616  0.00  0.00    +0.059 C 
ATOM     24  C   UNL     1      35.133 -17.874 -23.934  0.00  0.00    +0.128 C 
ATOM     25  C   UNL     1      34.613 -15.367 -22.685  0.00  0.00    +0.310 C 
ATOM     26  C   UNL     1      34.693 -16.726 -24.763  0.00  0.00    +0.235 C 
ATOM     27  H   UNL     1      35.151 -16.441 -21.024  0.00  0.00    +0.156 HD
ATOM     28  H   UNL     1      34.173 -14.768 -24.587  0.00  0.00    +0.159 HD
ENDBRANCH  17  18
ENDBRANCH  16  17
ENDBRANCH  15  16
ENDBRANCH   1  15
TORSDOF 10
ENDMDL
MODEL 8
REMARK VINA RESULT:      -9.5      2.587     10.630
REMARK  Name = 25210531
REMARK  10 active torsions:
REMARK  status: ('A' for Active; 'I' for Inactive)
REMARK    1  A    between atoms: C_1  and  O_2
REMARK    2  A    between atoms: C_1  and  C_15
REMARK    3  A    between atoms: O_2  and  N_3
REMARK    4  A    between atoms: N_3  and  C_4
REMARK    5  A    between atoms: C_4  and  C_5
REMARK    6  A    between atoms: C_6  and  C_12
REMARK    7  A    between atoms: C_12  and  O_13
REMARK    8  A    between atoms: C_15  and  O_16
REMARK    9  A    between atoms: O_16  and  N_17
REMARK   10  A    between atoms: N_17  and  C_18
REMARK                            x       y       z     vdW  Elec       q    Type
REMARK                         _______ _______ _______ _____ _____    ______ ____
ROOT
ATOM      1  C   UNL     1      35.926 -21.661 -18.720  0.00  0.00    +0.203 C 
ENDROOT
BRANCH   1   2
ATOM      2  O   UNL     1      36.885 -21.992 -17.723  0.00  0.00    -0.263 OA
BRANCH   2   3
ATOM      3  N   UNL     1      36.251 -22.787 -16.760  0.00  0.00    -0.079 NA
BRANCH   3   4
ATOM      4  C   UNL     1      36.785 -22.542 -15.608  0.00  0.00    +0.148 C 
BRANCH   4   5
ATOM      5  C   UNL     1      37.346 -23.606 -14.760  0.00  0.00    -0.002 C 
ATOM      6  C   UNL     1      39.049 -25.268 -14.340  0.00  0.00    +0.075 C 
ATOM      7  C   UNL     1      38.518 -24.259 -15.144  0.00  0.00    +0.004 C 
ATOM      8  C   UNL     1      36.706 -23.963 -13.574  0.00  0.00    -0.003 C 
ATOM      9  C   UNL     1      38.408 -25.624 -13.154  0.00  0.00    +0.006 C 
ATOM     10  C   UNL     1      37.237 -24.971 -12.771  0.00  0.00    -0.000 C 
BRANCH   6  12
ATOM     11  O   UNL     1      41.082 -26.473 -13.971  0.00  0.00    -0.245 OA
ATOM     12  C   UNL     1      40.271 -25.948 -14.740  0.00  0.00    +0.338 C 
BRANCH  12  13
ATOM     13  O   UNL     1      40.444 -25.956 -16.090  0.00  0.00    -0.477 OA
ATOM     14  H   UNL     1      39.704 -26.050 -16.657  0.00  0.00    +0.295 HD
ENDBRANCH  12  13
ENDBRANCH   6  12
ENDBRANCH   4   5
ENDBRANCH   3   4
ENDBRANCH   2   3
ENDBRANCH   1   2
BRANCH   1  15
ATOM     15  C   UNL     1      36.636 -21.014 -19.894  0.00  0.00    +0.210 C 
BRANCH  15  16
ATOM     16  O   UNL     1      36.062 -19.738 -20.135  0.00  0.00    -0.233 OA
BRANCH  16  17
ATOM     17  N   UNL     1      34.774 -19.930 -20.654  0.00  0.00    -0.129 NA
BRANCH  17  18
ATOM     18  C   UNL     1      34.816 -19.771 -21.936  0.00  0.00    +0.138 C 
ATOM     19  O   UNL     1      34.679 -15.054 -21.549  0.00  0.00    -0.252 OA
ATOM     20  O   UNL     1      34.879 -16.932 -25.768  0.00  0.00    -0.274 OA
ATOM     21  N   UNL     1      34.747 -17.344 -21.770  0.00  0.00    -0.270 N 
ATOM     22  N   UNL     1      34.779 -15.970 -23.665  0.00  0.00    -0.239 N 
ATOM     23  C   UNL     1      34.805 -18.453 -22.571  0.00  0.00    +0.059 C 
ATOM     24  C   UNL     1      34.851 -18.379 -23.905  0.00  0.00    +0.128 C 
ATOM     25  C   UNL     1      34.731 -16.050 -22.271  0.00  0.00    +0.310 C 
ATOM     26  C   UNL     1      34.839 -17.042 -24.546  0.00  0.00    +0.235 C 
ATOM     27  H   UNL     1      34.715 -17.471 -20.794  0.00  0.00    +0.156 HD
ATOM     28  H   UNL     1      34.770 -15.069 -24.061  0.00  0.00    +0.159 HD
ENDBRANCH  17  18
ENDBRANCH  16  17
ENDBRANCH  15  16
ENDBRANCH   1  15
TORSDOF 10
ENDMDL
MODEL 9
REMARK VINA RESULT:      -9.5      3.776      5.133
REMARK  Name = 25210531
REMARK  10 active torsions:
REMARK  status: ('A' for Active; 'I' for Inactive)
REMARK    1  A    between atoms: C_1  and  O_2
REMARK    2  A    between atoms: C_1  and  C_15
REMARK    3  A    between atoms: O_2  and  N_3
REMARK    4  A    between atoms: N_3  and  C_4
REMARK    5  A    between atoms: C_4  and  C_5
REMARK    6  A    between atoms: C_6  and  C_12
REMARK    7  A    between atoms: C_12  and  O_13
REMARK    8  A    between atoms: C_15  and  O_16
REMARK    9  A    between atoms: O_16  and  N_17
REMARK   10  A    between atoms: N_17  and  C_18
REMARK                            x       y       z     vdW  Elec       q    Type
REMARK                         _______ _______ _______ _____ _____    ______ ____
ROOT
ATOM      1  C   UNL     1      36.469 -21.331 -19.874  0.00  0.00    +0.203 C 
ENDROOT
BRANCH   1   2
ATOM      2  O   UNL     1      36.528 -19.913 -19.774  0.00  0.00    -0.263 OA
BRANCH   2   3
ATOM      3  N   UNL     1      35.531 -19.380 -20.601  0.00  0.00    -0.079 NA
BRANCH   3   4
ATOM      4  C   UNL     1      36.064 -18.473 -21.354  0.00  0.00    +0.148 C 
BRANCH   4   5
ATOM      5  C   UNL     1      35.429 -18.016 -22.601  0.00  0.00    -0.002 C 
ATOM      6  C   UNL     1      34.420 -16.255 -23.911  0.00  0.00    +0.075 C 
ATOM      7  C   UNL     1      35.022 -16.687 -22.730  0.00  0.00    +0.004 C 
ATOM      8  C   UNL     1      35.233 -18.911 -23.653  0.00  0.00    -0.003 C 
ATOM      9  C   UNL     1      34.224 -17.150 -24.963  0.00  0.00    +0.006 C 
ATOM     10  C   UNL     1      34.631 -18.477 -24.833  0.00  0.00    -0.000 C 
BRANCH   6  12
ATOM     11  O   UNL     1      34.279 -13.955 -23.268  0.00  0.00    -0.245 OA
ATOM     12  C   UNL     1      33.996 -14.870 -24.047  0.00  0.00    +0.338 C 
BRANCH  12  13
ATOM     13  O   UNL     1      33.230 -14.666 -25.153  0.00  0.00    -0.477 OA
ATOM     14  H   UNL     1      33.452 -15.087 -25.961  0.00  0.00    +0.295 HD
ENDBRANCH  12  13
ENDBRANCH   6  12
ENDBRANCH   4   5
ENDBRANCH   3   4
ENDBRANCH   2   3
ENDBRANCH   1   2
BRANCH   1  15
ATOM     15  C   UNL     1      35.070 -21.795 -19.514  0.00  0.00    +0.210 C 
BRANCH  15  16
ATOM     16  O   UNL     1      35.117 -22.484 -18.274  0.00  0.00    -0.233 OA
BRANCH  16  17
ATOM     17  N   UNL     1      33.883 -23.122 -18.084  0.00  0.00    -0.129 NA
BRANCH  17  18
ATOM     18  C   UNL     1      33.724 -23.348 -16.821  0.00  0.00    +0.138 C 
ATOM     19  O   UNL     1      29.088 -22.412 -17.039  0.00  0.00    -0.252 OA
ATOM     20  O   UNL     1      30.926 -23.594 -12.966  0.00  0.00    -0.274 OA
ATOM     21  N   UNL     1      31.339 -22.873 -16.901  0.00  0.00    -0.270 N 
ATOM     22  N   UNL     1      29.985 -23.000 -14.996  0.00  0.00    -0.239 N 
ATOM     23  C   UNL     1      32.427 -23.235 -16.153  0.00  0.00    +0.059 C 
ATOM     24  C   UNL     1      32.352 -23.488 -14.843  0.00  0.00    +0.128 C 
ATOM     25  C   UNL     1      30.066 -22.736 -16.366  0.00  0.00    +0.310 C 
ATOM     26  C   UNL     1      31.037 -23.371 -14.169  0.00  0.00    +0.235 C 
ATOM     27  H   UNL     1      31.466 -22.701 -17.862  0.00  0.00    +0.156 HD
ATOM     28  H   UNL     1      29.098 -22.915 -14.576  0.00  0.00    +0.159 HD
ENDBRANCH  17  18
ENDBRANCH  16  17
ENDBRANCH  15  16
ENDBRANCH   1  15
TORSDOF 10
ENDMDL
