MODEL 1
REMARK VINA RESULT:      -8.3      0.000      0.000
REMARK  Name = 441199
REMARK  9 active torsions:
REMARK  status: ('A' for Active; 'I' for Inactive)
REMARK    1  A    between atoms: C_4  and  N_11
REMARK    2  A    between atoms: C_4  and  O_20
REMARK    3  A    between atoms: C_7  and  C_23
REMARK    4  A    between atoms: C_8  and  C_26
REMARK    5  A    between atoms: C_12  and  C_14
REMARK    6  A    between atoms: C_14  and  C_16
REMARK    7  A    between atoms: C_23  and  O_24
REMARK    8  A    between atoms: C_26  and  O_27
REMARK    9  A    between atoms: O_27  and  C_30
REMARK                            x       y       z     vdW  Elec       q    Type
REMARK                         _______ _______ _______ _____ _____    ______ ____
ROOT
ATOM      1  S   UNL     1      32.100 -11.979 -20.952  0.00  0.00    -0.112 S 
ATOM      2  O   UNL     1      34.504 -11.431 -24.895  0.00  0.00    -0.270 OA
ATOM      3  N   UNL     1      32.929 -10.887 -23.225  0.00  0.00    -0.238 N 
ATOM      4  C   UNL     1      32.934 -12.920 -23.512  0.00  0.00    +0.250 C 
ATOM      5  C   UNL     1      32.027 -11.923 -22.756  0.00  0.00    +0.180 C 
ATOM      6  C   UNL     1      33.634 -11.655 -24.086  0.00  0.00    +0.275 C 
ATOM      7  C   UNL     1      32.894  -9.602 -22.790  0.00  0.00    +0.127 C 
ATOM      8  C   UNL     1      32.210  -9.251 -21.675  0.00  0.00    +0.030 C 
ATOM      9  C   UNL     1      31.515 -10.261 -20.764  0.00  0.00    +0.086 C 
ENDROOT
BRANCH   4  11
ATOM     10  O   UNL     1      32.232 -15.249 -21.955  0.00  0.00    -0.275 OA
ATOM     11  N   UNL     1      33.809 -13.677 -22.606  0.00  0.00    -0.277 N 
ATOM     12  C   UNL     1      33.371 -14.790 -21.898  0.00  0.00    +0.229 C 
ATOM     13  H   UNL     1      34.742 -13.384 -22.496  0.00  0.00    +0.152 HD
BRANCH  12  14
ATOM     14  C   UNL     1      34.450 -15.420 -21.040  0.00  0.00    +0.118 C 
BRANCH  14  16
ATOM     15  S   UNL     1      35.237 -16.891 -23.264  0.00  0.00    -0.090 S 
ATOM     16  C   UNL     1      34.807 -16.764 -21.610  0.00  0.00    +0.016 C 
ATOM     17  C   UNL     1      34.845 -17.984 -20.972  0.00  0.00    +0.003 C 
ATOM     18  C   UNL     1      35.232 -19.036 -21.850  0.00  0.00    +0.007 C 
ATOM     19  C   UNL     1      35.475 -18.582 -23.127  0.00  0.00    +0.035 C 
ENDBRANCH  14  16
ENDBRANCH  12  14
ENDBRANCH   4  11
BRANCH   4  20
ATOM     20  O   UNL     1      32.344 -13.728 -24.550  0.00  0.00    -0.330 OA
ATOM     21  C   UNL     1      33.248 -14.548 -25.274  0.00  0.00    +0.176 C 
ENDBRANCH   4  20
BRANCH   7  23
ATOM     22  O   UNL     1      34.890  -8.499 -23.462  0.00  0.00    -0.244 OA
ATOM     23  C   UNL     1      33.684  -8.619 -23.547  0.00  0.00    +0.352 C 
BRANCH  23  24
ATOM     24  O   UNL     1      32.863  -7.893 -24.331  0.00  0.00    -0.476 OA
ATOM     25  H   UNL     1      32.611  -8.217 -25.173  0.00  0.00    +0.295 HD
ENDBRANCH  23  24
ENDBRANCH   7  23
BRANCH   8  26
ATOM     26  C   UNL     1      32.055  -7.836 -21.173  0.00  0.00    +0.235 C 
BRANCH  26  27
ATOM     27  O   UNL     1      31.145  -7.144 -22.002  0.00  0.00    -0.430 OA
BRANCH  27  30
ATOM     28  O   UNL     1      31.969  -5.261 -23.041  0.00  0.00    -0.227 OA
ATOM     29  N   UNL     1      30.741  -5.104 -21.103  0.00  0.00    -0.295 N 
ATOM     30  C   UNL     1      31.341  -5.790 -22.129  0.00  0.00    +0.399 C 
ATOM     31  H   UNL     1      30.251  -5.594 -20.404  0.00  0.00    +0.148 HD
ATOM     32  H   UNL     1      30.800  -4.122 -21.067  0.00  0.00    +0.148 HD
ENDBRANCH  27  30
ENDBRANCH  26  27
ENDBRANCH   8  26
TORSDOF 9
ENDMDL
MODEL 2
REMARK VINA RESULT:      -7.9      9.317     13.640
REMARK  Name = 441199
REMARK  9 active torsions:
REMARK  status: ('A' for Active; 'I' for Inactive)
REMARK    1  A    between atoms: C_4  and  N_11
REMARK    2  A    between atoms: C_4  and  O_20
REMARK    3  A    between atoms: C_7  and  C_23
REMARK    4  A    between atoms: C_8  and  C_26
REMARK    5  A    between atoms: C_12  and  C_14
REMARK    6  A    between atoms: C_14  and  C_16
REMARK    7  A    between atoms: C_23  and  O_24
REMARK    8  A    between atoms: C_26  and  O_27
REMARK    9  A    between atoms: O_27  and  C_30
REMARK                            x       y       z     vdW  Elec       q    Type
REMARK                         _______ _______ _______ _____ _____    ______ ____
ROOT
ATOM      1  S   UNL     1      36.829 -22.650 -15.959  0.00  0.00    -0.112 S 
ATOM      2  O   UNL     1      32.525 -24.160 -16.867  0.00  0.00    -0.270 OA
ATOM      3  N   UNL     1      34.409 -22.753 -17.048  0.00  0.00    -0.238 N 
ATOM      4  C   UNL     1      34.205 -23.360 -15.097  0.00  0.00    +0.250 C 
ATOM      5  C   UNL     1      35.060 -22.303 -15.830  0.00  0.00    +0.180 C 
ATOM      6  C   UNL     1      33.475 -23.532 -16.459  0.00  0.00    +0.275 C 
ATOM      7  C   UNL     1      34.795 -22.375 -18.293  0.00  0.00    +0.127 C 
ATOM      8  C   UNL     1      35.994 -21.784 -18.514  0.00  0.00    +0.030 C 
ATOM      9  C   UNL     1      37.045 -21.584 -17.424  0.00  0.00    +0.086 C 
ENDROOT
BRANCH   4  11
ATOM     10  O   UNL     1      35.686 -23.783 -12.655  0.00  0.00    -0.275 OA
ATOM     11  N   UNL     1      34.982 -24.551 -14.728  0.00  0.00    -0.277 N 
ATOM     12  C   UNL     1      35.663 -24.656 -13.522  0.00  0.00    +0.229 C 
ATOM     13  H   UNL     1      35.021 -25.303 -15.360  0.00  0.00    +0.152 HD
BRANCH  12  14
ATOM     14  C   UNL     1      36.382 -25.979 -13.349  0.00  0.00    +0.118 C 
BRANCH  14  16
ATOM     15  S   UNL     1      38.900 -24.918 -12.837  0.00  0.00    -0.090 S 
ATOM     16  C   UNL     1      37.808 -25.825 -13.797  0.00  0.00    +0.016 C 
ATOM     17  C   UNL     1      38.412 -26.330 -14.927  0.00  0.00    +0.003 C 
ATOM     18  C   UNL     1      39.787 -25.968 -15.007  0.00  0.00    +0.007 C 
ATOM     19  C   UNL     1      40.184 -25.200 -13.934  0.00  0.00    +0.035 C 
ENDBRANCH  14  16
ENDBRANCH  12  14
ENDBRANCH   4  11
BRANCH   4  20
ATOM     20  O   UNL     1      33.309 -22.912 -14.059  0.00  0.00    -0.330 OA
ATOM     21  C   UNL     1      32.344 -23.862 -13.634  0.00  0.00    +0.176 C 
ENDBRANCH   4  20
BRANCH   7  23
ATOM     22  O   UNL     1      33.104 -21.904 -19.897  0.00  0.00    -0.244 OA
ATOM     23  C   UNL     1      33.881 -22.695 -19.400  0.00  0.00    +0.352 C 
BRANCH  23  24
ATOM     24  O   UNL     1      34.046 -23.983 -19.758  0.00  0.00    -0.476 OA
ATOM     25  H   UNL     1      33.905 -24.665 -19.131  0.00  0.00    +0.295 HD
ENDBRANCH  23  24
ENDBRANCH   7  23
BRANCH   8  26
ATOM     26  C   UNL     1      36.459 -21.263 -19.852  0.00  0.00    +0.235 C 
BRANCH  26  27
ATOM     27  O   UNL     1      36.426 -19.852 -19.841  0.00  0.00    -0.430 OA
BRANCH  27  30
ATOM     28  O   UNL     1      36.493 -18.593 -21.768  0.00  0.00    -0.227 OA
ATOM     29  N   UNL     1      34.512 -19.460 -20.987  0.00  0.00    -0.295 N 
ATOM     30  C   UNL     1      35.866 -19.244 -20.939  0.00  0.00    +0.399 C 
ATOM     31  H   UNL     1      34.073 -19.994 -20.286  0.00  0.00    +0.148 HD
ATOM     32  H   UNL     1      33.979 -19.081 -21.723  0.00  0.00    +0.148 HD
ENDBRANCH  27  30
ENDBRANCH  26  27
ENDBRANCH   8  26
TORSDOF 9
ENDMDL
MODEL 3
REMARK VINA RESULT:      -7.8      1.734      2.074
REMARK  Name = 441199
REMARK  9 active torsions:
REMARK  status: ('A' for Active; 'I' for Inactive)
REMARK    1  A    between atoms: C_4  and  N_11
REMARK    2  A    between atoms: C_4  and  O_20
REMARK    3  A    between atoms: C_7  and  C_23
REMARK    4  A    between atoms: C_8  and  C_26
REMARK    5  A    between atoms: C_12  and  C_14
REMARK    6  A    between atoms: C_14  and  C_16
REMARK    7  A    between atoms: C_23  and  O_24
REMARK    8  A    between atoms: C_26  and  O_27
REMARK    9  A    between atoms: O_27  and  C_30
REMARK                            x       y       z     vdW  Elec       q    Type
REMARK                         _______ _______ _______ _____ _____    ______ ____
ROOT
ATOM      1  S   UNL     1      32.374 -13.456 -21.880  0.00  0.00    -0.112 S 
ATOM      2  O   UNL     1      34.377 -11.415 -25.548  0.00  0.00    -0.270 OA
ATOM      3  N   UNL     1      32.842 -11.654 -23.773  0.00  0.00    -0.238 N 
ATOM      4  C   UNL     1      33.196 -13.494 -24.611  0.00  0.00    +0.250 C 
ATOM      5  C   UNL     1      32.175 -12.931 -23.598  0.00  0.00    +0.180 C 
ATOM      6  C   UNL     1      33.617 -12.012 -24.821  0.00  0.00    +0.275 C 
ATOM      7  C   UNL     1      32.603 -10.565 -22.999  0.00  0.00    +0.127 C 
ATOM      8  C   UNL     1      31.941 -10.666 -21.821  0.00  0.00    +0.030 C 
ATOM      9  C   UNL     1      31.501 -11.998 -21.217  0.00  0.00    +0.086 C 
ENDROOT
BRANCH   4  11
ATOM     10  O   UNL     1      33.650 -16.335 -24.866  0.00  0.00    -0.275 OA
ATOM     11  N   UNL     1      34.251 -14.284 -23.961  0.00  0.00    -0.277 N 
ATOM     12  C   UNL     1      34.384 -15.654 -24.150  0.00  0.00    +0.229 C 
ATOM     13  H   UNL     1      34.889 -13.825 -23.369  0.00  0.00    +0.152 HD
BRANCH  12  14
ATOM     14  C   UNL     1      35.552 -16.256 -23.395  0.00  0.00    +0.118 C 
BRANCH  14  16
ATOM     15  S   UNL     1      34.157 -17.294 -21.226  0.00  0.00    -0.090 S 
ATOM     16  C   UNL     1      35.082 -17.478 -22.657  0.00  0.00    +0.016 C 
ATOM     17  C   UNL     1      35.292 -18.803 -22.968  0.00  0.00    +0.003 C 
ATOM     18  C   UNL     1      34.687 -19.678 -22.022  0.00  0.00    +0.007 C 
ATOM     19  C   UNL     1      34.036 -18.990 -21.022  0.00  0.00    +0.035 C 
ENDBRANCH  14  16
ENDBRANCH  12  14
ENDBRANCH   4  11
BRANCH   4  20
ATOM     20  O   UNL     1      32.696 -14.090 -25.825  0.00  0.00    -0.330 OA
ATOM     21  C   UNL     1      33.383 -13.725 -27.012  0.00  0.00    +0.176 C 
ENDBRANCH   4  20
BRANCH   7  23
ATOM     22  O   UNL     1      32.486  -8.389 -23.949  0.00  0.00    -0.244 OA
ATOM     23  C   UNL     1      33.151  -9.282 -23.464  0.00  0.00    +0.352 C 
BRANCH  23  24
ATOM     24  O   UNL     1      34.484  -9.268 -23.267  0.00  0.00    -0.476 OA
ATOM     25  H   UNL     1      35.044  -8.835 -23.881  0.00  0.00    +0.295 HD
ENDBRANCH  23  24
ENDBRANCH   7  23
BRANCH   8  26
ATOM     26  C   UNL     1      31.566  -9.495 -20.945  0.00  0.00    +0.235 C 
BRANCH  26  27
ATOM     27  O   UNL     1      32.736  -8.801 -20.568  0.00  0.00    -0.430 OA
BRANCH  27  30
ATOM     28  O   UNL     1      33.067  -6.878 -19.344  0.00  0.00    -0.227 OA
ATOM     29  N   UNL     1      31.863  -6.844 -21.302  0.00  0.00    -0.295 N 
ATOM     30  C   UNL     1      32.597  -7.457 -20.318  0.00  0.00    +0.399 C 
ATOM     31  H   UNL     1      31.516  -7.371 -22.058  0.00  0.00    +0.148 HD
ATOM     32  H   UNL     1      31.684  -5.877 -21.253  0.00  0.00    +0.148 HD
ENDBRANCH  27  30
ENDBRANCH  26  27
ENDBRANCH   8  26
TORSDOF 9
ENDMDL
MODEL 4
REMARK VINA RESULT:      -7.7      1.473      1.886
REMARK  Name = 441199
REMARK  9 active torsions:
REMARK  status: ('A' for Active; 'I' for Inactive)
REMARK    1  A    between atoms: C_4  and  N_11
REMARK    2  A    between atoms: C_4  and  O_20
REMARK    3  A    between atoms: C_7  and  C_23
REMARK    4  A    between atoms: C_8  and  C_26
REMARK    5  A    between atoms: C_12  and  C_14
REMARK    6  A    between atoms: C_14  and  C_16
REMARK    7  A    between atoms: C_23  and  O_24
REMARK    8  A    between atoms: C_26  and  O_27
REMARK    9  A    between atoms: O_27  and  C_30
REMARK                            x       y       z     vdW  Elec       q    Type
REMARK                         _______ _______ _______ _____ _____    ______ ____
ROOT
ATOM      1  S   UNL     1      32.249 -10.998 -22.184  0.00  0.00    -0.112 S 
ATOM      2  O   UNL     1      35.443  -9.995 -25.411  0.00  0.00    -0.270 OA
ATOM      3  N   UNL     1      33.570  -9.619 -24.029  0.00  0.00    -0.238 N 
ATOM      4  C   UNL     1      33.574 -11.578 -24.641  0.00  0.00    +0.250 C 
ATOM      5  C   UNL     1      32.559 -10.656 -23.931  0.00  0.00    +0.180 C 
ATOM      6  C   UNL     1      34.416 -10.287 -24.843  0.00  0.00    +0.275 C 
ATOM      7  C   UNL     1      33.482  -8.418 -23.402  0.00  0.00    +0.127 C 
ATOM      8  C   UNL     1      32.589  -8.202 -22.406  0.00  0.00    +0.030 C 
ATOM      9  C   UNL     1      31.689  -9.296 -21.836  0.00  0.00    +0.086 C 
ENDROOT
BRANCH   4  11
ATOM     10  O   UNL     1      32.576 -14.159 -23.817  0.00  0.00    -0.275 OA
ATOM     11  N   UNL     1      34.216 -12.521 -23.715  0.00  0.00    -0.277 N 
ATOM     12  C   UNL     1      33.650 -13.745 -23.382  0.00  0.00    +0.229 C 
ATOM     13  H   UNL     1      35.081 -12.276 -23.316  0.00  0.00    +0.152 HD
BRANCH  12  14
ATOM     14  C   UNL     1      34.496 -14.559 -22.424  0.00  0.00    +0.118 C 
BRANCH  14  16
ATOM     15  S   UNL     1      34.637 -17.286 -21.900  0.00  0.00    -0.090 S 
ATOM     16  C   UNL     1      34.658 -15.950 -22.972  0.00  0.00    +0.016 C 
ATOM     17  C   UNL     1      34.832 -16.341 -24.281  0.00  0.00    +0.003 C 
ATOM     18  C   UNL     1      34.949 -17.755 -24.406  0.00  0.00    +0.007 C 
ATOM     19  C   UNL     1      34.861 -18.392 -23.188  0.00  0.00    +0.035 C 
ENDBRANCH  14  16
ENDBRANCH  12  14
ENDBRANCH   4  11
BRANCH   4  20
ATOM     20  O   UNL     1      33.192 -12.174 -25.897  0.00  0.00    -0.330 OA
ATOM     21  C   UNL     1      34.255 -12.722 -26.662  0.00  0.00    +0.176 C 
ENDBRANCH   4  20
BRANCH   7  23
ATOM     22  O   UNL     1      34.245  -6.575 -24.697  0.00  0.00    -0.244 OA
ATOM     23  C   UNL     1      34.443  -7.381 -23.810  0.00  0.00    +0.352 C 
BRANCH  23  24
ATOM     24  O   UNL     1      35.552  -7.477 -23.051  0.00  0.00    -0.476 OA
ATOM     25  H   UNL     1      36.398  -7.383 -23.444  0.00  0.00    +0.295 HD
ENDBRANCH  23  24
ENDBRANCH   7  23
BRANCH   8  26
ATOM     26  C   UNL     1      32.375  -6.876 -21.719  0.00  0.00    +0.235 C 
BRANCH  26  27
ATOM     27  O   UNL     1      31.064  -6.421 -21.981  0.00  0.00    -0.430 OA
BRANCH  27  30
ATOM     28  O   UNL     1      31.157  -5.445 -24.065  0.00  0.00    -0.227 OA
ATOM     29  N   UNL     1      30.559  -4.225 -22.210  0.00  0.00    -0.295 N 
ATOM     30  C   UNL     1      30.946  -5.370 -22.858  0.00  0.00    +0.399 C 
ATOM     31  H   UNL     1      30.405  -4.237 -21.237  0.00  0.00    +0.148 HD
ATOM     32  H   UNL     1      30.433  -3.390 -22.717  0.00  0.00    +0.148 HD
ENDBRANCH  27  30
ENDBRANCH  26  27
ENDBRANCH   8  26
TORSDOF 9
ENDMDL
MODEL 5
REMARK VINA RESULT:      -7.4     13.243     15.435
REMARK  Name = 441199
REMARK  9 active torsions:
REMARK  status: ('A' for Active; 'I' for Inactive)
REMARK    1  A    between atoms: C_4  and  N_11
REMARK    2  A    between atoms: C_4  and  O_20
REMARK    3  A    between atoms: C_7  and  C_23
REMARK    4  A    between atoms: C_8  and  C_26
REMARK    5  A    between atoms: C_12  and  C_14
REMARK    6  A    between atoms: C_14  and  C_16
REMARK    7  A    between atoms: C_23  and  O_24
REMARK    8  A    between atoms: C_26  and  O_27
REMARK    9  A    between atoms: O_27  and  C_30
REMARK                            x       y       z     vdW  Elec       q    Type
REMARK                         _______ _______ _______ _____ _____    ______ ____
ROOT
ATOM      1  S   UNL     1      33.344 -23.317 -16.397  0.00  0.00    -0.112 S 
ATOM      2  O   UNL     1      31.768 -25.625 -12.681  0.00  0.00    -0.270 OA
ATOM      3  N   UNL     1      31.687 -24.097 -14.475  0.00  0.00    -0.238 N 
ATOM      4  C   UNL     1      33.571 -24.080 -13.658  0.00  0.00    +0.250 C 
ATOM      5  C   UNL     1      32.810 -23.199 -14.675  0.00  0.00    +0.180 C 
ATOM      6  C   UNL     1      32.199 -24.774 -13.423  0.00  0.00    +0.275 C 
ATOM      7  C   UNL     1      30.564 -24.081 -15.237  0.00  0.00    +0.127 C 
ATOM      8  C   UNL     1      30.522 -23.428 -16.423  0.00  0.00    +0.030 C 
ATOM      9  C   UNL     1      31.738 -22.749 -17.050  0.00  0.00    +0.086 C 
ENDROOT
BRANCH   4  11
ATOM     10  O   UNL     1      36.226 -23.398 -14.565  0.00  0.00    -0.275 OA
ATOM     11  N   UNL     1      34.541 -24.972 -14.308  0.00  0.00    -0.277 N 
ATOM     12  C   UNL     1      35.800 -24.543 -14.709  0.00  0.00    +0.229 C 
ATOM     13  H   UNL     1      34.289 -25.910 -14.464  0.00  0.00    +0.152 HD
BRANCH  12  14
ATOM     14  C   UNL     1      36.637 -25.638 -15.339  0.00  0.00    +0.118 C 
BRANCH  14  16
ATOM     15  S   UNL     1      38.369 -25.769 -13.169  0.00  0.00    -0.090 S 
ATOM     16  C   UNL     1      38.049 -25.529 -14.835  0.00  0.00    +0.016 C 
ATOM     17  C   UNL     1      39.194 -25.249 -15.546  0.00  0.00    +0.003 C 
ATOM     18  C   UNL     1      40.350 -25.232 -14.714  0.00  0.00    +0.007 C 
ATOM     19  C   UNL     1      40.045 -25.498 -13.398  0.00  0.00    +0.035 C 
ENDBRANCH  14  16
ENDBRANCH  12  14
ENDBRANCH   4  11
BRANCH   4  20
ATOM     20  O   UNL     1      34.073 -23.458 -12.458  0.00  0.00    -0.330 OA
ATOM     21  C   UNL     1      34.963 -24.250 -11.687  0.00  0.00    +0.176 C 
ENDBRANCH   4  20
BRANCH   7  23
ATOM     22  O   UNL     1      28.352 -24.375 -14.415  0.00  0.00    -0.244 OA
ATOM     23  C   UNL     1      29.415 -24.859 -14.748  0.00  0.00    +0.352 C 
BRANCH  23  24
ATOM     24  O   UNL     1      29.736 -26.168 -14.732  0.00  0.00    -0.476 OA
ATOM     25  H   UNL     1      30.204 -26.544 -15.451  0.00  0.00    +0.295 HD
ENDBRANCH  23  24
ENDBRANCH   7  23
BRANCH   8  26
ATOM     26  C   UNL     1      29.291 -23.296 -17.287  0.00  0.00    +0.235 C 
BRANCH  26  27
ATOM     27  O   UNL     1      28.628 -22.089 -16.973  0.00  0.00    -0.430 OA
BRANCH  27  30
ATOM     28  O   UNL     1      26.553 -22.126 -17.971  0.00  0.00    -0.227 OA
ATOM     29  N   UNL     1      26.769 -22.174 -15.683  0.00  0.00    -0.295 N 
ATOM     30  C   UNL     1      27.255 -22.129 -16.965  0.00  0.00    +0.399 C 
ATOM     31  H   UNL     1      27.392 -22.175 -14.920  0.00  0.00    +0.148 HD
ATOM     32  H   UNL     1      25.798 -22.207 -15.525  0.00  0.00    +0.148 HD
ENDBRANCH  27  30
ENDBRANCH  26  27
ENDBRANCH   8  26
TORSDOF 9
ENDMDL
MODEL 6
REMARK VINA RESULT:      -7.3      2.678      8.763
REMARK  Name = 441199
REMARK  9 active torsions:
REMARK  status: ('A' for Active; 'I' for Inactive)
REMARK    1  A    between atoms: C_4  and  N_11
REMARK    2  A    between atoms: C_4  and  O_20
REMARK    3  A    between atoms: C_7  and  C_23
REMARK    4  A    between atoms: C_8  and  C_26
REMARK    5  A    between atoms: C_12  and  C_14
REMARK    6  A    between atoms: C_14  and  C_16
REMARK    7  A    between atoms: C_23  and  O_24
REMARK    8  A    between atoms: C_26  and  O_27
REMARK    9  A    between atoms: O_27  and  C_30
REMARK                            x       y       z     vdW  Elec       q    Type
REMARK                         _______ _______ _______ _____ _____    ______ ____
ROOT
ATOM      1  S   UNL     1      33.578 -12.418 -24.279  0.00  0.00    -0.112 S 
ATOM      2  O   UNL     1      32.467 -13.020 -19.804  0.00  0.00    -0.270 OA
ATOM      3  N   UNL     1      32.920 -13.661 -22.027  0.00  0.00    -0.238 N 
ATOM      4  C   UNL     1      31.904 -11.877 -22.034  0.00  0.00    +0.250 C 
ATOM      5  C   UNL     1      32.297 -12.917 -23.107  0.00  0.00    +0.180 C 
ATOM      6  C   UNL     1      32.427 -12.923 -21.009  0.00  0.00    +0.275 C 
ATOM      7  C   UNL     1      33.721 -14.740 -22.219  0.00  0.00    +0.127 C 
ATOM      8  C   UNL     1      34.237 -15.032 -23.437  0.00  0.00    +0.030 C 
ATOM      9  C   UNL     1      34.055 -14.137 -24.662  0.00  0.00    +0.086 C 
ENDROOT
BRANCH   4  11
ATOM     10  O   UNL     1      31.270  -9.352 -23.282  0.00  0.00    -0.275 OA
ATOM     11  N   UNL     1      32.750 -10.677 -22.083  0.00  0.00    -0.277 N 
ATOM     12  C   UNL     1      32.350  -9.505 -22.713  0.00  0.00    +0.229 C 
ATOM     13  H   UNL     1      33.634 -10.704 -21.653  0.00  0.00    +0.152 HD
BRANCH  12  14
ATOM     14  C   UNL     1      33.375  -8.393 -22.624  0.00  0.00    +0.118 C 
BRANCH  14  16
ATOM     15  S   UNL     1      31.856  -6.205 -21.828  0.00  0.00    -0.090 S 
ATOM     16  C   UNL     1      32.724  -7.093 -23.008  0.00  0.00    +0.016 C 
ATOM     17  C   UNL     1      32.716  -6.467 -24.234  0.00  0.00    +0.003 C 
ATOM     18  C   UNL     1      31.989  -5.243 -24.206  0.00  0.00    +0.007 C 
ATOM     19  C   UNL     1      31.468  -4.979 -22.959  0.00  0.00    +0.035 C 
ENDBRANCH  14  16
ENDBRANCH  12  14
ENDBRANCH   4  11
BRANCH   4  20
ATOM     20  O   UNL     1      30.505 -11.589 -21.844  0.00  0.00    -0.330 OA
ATOM     21  C   UNL     1      30.161 -11.041 -20.580  0.00  0.00    +0.176 C 
ENDBRANCH   4  20
BRANCH   7  23
ATOM     22  O   UNL     1      34.935 -15.261 -20.242  0.00  0.00    -0.244 OA
ATOM     23  C   UNL     1      34.055 -15.542 -21.032  0.00  0.00    +0.352 C 
BRANCH  23  24
ATOM     24  O   UNL     1      33.242 -16.614 -20.972  0.00  0.00    -0.476 OA
ATOM     25  H   UNL     1      33.456 -17.334 -20.412  0.00  0.00    +0.295 HD
ENDBRANCH  23  24
ENDBRANCH   7  23
BRANCH   8  26
ATOM     26  C   UNL     1      35.066 -16.255 -23.747  0.00  0.00    +0.235 C 
BRANCH  26  27
ATOM     27  O   UNL     1      34.221 -17.383 -23.827  0.00  0.00    -0.430 OA
BRANCH  27  30
ATOM     28  O   UNL     1      34.919 -19.503 -24.395  0.00  0.00    -0.227 OA
ATOM     29  N   UNL     1      35.236 -18.680 -22.271  0.00  0.00    -0.295 N 
ATOM     30  C   UNL     1      34.802 -18.602 -23.571  0.00  0.00    +0.399 C 
ATOM     31  H   UNL     1      35.110 -17.916 -21.663  0.00  0.00    +0.148 HD
ATOM     32  H   UNL     1      35.674 -19.500 -21.947  0.00  0.00    +0.148 HD
ENDBRANCH  27  30
ENDBRANCH  26  27
ENDBRANCH   8  26
TORSDOF 9
ENDMDL
MODEL 7
REMARK VINA RESULT:      -7.2      4.954      7.361
REMARK  Name = 441199
REMARK  9 active torsions:
REMARK  status: ('A' for Active; 'I' for Inactive)
REMARK    1  A    between atoms: C_4  and  N_11
REMARK    2  A    between atoms: C_4  and  O_20
REMARK    3  A    between atoms: C_7  and  C_23
REMARK    4  A    between atoms: C_8  and  C_26
REMARK    5  A    between atoms: C_12  and  C_14
REMARK    6  A    between atoms: C_14  and  C_16
REMARK    7  A    between atoms: C_23  and  O_24
REMARK    8  A    between atoms: C_26  and  O_27
REMARK    9  A    between atoms: O_27  and  C_30
REMARK                            x       y       z     vdW  Elec       q    Type
REMARK                         _______ _______ _______ _____ _____    ______ ____
ROOT
ATOM      1  S   UNL     1      34.483 -19.090 -24.112  0.00  0.00    -0.112 S 
ATOM      2  O   UNL     1      34.894 -16.321 -20.400  0.00  0.00    -0.270 OA
ATOM      3  N   UNL     1      34.851 -16.878 -22.690  0.00  0.00    -0.238 N 
ATOM      4  C   UNL     1      35.731 -18.408 -21.640  0.00  0.00    +0.250 C 
ATOM      5  C   UNL     1      35.589 -18.047 -23.136  0.00  0.00    +0.180 C 
ATOM      6  C   UNL     1      35.122 -17.002 -21.372  0.00  0.00    +0.275 C 
ATOM      7  C   UNL     1      34.168 -16.055 -23.525  0.00  0.00    +0.127 C 
ATOM      8  C   UNL     1      33.877 -16.418 -24.797  0.00  0.00    +0.030 C 
ATOM      9  C   UNL     1      34.193 -17.799 -25.368  0.00  0.00    +0.086 C 
ENDROOT
BRANCH   4  11
ATOM     10  O   UNL     1      36.183 -20.380 -19.580  0.00  0.00    -0.275 OA
ATOM     11  N   UNL     1      34.824 -19.492 -21.239  0.00  0.00    -0.277 N 
ATOM     12  C   UNL     1      35.138 -20.394 -20.229  0.00  0.00    +0.229 C 
ATOM     13  H   UNL     1      33.961 -19.582 -21.702  0.00  0.00    +0.152 HD
BRANCH  12  14
ATOM     14  C   UNL     1      34.047 -21.415 -19.974  0.00  0.00    +0.118 C 
BRANCH  14  16
ATOM     15  S   UNL     1      32.999 -22.824 -17.819  0.00  0.00    -0.090 S 
ATOM     16  C   UNL     1      34.300 -22.083 -18.652  0.00  0.00    +0.016 C 
ATOM     17  C   UNL     1      35.487 -22.201 -17.963  0.00  0.00    +0.003 C 
ATOM     18  C   UNL     1      35.326 -22.907 -16.737  0.00  0.00    +0.007 C 
ATOM     19  C   UNL     1      34.023 -23.303 -16.534  0.00  0.00    +0.035 C 
ENDBRANCH  14  16
ENDBRANCH  12  14
ENDBRANCH   4  11
BRANCH   4  20
ATOM     20  O   UNL     1      37.058 -18.534 -21.092  0.00  0.00    -0.330 OA
ATOM     21  C   UNL     1      38.077 -18.855 -22.026  0.00  0.00    +0.176 C 
ENDBRANCH   4  20
BRANCH   7  23
ATOM     22  O   UNL     1      32.644 -14.628 -22.386  0.00  0.00    -0.244 OA
ATOM     23  C   UNL     1      33.701 -14.777 -22.966  0.00  0.00    +0.352 C 
BRANCH  23  24
ATOM     24  O   UNL     1      34.622 -13.822 -23.202  0.00  0.00    -0.476 OA
ATOM     25  H   UNL     1      35.400 -13.783 -22.681  0.00  0.00    +0.295 HD
ENDBRANCH  23  24
ENDBRANCH   7  23
BRANCH   8  26
ATOM     26  C   UNL     1      33.194 -15.529 -25.808  0.00  0.00    +0.235 C 
BRANCH  26  27
ATOM     27  O   UNL     1      34.063 -14.474 -26.164  0.00  0.00    -0.430 OA
BRANCH  27  30
ATOM     28  O   UNL     1      32.835 -13.231 -27.664  0.00  0.00    -0.227 OA
ATOM     29  N   UNL     1      33.685 -12.280 -25.751  0.00  0.00    -0.295 N 
ATOM     30  C   UNL     1      33.472 -13.321 -26.619  0.00  0.00    +0.399 C 
ATOM     31  H   UNL     1      34.206 -12.424 -24.928  0.00  0.00    +0.148 HD
ATOM     32  H   UNL     1      33.316 -11.389 -25.950  0.00  0.00    +0.148 HD
ENDBRANCH  27  30
ENDBRANCH  26  27
ENDBRANCH   8  26
TORSDOF 9
ENDMDL
MODEL 8
REMARK VINA RESULT:      -7.1      5.548     11.121
REMARK  Name = 441199
REMARK  9 active torsions:
REMARK  status: ('A' for Active; 'I' for Inactive)
REMARK    1  A    between atoms: C_4  and  N_11
REMARK    2  A    between atoms: C_4  and  O_20
REMARK    3  A    between atoms: C_7  and  C_23
REMARK    4  A    between atoms: C_8  and  C_26
REMARK    5  A    between atoms: C_12  and  C_14
REMARK    6  A    between atoms: C_14  and  C_16
REMARK    7  A    between atoms: C_23  and  O_24
REMARK    8  A    between atoms: C_26  and  O_27
REMARK    9  A    between atoms: O_27  and  C_30
REMARK                            x       y       z     vdW  Elec       q    Type
REMARK                         _______ _______ _______ _____ _____    ______ ____
ROOT
ATOM      1  S   UNL     1      36.555 -18.927 -20.319  0.00  0.00    -0.112 S 
ATOM      2  O   UNL     1      32.141 -20.196 -21.047  0.00  0.00    -0.270 OA
ATOM      3  N   UNL     1      34.435 -20.502 -20.596  0.00  0.00    -0.238 N 
ATOM      4  C   UNL     1      34.211 -18.968 -21.943  0.00  0.00    +0.250 C 
ATOM      5  C   UNL     1      35.405 -19.792 -21.411  0.00  0.00    +0.180 C 
ATOM      6  C   UNL     1      33.326 -19.986 -21.170  0.00  0.00    +0.275 C 
ATOM      7  C   UNL     1      34.772 -21.372 -19.610  0.00  0.00    +0.127 C 
ATOM      8  C   UNL     1      36.031 -21.427 -19.113  0.00  0.00    +0.030 C 
ATOM      9  C   UNL     1      37.142 -20.466 -19.534  0.00  0.00    +0.086 C 
ENDROOT
BRANCH   4  11
ATOM     10  O   UNL     1      35.513 -16.584 -22.921  0.00  0.00    -0.275 OA
ATOM     11  N   UNL     1      34.154 -17.623 -21.354  0.00  0.00    -0.277 N 
ATOM     12  C   UNL     1      34.821 -16.536 -21.905  0.00  0.00    +0.229 C 
ATOM     13  H   UNL     1      33.622 -17.487 -20.538  0.00  0.00    +0.152 HD
BRANCH  12  14
ATOM     14  C   UNL     1      34.605 -15.246 -21.140  0.00  0.00    +0.118 C 
BRANCH  14  16
ATOM     15  S   UNL     1      32.389 -13.594 -21.439  0.00  0.00    -0.090 S 
ATOM     16  C   UNL     1      33.852 -14.279 -22.010  0.00  0.00    +0.016 C 
ATOM     17  C   UNL     1      34.173 -13.830 -23.272  0.00  0.00    +0.003 C 
ATOM     18  C   UNL     1      33.207 -12.913 -23.776  0.00  0.00    +0.007 C 
ATOM     19  C   UNL     1      32.184 -12.695 -22.882  0.00  0.00    +0.035 C 
ENDBRANCH  14  16
ENDBRANCH  12  14
ENDBRANCH   4  11
BRANCH   4  20
ATOM     20  O   UNL     1      33.945 -18.988 -23.359  0.00  0.00    -0.330 OA
ATOM     21  C   UNL     1      35.004 -19.467 -24.173  0.00  0.00    +0.176 C 
ENDBRANCH   4  20
BRANCH   7  23
ATOM     22  O   UNL     1      32.797 -21.790 -18.353  0.00  0.00    -0.244 OA
ATOM     23  C   UNL     1      33.692 -22.206 -19.061  0.00  0.00    +0.352 C 
BRANCH  23  24
ATOM     24  O   UNL     1      33.862 -23.480 -19.466  0.00  0.00    -0.476 OA
ATOM     25  H   UNL     1      33.460 -24.180 -18.990  0.00  0.00    +0.295 HD
ENDBRANCH  23  24
ENDBRANCH   7  23
BRANCH   8  26
ATOM     26  C   UNL     1      36.501 -22.419 -18.078  0.00  0.00    +0.235 C 
BRANCH  26  27
ATOM     27  O   UNL     1      36.883 -21.726 -16.908  0.00  0.00    -0.430 OA
BRANCH  27  30
ATOM     28  O   UNL     1      37.631 -22.649 -14.935  0.00  0.00    -0.227 OA
ATOM     29  N   UNL     1      35.411 -22.750 -15.524  0.00  0.00    -0.295 N 
ATOM     30  C   UNL     1      36.722 -22.397 -15.720  0.00  0.00    +0.399 C 
ATOM     31  H   UNL     1      34.732 -22.514 -16.197  0.00  0.00    +0.148 HD
ATOM     32  H   UNL     1      35.149 -23.237 -14.709  0.00  0.00    +0.148 HD
ENDBRANCH  27  30
ENDBRANCH  26  27
ENDBRANCH   8  26
TORSDOF 9
ENDMDL
MODEL 9
REMARK VINA RESULT:      -7.1      3.126      8.535
REMARK  Name = 441199
REMARK  9 active torsions:
REMARK  status: ('A' for Active; 'I' for Inactive)
REMARK    1  A    between atoms: C_4  and  N_11
REMARK    2  A    between atoms: C_4  and  O_20
REMARK    3  A    between atoms: C_7  and  C_23
REMARK    4  A    between atoms: C_8  and  C_26
REMARK    5  A    between atoms: C_12  and  C_14
REMARK    6  A    between atoms: C_14  and  C_16
REMARK    7  A    between atoms: C_23  and  O_24
REMARK    8  A    between atoms: C_26  and  O_27
REMARK    9  A    between atoms: O_27  and  C_30
REMARK                            x       y       z     vdW  Elec       q    Type
REMARK                         _______ _______ _______ _____ _____    ______ ____
ROOT
ATOM      1  S   UNL     1      34.283 -14.888 -21.601  0.00  0.00    -0.112 S 
ATOM      2  O   UNL     1      32.953 -15.438 -26.022  0.00  0.00    -0.270 OA
ATOM      3  N   UNL     1      34.229 -15.836 -24.080  0.00  0.00    -0.238 N 
ATOM      4  C   UNL     1      33.799 -13.833 -24.206  0.00  0.00    +0.250 C 
ATOM      5  C   UNL     1      34.740 -14.698 -23.338  0.00  0.00    +0.180 C 
ATOM      6  C   UNL     1      33.556 -15.136 -25.020  0.00  0.00    +0.275 C 
ATOM      7  C   UNL     1      34.479 -17.128 -23.746  0.00  0.00    +0.127 C 
ATOM      8  C   UNL     1      34.980 -17.461 -22.532  0.00  0.00    +0.030 C 
ATOM      9  C   UNL     1      35.209 -16.448 -21.412  0.00  0.00    +0.086 C 
ENDROOT
BRANCH   4  11
ATOM     10  O   UNL     1      33.339 -11.262 -22.975  0.00  0.00    -0.275 OA
ATOM     11  N   UNL     1      32.600 -13.404 -23.473  0.00  0.00    -0.277 N 
ATOM     12  C   UNL     1      32.477 -12.137 -22.915  0.00  0.00    +0.229 C 
ATOM     13  H   UNL     1      31.855 -14.039 -23.374  0.00  0.00    +0.152 HD
BRANCH  12  14
ATOM     14  C   UNL     1      31.149 -11.911 -22.222  0.00  0.00    +0.118 C 
BRANCH  14  16
ATOM     15  S   UNL     1      31.702  -9.388 -21.193  0.00  0.00    -0.090 S 
ATOM     16  C   UNL     1      31.370 -11.059 -21.003  0.00  0.00    +0.016 C 
ATOM     17  C   UNL     1      31.346 -11.433 -19.678  0.00  0.00    +0.003 C 
ATOM     18  C   UNL     1      31.603 -10.336 -18.807  0.00  0.00    +0.007 C 
ATOM     19  C   UNL     1      31.814  -9.164 -19.498  0.00  0.00    +0.035 C 
ENDBRANCH  14  16
ENDBRANCH  12  14
ENDBRANCH   4  11
BRANCH   4  20
ATOM     20  O   UNL     1      34.382 -12.792 -25.016  0.00  0.00    -0.330 OA
ATOM     21  C   UNL     1      33.577 -12.333 -26.091  0.00  0.00    +0.176 C 
ENDBRANCH   4  20
BRANCH   7  23
ATOM     22  O   UNL     1      33.431 -19.125 -24.499  0.00  0.00    -0.244 OA
ATOM     23  C   UNL     1      34.122 -18.154 -24.737  0.00  0.00    +0.352 C 
BRANCH  23  24
ATOM     24  O   UNL     1      34.677 -17.843 -25.924  0.00  0.00    -0.476 OA
ATOM     25  H   UNL     1      35.096 -18.508 -26.434  0.00  0.00    +0.295 HD
ENDBRANCH  23  24
ENDBRANCH   7  23
BRANCH   8  26
ATOM     26  C   UNL     1      35.360 -18.862 -22.117  0.00  0.00    +0.235 C 
BRANCH  26  27
ATOM     27  O   UNL     1      34.965 -19.074 -20.778  0.00  0.00    -0.430 OA
BRANCH  27  30
ATOM     28  O   UNL     1      32.844 -19.944 -21.003  0.00  0.00    -0.227 OA
ATOM     29  N   UNL     1      34.464 -21.063 -19.815  0.00  0.00    -0.295 N 
ATOM     30  C   UNL     1      33.990 -20.020 -20.570  0.00  0.00    +0.399 C 
ATOM     31  H   UNL     1      35.398 -21.059 -19.501  0.00  0.00    +0.148 HD
ATOM     32  H   UNL     1      33.872 -21.816 -19.588  0.00  0.00    +0.148 HD
ENDBRANCH  27  30
ENDBRANCH  26  27
ENDBRANCH   8  26
TORSDOF 9
ENDMDL
