MODEL 1
REMARK VINA RESULT:      -8.3      0.000      0.000
REMARK  Name = 39147
REMARK  9 active torsions:
REMARK  status: ('A' for Active; 'I' for Inactive)
REMARK    1  A    between atoms: C_1  and  O_11
REMARK    2  A    between atoms: C_2  and  O_13
REMARK    3  A    between atoms: C_7  and  O_15
REMARK    4  A    between atoms: O_15  and  C_16
REMARK    5  A    between atoms: C_16  and  C_17
REMARK    6  A    between atoms: C_17  and  O_18
REMARK    7  A    between atoms: C_17  and  C_20
REMARK    8  A    between atoms: C_20  and  N_21
REMARK    9  A    between atoms: N_21  and  C_24
REMARK                            x       y       z     vdW  Elec       q    Type
REMARK                         _______ _______ _______ _____ _____    ______ ____
ROOT
ATOM      1  C   UNL     1      30.818 -24.018 -13.458  0.00  0.00    +0.142 C 
ATOM      2  C   UNL     1      30.058 -24.150 -14.777  0.00  0.00    +0.142 C 
ATOM      3  C   UNL     1      32.255 -24.522 -13.593  0.00  0.00    +0.061 C 
ATOM      4  C   UNL     1      30.725 -23.304 -15.864  0.00  0.00    +0.058 C 
ATOM      5  C   UNL     1      32.951 -23.982 -14.817  0.00  0.00    +0.010 C 
ATOM      6  C   UNL     1      32.230 -23.440 -15.897  0.00  0.00    -0.021 C 
ATOM      7  C   UNL     1      34.350 -24.071 -14.897  0.00  0.00    +0.134 C 
ATOM      8  C   UNL     1      32.927 -22.965 -17.020  0.00  0.00    -0.004 C 
ATOM      9  C   UNL     1      35.029 -23.605 -16.023  0.00  0.00    +0.037 C 
ATOM     10  C   UNL     1      34.318 -23.050 -17.083  0.00  0.00    +0.003 C 
ENDROOT
BRANCH   1  11
ATOM     11  O   UNL     1      30.142 -24.768 -12.454  0.00  0.00    -0.382 OA
ATOM     12  H   UNL     1      29.187 -24.742 -12.618  0.00  0.00    +0.210 HD
ENDBRANCH   1  11
BRANCH   2  13
ATOM     13  O   UNL     1      30.035 -25.519 -15.186  0.00  0.00    -0.382 OA
ATOM     14  H   UNL     1      30.934 -25.803 -15.415  0.00  0.00    +0.210 HD
ENDBRANCH   2  13
BRANCH   7  15
ATOM     15  O   UNL     1      35.079 -24.608 -13.877  0.00  0.00    -0.473 OA
BRANCH  15  16
ATOM     16  C   UNL     1      35.555 -23.708 -12.880  0.00  0.00    +0.232 C 
BRANCH  16  17
ATOM     17  C   UNL     1      36.324 -24.500 -11.825  0.00  0.00    +0.133 C 
BRANCH  17  18
ATOM     18  O   UNL     1      35.387 -25.072 -10.908  0.00  0.00    -0.383 OA
ATOM     19  H   UNL     1      35.822 -25.768 -10.393  0.00  0.00    +0.210 HD
ENDBRANCH  17  18
BRANCH  17  20
ATOM     20  C   UNL     1      37.168 -25.633 -12.415  0.00  0.00    -0.048 C 
BRANCH  20  21
ATOM     21  N   UNL     1      38.494 -25.180 -12.811  0.00  0.00    +0.388 N 
ATOM     22  H   UNL     1      38.559 -24.172 -12.669  0.00  0.00    -0.084 HD
ATOM     23  H   UNL     1      39.187 -25.666 -12.242  0.00  0.00    -0.084 HD
BRANCH  21  24
ATOM     24  C   UNL     1      38.750 -25.480 -14.213  0.00  0.00    -0.046 C 
ATOM     25  C   UNL     1      40.216 -25.900 -14.363  0.00  0.00    -0.022 C 
ATOM     26  C   UNL     1      37.828 -26.626 -14.642  0.00  0.00    -0.022 C 
ATOM     27  C   UNL     1      38.470 -24.232 -15.060  0.00  0.00    -0.022 C 
ENDBRANCH  21  24
ENDBRANCH  20  21
ENDBRANCH  17  20
ENDBRANCH  16  17
ENDBRANCH  15  16
ENDBRANCH   7  15
TORSDOF 9
ENDMDL
MODEL 2
REMARK VINA RESULT:      -8.2      4.519      6.591
REMARK  Name = 39147
REMARK  9 active torsions:
REMARK  status: ('A' for Active; 'I' for Inactive)
REMARK    1  A    between atoms: C_1  and  O_11
REMARK    2  A    between atoms: C_2  and  O_13
REMARK    3  A    between atoms: C_7  and  O_15
REMARK    4  A    between atoms: O_15  and  C_16
REMARK    5  A    between atoms: C_16  and  C_17
REMARK    6  A    between atoms: C_17  and  O_18
REMARK    7  A    between atoms: C_17  and  C_20
REMARK    8  A    between atoms: C_20  and  N_21
REMARK    9  A    between atoms: N_21  and  C_24
REMARK                            x       y       z     vdW  Elec       q    Type
REMARK                         _______ _______ _______ _____ _____    ______ ____
ROOT
ATOM      1  C   UNL     1      36.780 -19.529 -21.458  0.00  0.00    +0.142 C 
ATOM      2  C   UNL     1      35.520 -18.667 -21.530  0.00  0.00    +0.142 C 
ATOM      3  C   UNL     1      36.896 -20.230 -20.104  0.00  0.00    +0.061 C 
ATOM      4  C   UNL     1      34.270 -19.535 -21.371  0.00  0.00    +0.058 C 
ATOM      5  C   UNL     1      35.612 -20.895 -19.678  0.00  0.00    +0.010 C 
ATOM      6  C   UNL     1      34.374 -20.545 -20.251  0.00  0.00    -0.021 C 
ATOM      7  C   UNL     1      35.650 -21.849 -18.649  0.00  0.00    +0.134 C 
ATOM      8  C   UNL     1      33.205 -21.183 -19.806  0.00  0.00    -0.004 C 
ATOM      9  C   UNL     1      34.480 -22.469 -18.211  0.00  0.00    +0.037 C 
ATOM     10  C   UNL     1      33.259 -22.138 -18.790  0.00  0.00    +0.003 C 
ENDROOT
BRANCH   1  11
ATOM     11  O   UNL     1      37.922 -18.705 -21.668  0.00  0.00    -0.382 OA
ATOM     12  H   UNL     1      38.726 -19.210 -21.475  0.00  0.00    +0.210 HD
ENDBRANCH   1  11
BRANCH   2  13
ATOM     13  O   UNL     1      35.551 -17.681 -20.497  0.00  0.00    -0.382 OA
ATOM     14  H   UNL     1      36.341 -17.127 -20.602  0.00  0.00    +0.210 HD
ENDBRANCH   2  13
BRANCH   7  15
ATOM     15  O   UNL     1      36.829 -22.198 -18.059  0.00  0.00    -0.473 OA
BRANCH  15  16
ATOM     16  C   UNL     1      36.983 -21.869 -16.681  0.00  0.00    +0.232 C 
BRANCH  16  17
ATOM     17  C   UNL     1      37.111 -23.162 -15.877  0.00  0.00    +0.133 C 
BRANCH  17  18
ATOM     18  O   UNL     1      38.499 -23.460 -15.708  0.00  0.00    -0.383 OA
ATOM     19  H   UNL     1      39.032 -22.806 -16.186  0.00  0.00    +0.210 HD
ENDBRANCH  17  18
BRANCH  17  20
ATOM     20  C   UNL     1      36.468 -23.079 -14.491  0.00  0.00    -0.048 C 
BRANCH  20  21
ATOM     21  N   UNL     1      36.330 -24.389 -13.870  0.00  0.00    +0.388 N 
ATOM     22  H   UNL     1      35.346 -24.655 -13.868  0.00  0.00    -0.084 HD
ATOM     23  H   UNL     1      36.880 -25.061 -14.405  0.00  0.00    -0.084 HD
BRANCH  21  24
ATOM     24  C   UNL     1      36.822 -24.372 -12.500  0.00  0.00    -0.046 C 
ATOM     25  C   UNL     1      35.641 -24.609 -11.553  0.00  0.00    -0.022 C 
ATOM     26  C   UNL     1      37.857 -25.491 -12.340  0.00  0.00    -0.022 C 
ATOM     27  C   UNL     1      37.467 -23.011 -12.207  0.00  0.00    -0.022 C 
ENDBRANCH  21  24
ENDBRANCH  20  21
ENDBRANCH  17  20
ENDBRANCH  16  17
ENDBRANCH  15  16
ENDBRANCH   7  15
TORSDOF 9
ENDMDL
MODEL 3
REMARK VINA RESULT:      -8.2     12.015     14.148
REMARK  Name = 39147
REMARK  9 active torsions:
REMARK  status: ('A' for Active; 'I' for Inactive)
REMARK    1  A    between atoms: C_1  and  O_11
REMARK    2  A    between atoms: C_2  and  O_13
REMARK    3  A    between atoms: C_7  and  O_15
REMARK    4  A    between atoms: O_15  and  C_16
REMARK    5  A    between atoms: C_16  and  C_17
REMARK    6  A    between atoms: C_17  and  O_18
REMARK    7  A    between atoms: C_17  and  C_20
REMARK    8  A    between atoms: C_20  and  N_21
REMARK    9  A    between atoms: N_21  and  C_24
REMARK                            x       y       z     vdW  Elec       q    Type
REMARK                         _______ _______ _______ _____ _____    ______ ____
ROOT
ATOM      1  C   UNL     1      33.886 -11.178 -25.374  0.00  0.00    +0.142 C 
ATOM      2  C   UNL     1      34.214  -9.878 -24.639  0.00  0.00    +0.142 C 
ATOM      3  C   UNL     1      33.797 -12.356 -24.404  0.00  0.00    +0.061 C 
ATOM      4  C   UNL     1      33.112  -9.542 -23.632  0.00  0.00    +0.058 C 
ATOM      5  C   UNL     1      32.958 -12.050 -23.189  0.00  0.00    +0.010 C 
ATOM      6  C   UNL     1      32.664 -10.728 -22.808  0.00  0.00    -0.021 C 
ATOM      7  C   UNL     1      32.505 -13.114 -22.392  0.00  0.00    +0.134 C 
ATOM      8  C   UNL     1      31.893 -10.498 -21.658  0.00  0.00    -0.004 C 
ATOM      9  C   UNL     1      31.747 -12.871 -21.247  0.00  0.00    +0.037 C 
ATOM     10  C   UNL     1      31.439 -11.564 -20.881  0.00  0.00    +0.003 C 
ENDROOT
BRANCH   1  11
ATOM     11  O   UNL     1      34.897 -11.433 -26.344  0.00  0.00    -0.382 OA
ATOM     12  H   UNL     1      34.698 -12.261 -26.808  0.00  0.00    +0.210 HD
ENDBRANCH   1  11
BRANCH   2  13
ATOM     13  O   UNL     1      35.461 -10.013 -23.955  0.00  0.00    -0.382 OA
ATOM     14  H   UNL     1      36.176 -10.111 -24.603  0.00  0.00    +0.210 HD
ENDBRANCH   2  13
BRANCH   7  15
ATOM     15  O   UNL     1      32.788 -14.407 -22.721  0.00  0.00    -0.473 OA
BRANCH  15  16
ATOM     16  C   UNL     1      33.014 -15.312 -21.643  0.00  0.00    +0.232 C 
BRANCH  16  17
ATOM     17  C   UNL     1      34.517 -15.537 -21.494  0.00  0.00    +0.133 C 
BRANCH  17  18
ATOM     18  O   UNL     1      34.867 -15.392 -20.116  0.00  0.00    -0.383 OA
ATOM     19  H   UNL     1      34.563 -16.169 -19.621  0.00  0.00    +0.210 HD
ENDBRANCH  17  18
BRANCH  17  20
ATOM     20  C   UNL     1      34.971 -16.923 -21.959  0.00  0.00    -0.048 C 
BRANCH  20  21
ATOM     21  N   UNL     1      35.094 -17.860 -20.852  0.00  0.00    +0.388 N 
ATOM     22  H   UNL     1      36.059 -17.861 -20.521  0.00  0.00    -0.084 HD
ATOM     23  H   UNL     1      34.462 -17.568 -20.107  0.00  0.00    -0.084 HD
BRANCH  21  24
ATOM     24  C   UNL     1      34.732 -19.208 -21.266  0.00  0.00    -0.046 C 
ATOM     25  C   UNL     1      33.303 -19.498 -20.797  0.00  0.00    -0.022 C 
ATOM     26  C   UNL     1      34.809 -19.285 -22.795  0.00  0.00    -0.022 C 
ATOM     27  C   UNL     1      35.707 -20.213 -20.639  0.00  0.00    -0.022 C 
ENDBRANCH  21  24
ENDBRANCH  20  21
ENDBRANCH  17  20
ENDBRANCH  16  17
ENDBRANCH  15  16
ENDBRANCH   7  15
TORSDOF 9
ENDMDL
MODEL 4
REMARK VINA RESULT:      -8.1      4.130      7.128
REMARK  Name = 39147
REMARK  9 active torsions:
REMARK  status: ('A' for Active; 'I' for Inactive)
REMARK    1  A    between atoms: C_1  and  O_11
REMARK    2  A    between atoms: C_2  and  O_13
REMARK    3  A    between atoms: C_7  and  O_15
REMARK    4  A    between atoms: O_15  and  C_16
REMARK    5  A    between atoms: C_16  and  C_17
REMARK    6  A    between atoms: C_17  and  O_18
REMARK    7  A    between atoms: C_17  and  C_20
REMARK    8  A    between atoms: C_20  and  N_21
REMARK    9  A    between atoms: N_21  and  C_24
REMARK                            x       y       z     vdW  Elec       q    Type
REMARK                         _______ _______ _______ _____ _____    ______ ____
ROOT
ATOM      1  C   UNL     1      36.586 -23.395 -14.257  0.00  0.00    +0.142 C 
ATOM      2  C   UNL     1      35.840 -24.213 -13.203  0.00  0.00    +0.142 C 
ATOM      3  C   UNL     1      35.993 -23.611 -15.649  0.00  0.00    +0.061 C 
ATOM      4  C   UNL     1      34.373 -23.783 -13.133  0.00  0.00    +0.058 C 
ATOM      5  C   UNL     1      34.489 -23.504 -15.667  0.00  0.00    +0.010 C 
ATOM      6  C   UNL     1      33.726 -23.617 -14.489  0.00  0.00    -0.021 C 
ATOM      7  C   UNL     1      33.834 -23.339 -16.898  0.00  0.00    +0.134 C 
ATOM      8  C   UNL     1      32.327 -23.527 -14.564  0.00  0.00    -0.004 C 
ATOM      9  C   UNL     1      32.443 -23.259 -16.959  0.00  0.00    +0.037 C 
ATOM     10  C   UNL     1      31.690 -23.351 -15.792  0.00  0.00    +0.003 C 
ENDROOT
BRANCH   1  11
ATOM     11  O   UNL     1      37.958 -23.776 -14.258  0.00  0.00    -0.382 OA
ATOM     12  H   UNL     1      38.397 -23.400 -15.036  0.00  0.00    +0.210 HD
ENDBRANCH   1  11
BRANCH   2  13
ATOM     13  O   UNL     1      35.915 -25.602 -13.530  0.00  0.00    -0.382 OA
ATOM     14  H   UNL     1      35.276 -26.096 -12.993  0.00  0.00    +0.210 HD
ENDBRANCH   2  13
BRANCH   7  15
ATOM     15  O   UNL     1      34.541 -23.244 -18.061  0.00  0.00    -0.473 OA
BRANCH  15  16
ATOM     16  C   UNL     1      34.224 -22.153 -18.922  0.00  0.00    +0.232 C 
BRANCH  16  17
ATOM     17  C   UNL     1      35.458 -21.265 -19.067  0.00  0.00    +0.133 C 
BRANCH  17  18
ATOM     18  O   UNL     1      36.614 -22.021 -18.697  0.00  0.00    -0.383 OA
ATOM     19  H   UNL     1      37.004 -22.424 -19.488  0.00  0.00    +0.210 HD
ENDBRANCH  17  18
BRANCH  17  20
ATOM     20  C   UNL     1      35.664 -20.742 -20.491  0.00  0.00    -0.048 C 
BRANCH  20  21
ATOM     21  N   UNL     1      35.879 -19.303 -20.521  0.00  0.00    +0.388 N 
ATOM     22  H   UNL     1      35.802 -18.933 -19.574  0.00  0.00    -0.084 HD
ATOM     23  H   UNL     1      36.808 -19.120 -20.900  0.00  0.00    -0.084 HD
BRANCH  21  24
ATOM     24  C   UNL     1      34.894 -18.645 -21.369  0.00  0.00    -0.046 C 
ATOM     25  C   UNL     1      34.932 -17.140 -21.086  0.00  0.00    -0.022 C 
ATOM     26  C   UNL     1      35.256 -18.915 -22.834  0.00  0.00    -0.022 C 
ATOM     27  C   UNL     1      33.501 -19.205 -21.058  0.00  0.00    -0.022 C 
ENDBRANCH  21  24
ENDBRANCH  20  21
ENDBRANCH  17  20
ENDBRANCH  16  17
ENDBRANCH  15  16
ENDBRANCH   7  15
TORSDOF 9
ENDMDL
MODEL 5
REMARK VINA RESULT:      -7.9     12.412     15.029
REMARK  Name = 39147
REMARK  9 active torsions:
REMARK  status: ('A' for Active; 'I' for Inactive)
REMARK    1  A    between atoms: C_1  and  O_11
REMARK    2  A    between atoms: C_2  and  O_13
REMARK    3  A    between atoms: C_7  and  O_15
REMARK    4  A    between atoms: O_15  and  C_16
REMARK    5  A    between atoms: C_16  and  C_17
REMARK    6  A    between atoms: C_17  and  O_18
REMARK    7  A    between atoms: C_17  and  C_20
REMARK    8  A    between atoms: C_20  and  N_21
REMARK    9  A    between atoms: N_21  and  C_24
REMARK                            x       y       z     vdW  Elec       q    Type
REMARK                         _______ _______ _______ _____ _____    ______ ____
ROOT
ATOM      1  C   UNL     1      34.731 -17.800 -21.662  0.00  0.00    +0.142 C 
ATOM      2  C   UNL     1      35.460 -18.564 -22.767  0.00  0.00    +0.142 C 
ATOM      3  C   UNL     1      34.660 -16.305 -21.976  0.00  0.00    +0.061 C 
ATOM      4  C   UNL     1      34.713 -18.424 -24.096  0.00  0.00    +0.058 C 
ATOM      5  C   UNL     1      34.209 -16.024 -23.387  0.00  0.00    +0.010 C 
ATOM      6  C   UNL     1      34.264 -17.010 -24.390  0.00  0.00    -0.021 C 
ATOM      7  C   UNL     1      33.771 -14.731 -23.715  0.00  0.00    +0.134 C 
ATOM      8  C   UNL     1      33.847 -16.691 -25.692  0.00  0.00    -0.004 C 
ATOM      9  C   UNL     1      33.368 -14.426 -25.015  0.00  0.00    +0.037 C 
ATOM     10  C   UNL     1      33.403 -15.405 -26.002  0.00  0.00    +0.003 C 
ENDROOT
BRANCH   1  11
ATOM     11  O   UNL     1      35.415 -17.997 -20.429  0.00  0.00    -0.382 OA
ATOM     12  H   UNL     1      35.048 -18.772 -19.976  0.00  0.00    +0.210 HD
ENDBRANCH   1  11
BRANCH   2  13
ATOM     13  O   UNL     1      36.787 -18.055 -22.910  0.00  0.00    -0.382 OA
ATOM     14  H   UNL     1      36.959 -17.857 -23.843  0.00  0.00    +0.210 HD
ENDBRANCH   2  13
BRANCH   7  15
ATOM     15  O   UNL     1      33.723 -13.746 -22.772  0.00  0.00    -0.473 OA
BRANCH  15  16
ATOM     16  C   UNL     1      33.199 -12.486 -23.182  0.00  0.00    +0.232 C 
BRANCH  16  17
ATOM     17  C   UNL     1      31.971 -12.163 -22.334  0.00  0.00    +0.133 C 
BRANCH  17  18
ATOM     18  O   UNL     1      32.114 -12.795 -21.060  0.00  0.00    -0.383 OA
ATOM     19  H   UNL     1      31.975 -12.142 -20.357  0.00  0.00    +0.210 HD
ENDBRANCH  17  18
BRANCH  17  20
ATOM     20  C   UNL     1      31.772 -10.663 -22.103  0.00  0.00    -0.048 C 
BRANCH  20  21
ATOM     21  N   UNL     1      32.636  -9.857 -22.955  0.00  0.00    +0.388 N 
ATOM     22  H   UNL     1      33.588 -10.218 -22.901  0.00  0.00    -0.084 HD
ATOM     23  H   UNL     1      32.289  -9.911 -23.913  0.00  0.00    -0.084 HD
BRANCH  21  24
ATOM     24  C   UNL     1      32.630  -8.463 -22.536  0.00  0.00    -0.046 C 
ATOM     25  C   UNL     1      33.931  -7.805 -23.007  0.00  0.00    -0.022 C 
ATOM     26  C   UNL     1      31.425  -7.766 -23.178  0.00  0.00    -0.022 C 
ATOM     27  C   UNL     1      32.527  -8.392 -21.007  0.00  0.00    -0.022 C 
ENDBRANCH  21  24
ENDBRANCH  20  21
ENDBRANCH  17  20
ENDBRANCH  16  17
ENDBRANCH  15  16
ENDBRANCH   7  15
TORSDOF 9
ENDMDL
MODEL 6
REMARK VINA RESULT:      -7.8     12.948     15.539
REMARK  Name = 39147
REMARK  9 active torsions:
REMARK  status: ('A' for Active; 'I' for Inactive)
REMARK    1  A    between atoms: C_1  and  O_11
REMARK    2  A    between atoms: C_2  and  O_13
REMARK    3  A    between atoms: C_7  and  O_15
REMARK    4  A    between atoms: O_15  and  C_16
REMARK    5  A    between atoms: C_16  and  C_17
REMARK    6  A    between atoms: C_17  and  O_18
REMARK    7  A    between atoms: C_17  and  C_20
REMARK    8  A    between atoms: C_20  and  N_21
REMARK    9  A    between atoms: N_21  and  C_24
REMARK                            x       y       z     vdW  Elec       q    Type
REMARK                         _______ _______ _______ _____ _____    ______ ____
ROOT
ATOM      1  C   UNL     1      34.704 -17.434 -21.648  0.00  0.00    +0.142 C 
ATOM      2  C   UNL     1      35.318 -18.383 -22.677  0.00  0.00    +0.142 C 
ATOM      3  C   UNL     1      34.716 -15.990 -22.149  0.00  0.00    +0.061 C 
ATOM      4  C   UNL     1      34.510 -18.356 -23.977  0.00  0.00    +0.058 C 
ATOM      5  C   UNL     1      34.207 -15.857 -23.562  0.00  0.00    +0.010 C 
ATOM      6  C   UNL     1      34.141 -16.962 -24.430  0.00  0.00    -0.021 C 
ATOM      7  C   UNL     1      33.840 -14.586 -24.034  0.00  0.00    +0.134 C 
ATOM      8  C   UNL     1      33.675 -16.780 -25.742  0.00  0.00    -0.004 C 
ATOM      9  C   UNL     1      33.387 -14.418 -25.342  0.00  0.00    +0.037 C 
ATOM     10  C   UNL     1      33.302 -15.514 -26.195  0.00  0.00    +0.003 C 
ENDROOT
BRANCH   1  11
ATOM     11  O   UNL     1      35.440 -17.525 -20.433  0.00  0.00    -0.382 OA
ATOM     12  H   UNL     1      36.384 -17.402 -20.617  0.00  0.00    +0.210 HD
ENDBRANCH   1  11
BRANCH   2  13
ATOM     13  O   UNL     1      36.667 -17.995 -22.946  0.00  0.00    -0.382 OA
ATOM     14  H   UNL     1      36.937 -17.308 -22.317  0.00  0.00    +0.210 HD
ENDBRANCH   2  13
BRANCH   7  15
ATOM     15  O   UNL     1      33.909 -13.490 -23.225  0.00  0.00    -0.473 OA
BRANCH  15  16
ATOM     16  C   UNL     1      33.055 -12.396 -23.547  0.00  0.00    +0.232 C 
BRANCH  16  17
ATOM     17  C   UNL     1      33.896 -11.124 -23.643  0.00  0.00    +0.133 C 
BRANCH  17  18
ATOM     18  O   UNL     1      34.720 -11.207 -24.809  0.00  0.00    -0.383 OA
ATOM     19  H   UNL     1      34.401 -11.923 -25.381  0.00  0.00    +0.210 HD
ENDBRANCH  17  18
BRANCH  17  20
ATOM     20  C   UNL     1      33.056  -9.849 -23.742  0.00  0.00    -0.048 C 
BRANCH  20  21
ATOM     21  N   UNL     1      32.640  -9.364 -22.433  0.00  0.00    +0.388 N 
ATOM     22  H   UNL     1      31.652  -9.577 -22.296  0.00  0.00    -0.084 HD
ATOM     23  H   UNL     1      33.206  -9.824 -21.721  0.00  0.00    -0.084 HD
BRANCH  21  24
ATOM     24  C   UNL     1      32.835  -7.925 -22.324  0.00  0.00    -0.046 C 
ATOM     25  C   UNL     1      31.671  -7.218 -23.025  0.00  0.00    -0.022 C 
ATOM     26  C   UNL     1      32.862  -7.549 -20.838  0.00  0.00    -0.022 C 
ATOM     27  C   UNL     1      34.163  -7.539 -22.988  0.00  0.00    -0.022 C 
ENDBRANCH  21  24
ENDBRANCH  20  21
ENDBRANCH  17  20
ENDBRANCH  16  17
ENDBRANCH  15  16
ENDBRANCH   7  15
TORSDOF 9
ENDMDL
MODEL 7
REMARK VINA RESULT:      -7.7      4.470      7.109
REMARK  Name = 39147
REMARK  9 active torsions:
REMARK  status: ('A' for Active; 'I' for Inactive)
REMARK    1  A    between atoms: C_1  and  O_11
REMARK    2  A    between atoms: C_2  and  O_13
REMARK    3  A    between atoms: C_7  and  O_15
REMARK    4  A    between atoms: O_15  and  C_16
REMARK    5  A    between atoms: C_16  and  C_17
REMARK    6  A    between atoms: C_17  and  O_18
REMARK    7  A    between atoms: C_17  and  C_20
REMARK    8  A    between atoms: C_20  and  N_21
REMARK    9  A    between atoms: N_21  and  C_24
REMARK                            x       y       z     vdW  Elec       q    Type
REMARK                         _______ _______ _______ _____ _____    ______ ____
ROOT
ATOM      1  C   UNL     1      33.658 -25.001 -14.209  0.00  0.00    +0.142 C 
ATOM      2  C   UNL     1      34.526 -24.487 -13.061  0.00  0.00    +0.142 C 
ATOM      3  C   UNL     1      33.547 -23.965 -15.328  0.00  0.00    +0.061 C 
ATOM      4  C   UNL     1      35.950 -24.209 -13.551  0.00  0.00    +0.058 C 
ATOM      5  C   UNL     1      34.881 -23.378 -15.715  0.00  0.00    +0.010 C 
ATOM      6  C   UNL     1      36.001 -23.465 -14.866  0.00  0.00    -0.021 C 
ATOM      7  C   UNL     1      34.991 -22.685 -16.931  0.00  0.00    +0.134 C 
ATOM      8  C   UNL     1      37.216 -22.887 -15.268  0.00  0.00    -0.004 C 
ATOM      9  C   UNL     1      36.201 -22.108 -17.314  0.00  0.00    +0.037 C 
ATOM     10  C   UNL     1      37.314 -22.211 -16.484  0.00  0.00    +0.003 C 
ENDROOT
BRANCH   1  11
ATOM     11  O   UNL     1      32.360 -25.307 -13.711  0.00  0.00    -0.382 OA
ATOM     12  H   UNL     1      32.303 -26.254 -13.514  0.00  0.00    +0.210 HD
ENDBRANCH   1  11
BRANCH   2  13
ATOM     13  O   UNL     1      33.962 -23.287 -12.529  0.00  0.00    -0.382 OA
ATOM     14  H   UNL     1      34.066 -22.569 -13.172  0.00  0.00    +0.210 HD
ENDBRANCH   2  13
BRANCH   7  15
ATOM     15  O   UNL     1      33.921 -22.565 -17.769  0.00  0.00    -0.473 OA
BRANCH  15  16
ATOM     16  C   UNL     1      34.173 -22.723 -19.163  0.00  0.00    +0.232 C 
BRANCH  16  17
ATOM     17  C   UNL     1      33.538 -21.554 -19.914  0.00  0.00    +0.133 C 
BRANCH  17  18
ATOM     18  O   UNL     1      32.476 -21.021 -19.119  0.00  0.00    -0.383 OA
ATOM     19  H   UNL     1      32.529 -21.385 -18.222  0.00  0.00    +0.210 HD
ENDBRANCH  17  18
BRANCH  17  20
ATOM     20  C   UNL     1      34.524 -20.422 -20.216  0.00  0.00    -0.048 C 
BRANCH  20  21
ATOM     21  N   UNL     1      33.937 -19.396 -21.066  0.00  0.00    +0.388 N 
ATOM     22  H   UNL     1      33.410 -19.845 -21.816  0.00  0.00    -0.084 HD
ATOM     23  H   UNL     1      33.322 -18.815 -20.497  0.00  0.00    -0.084 HD
BRANCH  21  24
ATOM     24  C   UNL     1      34.968 -18.550 -21.651  0.00  0.00    -0.046 C 
ATOM     25  C   UNL     1      34.929 -18.712 -23.174  0.00  0.00    -0.022 C 
ATOM     26  C   UNL     1      34.676 -17.094 -21.269  0.00  0.00    -0.022 C 
ATOM     27  C   UNL     1      36.339 -18.972 -21.111  0.00  0.00    -0.022 C 
ENDBRANCH  21  24
ENDBRANCH  20  21
ENDBRANCH  17  20
ENDBRANCH  16  17
ENDBRANCH  15  16
ENDBRANCH   7  15
TORSDOF 9
ENDMDL
MODEL 8
REMARK VINA RESULT:      -7.7     13.909     16.305
REMARK  Name = 39147
REMARK  9 active torsions:
REMARK  status: ('A' for Active; 'I' for Inactive)
REMARK    1  A    between atoms: C_1  and  O_11
REMARK    2  A    between atoms: C_2  and  O_13
REMARK    3  A    between atoms: C_7  and  O_15
REMARK    4  A    between atoms: O_15  and  C_16
REMARK    5  A    between atoms: C_16  and  C_17
REMARK    6  A    between atoms: C_17  and  O_18
REMARK    7  A    between atoms: C_17  and  C_20
REMARK    8  A    between atoms: C_20  and  N_21
REMARK    9  A    between atoms: N_21  and  C_24
REMARK                            x       y       z     vdW  Elec       q    Type
REMARK                         _______ _______ _______ _____ _____    ______ ____
ROOT
ATOM      1  C   UNL     1      33.804 -12.845 -24.963  0.00  0.00    +0.142 C 
ATOM      2  C   UNL     1      33.651 -14.305 -25.388  0.00  0.00    +0.142 C 
ATOM      3  C   UNL     1      32.840 -12.493 -23.829  0.00  0.00    +0.061 C 
ATOM      4  C   UNL     1      33.980 -15.238 -24.220  0.00  0.00    +0.058 C 
ATOM      5  C   UNL     1      32.847 -13.513 -22.718  0.00  0.00    +0.010 C 
ATOM      6  C   UNL     1      33.353 -14.812 -22.911  0.00  0.00    -0.021 C 
ATOM      7  C   UNL     1      32.288 -13.168 -21.477  0.00  0.00    +0.134 C 
ATOM      8  C   UNL     1      33.321 -15.728 -21.848  0.00  0.00    -0.004 C 
ATOM      9  C   UNL     1      32.255 -14.091 -20.432  0.00  0.00    +0.037 C 
ATOM     10  C   UNL     1      32.773 -15.369 -20.616  0.00  0.00    +0.003 C 
ENDROOT
BRANCH   1  11
ATOM     11  O   UNL     1      33.550 -12.004 -26.083  0.00  0.00    -0.382 OA
ATOM     12  H   UNL     1      32.607 -12.037 -26.304  0.00  0.00    +0.210 HD
ENDBRANCH   1  11
BRANCH   2  13
ATOM     13  O   UNL     1      32.312 -14.542 -25.825  0.00  0.00    -0.382 OA
ATOM     14  H   UNL     1      32.302 -14.653 -26.789  0.00  0.00    +0.210 HD
ENDBRANCH   2  13
BRANCH   7  15
ATOM     15  O   UNL     1      31.772 -11.924 -21.261  0.00  0.00    -0.473 OA
BRANCH  15  16
ATOM     16  C   UNL     1      31.600 -11.524 -19.904  0.00  0.00    +0.232 C 
BRANCH  16  17
ATOM     17  C   UNL     1      31.640  -9.999 -19.831  0.00  0.00    +0.133 C 
BRANCH  17  18
ATOM     18  O   UNL     1      32.679  -9.611 -18.928  0.00  0.00    -0.383 OA
ATOM     19  H   UNL     1      32.642 -10.166 -18.134  0.00  0.00    +0.210 HD
ENDBRANCH  17  18
BRANCH  17  20
ATOM     20  C   UNL     1      31.910  -9.335 -21.184  0.00  0.00    -0.048 C 
BRANCH  20  21
ATOM     21  N   UNL     1      32.284  -7.935 -21.042  0.00  0.00    +0.388 N 
ATOM     22  H   UNL     1      31.609  -7.468 -20.437  0.00  0.00    -0.084 HD
ATOM     23  H   UNL     1      33.219  -7.887 -20.636  0.00  0.00    -0.084 HD
BRANCH  21  24
ATOM     24  C   UNL     1      32.306  -7.267 -22.336  0.00  0.00    -0.046 C 
ATOM     25  C   UNL     1      31.293  -7.954 -23.258  0.00  0.00    -0.022 C 
ATOM     26  C   UNL     1      31.919  -5.798 -22.132  0.00  0.00    -0.022 C 
ATOM     27  C   UNL     1      33.714  -7.362 -22.935  0.00  0.00    -0.022 C 
ENDBRANCH  21  24
ENDBRANCH  20  21
ENDBRANCH  17  20
ENDBRANCH  16  17
ENDBRANCH  15  16
ENDBRANCH   7  15
TORSDOF 9
ENDMDL
MODEL 9
REMARK VINA RESULT:      -7.7     13.001     15.592
REMARK  Name = 39147
REMARK  9 active torsions:
REMARK  status: ('A' for Active; 'I' for Inactive)
REMARK    1  A    between atoms: C_1  and  O_11
REMARK    2  A    between atoms: C_2  and  O_13
REMARK    3  A    between atoms: C_7  and  O_15
REMARK    4  A    between atoms: O_15  and  C_16
REMARK    5  A    between atoms: C_16  and  C_17
REMARK    6  A    between atoms: C_17  and  O_18
REMARK    7  A    between atoms: C_17  and  C_20
REMARK    8  A    between atoms: C_20  and  N_21
REMARK    9  A    between atoms: N_21  and  C_24
REMARK                            x       y       z     vdW  Elec       q    Type
REMARK                         _______ _______ _______ _____ _____    ______ ____
ROOT
ATOM      1  C   UNL     1      35.195 -16.476 -24.539  0.00  0.00    +0.142 C 
ATOM      2  C   UNL     1      35.140 -17.720 -23.653  0.00  0.00    +0.142 C 
ATOM      3  C   UNL     1      33.983 -15.574 -24.306  0.00  0.00    +0.061 C 
ATOM      4  C   UNL     1      35.159 -17.324 -22.175  0.00  0.00    +0.058 C 
ATOM      5  C   UNL     1      33.705 -15.336 -22.843  0.00  0.00    +0.010 C 
ATOM      6  C   UNL     1      34.231 -16.176 -21.845  0.00  0.00    -0.021 C 
ATOM      7  C   UNL     1      32.858 -14.277 -22.476  0.00  0.00    +0.134 C 
ATOM      8  C   UNL     1      33.929 -15.919 -20.498  0.00  0.00    -0.004 C 
ATOM      9  C   UNL     1      32.558 -14.038 -21.135  0.00  0.00    +0.037 C 
ATOM     10  C   UNL     1      33.095 -14.857 -20.146  0.00  0.00    +0.003 C 
ENDROOT
BRANCH   1  11
ATOM     11  O   UNL     1      35.235 -16.878 -25.905  0.00  0.00    -0.382 OA
ATOM     12  H   UNL     1      34.331 -16.938 -26.251  0.00  0.00    +0.210 HD
ENDBRANCH   1  11
BRANCH   2  13
ATOM     13  O   UNL     1      33.949 -18.459 -23.933  0.00  0.00    -0.382 OA
ATOM     14  H   UNL     1      33.648 -18.904 -23.126  0.00  0.00    +0.210 HD
ENDBRANCH   2  13
BRANCH   7  15
ATOM     15  O   UNL     1      32.316 -13.454 -23.419  0.00  0.00    -0.473 OA
BRANCH  15  16
ATOM     16  C   UNL     1      32.531 -12.055 -23.255  0.00  0.00    +0.232 C 
BRANCH  16  17
ATOM     17  C   UNL     1      33.804 -11.660 -24.001  0.00  0.00    +0.133 C 
BRANCH  17  18
ATOM     18  O   UNL     1      33.752 -12.210 -25.319  0.00  0.00    -0.383 OA
ATOM     19  H   UNL     1      33.986 -13.151 -25.288  0.00  0.00    +0.210 HD
ENDBRANCH  17  18
BRANCH  17  20
ATOM     20  C   UNL     1      33.991 -10.146 -24.121  0.00  0.00    -0.048 C 
BRANCH  20  21
ATOM     21  N   UNL     1      32.809  -9.412 -23.692  0.00  0.00    +0.388 N 
ATOM     22  H   UNL     1      32.178  -9.300 -24.486  0.00  0.00    -0.084 HD
ATOM     23  H   UNL     1      32.352  -9.937 -22.946  0.00  0.00    -0.084 HD
BRANCH  21  24
ATOM     24  C   UNL     1      33.168  -8.097 -23.181  0.00  0.00    -0.046 C 
ATOM     25  C   UNL     1      32.938  -8.081 -21.666  0.00  0.00    -0.022 C 
ATOM     26  C   UNL     1      34.647  -7.841 -23.492  0.00  0.00    -0.022 C 
ATOM     27  C   UNL     1      32.296  -7.032 -23.857  0.00  0.00    -0.022 C 
ENDBRANCH  21  24
ENDBRANCH  20  21
ENDBRANCH  17  20
ENDBRANCH  16  17
ENDBRANCH  15  16
ENDBRANCH   7  15
TORSDOF 9
ENDMDL
