MODEL 1
REMARK VINA RESULT:      -8.1      0.000      0.000
REMARK  Name = 11655511
REMARK  5 active torsions:
REMARK  status: ('A' for Active; 'I' for Inactive)
REMARK    1  A    between atoms: N_3  and  C_12
REMARK    2  A    between atoms: C_4  and  C_27
REMARK    3  A    between atoms: C_4  and  C_33
REMARK    4  A    between atoms: C_8  and  C_21
REMARK    5  A    between atoms: C_33  and  O_34
REMARK                            x       y       z     vdW  Elec       q    Type
REMARK                         _______ _______ _______ _____ _____    ______ ____
ROOT
ATOM      1  O   UNL     1      36.647 -22.344 -17.326  0.00  0.00    -0.252 OA
ATOM      2  N   UNL     1      34.597 -23.154 -16.647  0.00  0.00    -0.254 N 
ATOM      3  N   UNL     1      34.895 -22.059 -18.772  0.00  0.00    -0.261 N 
ATOM      4  C   UNL     1      35.038 -23.440 -15.250  0.00  0.00    +0.126 C 
ATOM      5  C   UNL     1      33.162 -23.426 -16.815  0.00  0.00    +0.122 C 
ATOM      6  C   UNL     1      35.446 -22.524 -17.571  0.00  0.00    +0.308 C 
ATOM      7  C   UNL     1      33.754 -23.947 -14.623  0.00  0.00    -0.004 C 
ATOM      8  C   UNL     1      32.716 -23.911 -15.470  0.00  0.00    -0.002 C 
ATOM      9  C   UNL     1      33.952 -22.799 -19.601  0.00  0.00    +0.116 C 
ENDROOT
BRANCH   3  12
ATOM     10  F   UNL     1      33.780 -20.867 -21.035  0.00  0.00    -0.238 F 
ATOM     11  N   UNL     1      36.058 -19.295 -21.769  0.00  0.00    +0.387 N 
ATOM     12  C   UNL     1      35.461 -20.882 -19.383  0.00  0.00    +0.105 C 
ATOM     13  C   UNL     1      34.391 -20.071 -20.112  0.00  0.00    +0.158 C 
ATOM     14  C   UNL     1      36.586 -21.253 -20.349  0.00  0.00    -0.000 C 
ATOM     15  C   UNL     1      34.995 -18.872 -20.845  0.00  0.00    -0.040 C 
ATOM     16  C   UNL     1      37.129 -20.012 -21.063  0.00  0.00    -0.076 C 
ATOM     17  C   UNL     1      36.601 -18.141 -22.487  0.00  0.00    -0.101 C 
ATOM     18  H   UNL     1      35.647 -19.938 -22.445  0.00  0.00    -0.080 HD
ENDBRANCH   3  12
BRANCH   8  21
ATOM     19  F   UNL     1      31.972 -25.472 -13.227  0.00  0.00    -0.204 F 
ATOM     20  F   UNL     1      27.993 -23.880 -16.627  0.00  0.00    -0.204 F 
ATOM     21  C   UNL     1      31.321 -24.302 -15.193  0.00  0.00    +0.027 C 
ATOM     22  C   UNL     1      31.005 -25.076 -14.067  0.00  0.00    +0.140 C 
ATOM     23  C   UNL     1      30.291 -23.901 -16.055  0.00  0.00    +0.032 C 
ATOM     24  C   UNL     1      28.970 -24.268 -15.797  0.00  0.00    +0.140 C 
ATOM     25  C   UNL     1      29.684 -25.442 -13.809  0.00  0.00    +0.032 C 
ATOM     26  C   UNL     1      28.666 -25.038 -14.674  0.00  0.00    +0.032 C 
ENDBRANCH   8  21
BRANCH   4  27
ATOM     27  C   UNL     1      36.122 -24.521 -15.210  0.00  0.00    +0.000 C 
ATOM     28  C   UNL     1      35.772 -25.860 -15.361  0.00  0.00    -0.002 C 
ATOM     29  C   UNL     1      37.454 -24.159 -15.022  0.00  0.00    -0.002 C 
ATOM     30  C   UNL     1      36.759 -26.844 -15.324  0.00  0.00    -0.000 C 
ATOM     31  C   UNL     1      38.441 -25.144 -14.985  0.00  0.00    -0.000 C 
ATOM     32  C   UNL     1      38.095 -26.486 -15.136  0.00  0.00    -0.000 C 
ENDBRANCH   4  27
BRANCH   4  33
ATOM     33  C   UNL     1      35.382 -22.127 -14.510  0.00  0.00    +0.164 C 
BRANCH  33  34
ATOM     34  O   UNL     1      35.943 -22.458 -13.256  0.00  0.00    -0.380 OA
ATOM     35  H   UNL     1      36.512 -21.733 -12.955  0.00  0.00    +0.211 HD
ENDBRANCH  33  34
ENDBRANCH   4  33
TORSDOF 5
ENDMDL
MODEL 2
REMARK VINA RESULT:      -7.4      2.316      6.023
REMARK  Name = 11655511
REMARK  5 active torsions:
REMARK  status: ('A' for Active; 'I' for Inactive)
REMARK    1  A    between atoms: N_3  and  C_12
REMARK    2  A    between atoms: C_4  and  C_27
REMARK    3  A    between atoms: C_4  and  C_33
REMARK    4  A    between atoms: C_8  and  C_21
REMARK    5  A    between atoms: C_33  and  O_34
REMARK                            x       y       z     vdW  Elec       q    Type
REMARK                         _______ _______ _______ _____ _____    ______ ____
ROOT
ATOM      1  O   UNL     1      36.498 -22.836 -17.502  0.00  0.00    -0.252 OA
ATOM      2  N   UNL     1      34.277 -22.965 -16.894  0.00  0.00    -0.254 N 
ATOM      3  N   UNL     1      36.051 -23.042 -15.266  0.00  0.00    -0.261 N 
ATOM      4  C   UNL     1      33.778 -23.115 -18.293  0.00  0.00    +0.126 C 
ATOM      5  C   UNL     1      33.176 -23.072 -15.925  0.00  0.00    +0.122 C 
ATOM      6  C   UNL     1      35.650 -22.928 -16.603  0.00  0.00    +0.308 C 
ATOM      7  C   UNL     1      32.287 -23.271 -18.069  0.00  0.00    -0.004 C 
ATOM      8  C   UNL     1      31.957 -23.280 -16.771  0.00  0.00    -0.002 C 
ATOM      9  C   UNL     1      35.431 -22.348 -14.145  0.00  0.00    +0.116 C 
ENDROOT
BRANCH   3  12
ATOM     10  F   UNL     1      36.237 -25.770 -14.705  0.00  0.00    -0.238 F 
ATOM     11  N   UNL     1      38.846 -25.714 -13.527  0.00  0.00    +0.387 N 
ATOM     12  C   UNL     1      37.306 -23.687 -14.972  0.00  0.00    +0.105 C 
ATOM     13  C   UNL     1      37.272 -25.164 -15.357  0.00  0.00    +0.158 C 
ATOM     14  C   UNL     1      37.667 -23.538 -13.494  0.00  0.00    -0.000 C 
ATOM     15  C   UNL     1      38.563 -25.881 -14.961  0.00  0.00    -0.040 C 
ATOM     16  C   UNL     1      38.956 -24.295 -13.164  0.00  0.00    -0.076 C 
ATOM     17  C   UNL     1      40.066 -26.434 -13.159  0.00  0.00    -0.101 C 
ATOM     18  H   UNL     1      38.063 -26.108 -13.007  0.00  0.00    -0.080 HD
ENDBRANCH   3  12
BRANCH   8  21
ATOM     19  F   UNL     1      31.322 -25.295 -14.884  0.00  0.00    -0.204 F 
ATOM     20  F   UNL     1      27.314 -21.888 -16.385  0.00  0.00    -0.204 F 
ATOM     21  C   UNL     1      30.610 -23.440 -16.191  0.00  0.00    +0.027 C 
ATOM     22  C   UNL     1      30.347 -24.454 -15.259  0.00  0.00    +0.140 C 
ATOM     23  C   UNL     1      29.573 -22.574 -16.566  0.00  0.00    +0.032 C 
ATOM     24  C   UNL     1      28.298 -22.720 -16.020  0.00  0.00    +0.140 C 
ATOM     25  C   UNL     1      29.072 -24.600 -14.713  0.00  0.00    +0.032 C 
ATOM     26  C   UNL     1      28.047 -23.732 -15.094  0.00  0.00    +0.032 C 
ENDBRANCH   8  21
BRANCH   4  27
ATOM     27  C   UNL     1      34.070 -21.867 -19.132  0.00  0.00    +0.000 C 
ATOM     28  C   UNL     1      33.021 -21.053 -19.553  0.00  0.00    -0.002 C 
ATOM     29  C   UNL     1      35.384 -21.553 -19.471  0.00  0.00    -0.002 C 
ATOM     30  C   UNL     1      33.288 -19.918 -20.318  0.00  0.00    -0.000 C 
ATOM     31  C   UNL     1      35.650 -20.417 -20.236  0.00  0.00    -0.000 C 
ATOM     32  C   UNL     1      34.603 -19.600 -20.660  0.00  0.00    -0.000 C 
ENDBRANCH   4  27
BRANCH   4  33
ATOM     33  C   UNL     1      34.260 -24.452 -18.901  0.00  0.00    +0.164 C 
BRANCH  33  34
ATOM     34  O   UNL     1      33.934 -24.457 -20.276  0.00  0.00    -0.380 OA
ATOM     35  H   UNL     1      34.712 -24.720 -20.791  0.00  0.00    +0.211 HD
ENDBRANCH  33  34
ENDBRANCH   4  33
TORSDOF 5
ENDMDL
MODEL 3
REMARK VINA RESULT:      -6.7      2.430      5.894
REMARK  Name = 11655511
REMARK  5 active torsions:
REMARK  status: ('A' for Active; 'I' for Inactive)
REMARK    1  A    between atoms: N_3  and  C_12
REMARK    2  A    between atoms: C_4  and  C_27
REMARK    3  A    between atoms: C_4  and  C_33
REMARK    4  A    between atoms: C_8  and  C_21
REMARK    5  A    between atoms: C_33  and  O_34
REMARK                            x       y       z     vdW  Elec       q    Type
REMARK                         _______ _______ _______ _____ _____    ______ ____
ROOT
ATOM      1  O   UNL     1      36.259 -23.641 -16.729  0.00  0.00    -0.252 OA
ATOM      2  N   UNL     1      33.981 -23.430 -16.434  0.00  0.00    -0.254 N 
ATOM      3  N   UNL     1      35.481 -23.772 -14.580  0.00  0.00    -0.261 N 
ATOM      4  C   UNL     1      33.664 -23.507 -17.891  0.00  0.00    +0.126 C 
ATOM      5  C   UNL     1      32.754 -23.367 -15.628  0.00  0.00    +0.122 C 
ATOM      6  C   UNL     1      35.291 -23.602 -15.957  0.00  0.00    +0.308 C 
ATOM      7  C   UNL     1      32.150 -23.434 -17.876  0.00  0.00    -0.004 C 
ATOM      8  C   UNL     1      31.646 -23.390 -16.636  0.00  0.00    -0.002 C 
ATOM      9  C   UNL     1      34.823 -22.989 -13.542  0.00  0.00    +0.116 C 
ENDROOT
BRANCH   3  12
ATOM     10  F   UNL     1      38.151 -23.031 -14.907  0.00  0.00    -0.238 F 
ATOM     11  N   UNL     1      39.296 -25.618 -14.465  0.00  0.00    +0.387 N 
ATOM     12  C   UNL     1      36.573 -24.598 -14.129  0.00  0.00    +0.105 C 
ATOM     13  C   UNL     1      37.805 -23.756 -13.804  0.00  0.00    +0.158 C 
ATOM     14  C   UNL     1      36.924 -25.661 -15.171  0.00  0.00    -0.000 C 
ATOM     15  C   UNL     1      38.999 -24.629 -13.417  0.00  0.00    -0.040 C 
ATOM     16  C   UNL     1      38.138 -26.483 -14.730  0.00  0.00    -0.076 C 
ATOM     17  C   UNL     1      40.461 -26.421 -14.095  0.00  0.00    -0.101 C 
ATOM     18  H   UNL     1      39.507 -25.110 -15.323  0.00  0.00    -0.080 HD
ENDBRANCH   3  12
BRANCH   8  21
ATOM     19  F   UNL     1      30.515 -25.132 -14.710  0.00  0.00    -0.204 F 
ATOM     20  F   UNL     1      27.202 -21.458 -17.046  0.00  0.00    -0.204 F 
ATOM     21  C   UNL     1      30.223 -23.342 -16.249  0.00  0.00    +0.027 C 
ATOM     22  C   UNL     1      29.712 -24.227 -15.289  0.00  0.00    +0.140 C 
ATOM     23  C   UNL     1      29.362 -22.406 -16.839  0.00  0.00    +0.032 C 
ATOM     24  C   UNL     1      28.017 -22.356 -16.476  0.00  0.00    +0.140 C 
ATOM     25  C   UNL     1      28.366 -24.177 -14.927  0.00  0.00    +0.032 C 
ATOM     26  C   UNL     1      27.518 -23.241 -15.520  0.00  0.00    +0.032 C 
ENDBRANCH   8  21
BRANCH   4  27
ATOM     27  C   UNL     1      34.254 -22.320 -18.659  0.00  0.00    +0.000 C 
ATOM     28  C   UNL     1      35.629 -22.097 -18.642  0.00  0.00    -0.002 C 
ATOM     29  C   UNL     1      33.412 -21.468 -19.370  0.00  0.00    -0.002 C 
ATOM     30  C   UNL     1      36.164 -21.016 -19.341  0.00  0.00    -0.000 C 
ATOM     31  C   UNL     1      33.949 -20.387 -20.069  0.00  0.00    -0.000 C 
ATOM     32  C   UNL     1      35.325 -20.160 -20.055  0.00  0.00    -0.000 C 
ENDBRANCH   4  27
BRANCH   4  33
ATOM     33  C   UNL     1      34.018 -24.903 -18.451  0.00  0.00    +0.164 C 
BRANCH  33  34
ATOM     34  O   UNL     1      33.824 -24.881 -19.851  0.00  0.00    -0.380 OA
ATOM     35  H   UNL     1      34.591 -24.467 -20.277  0.00  0.00    +0.211 HD
ENDBRANCH  33  34
ENDBRANCH   4  33
TORSDOF 5
ENDMDL
MODEL 4
REMARK VINA RESULT:      -6.4      0.824      1.693
REMARK  Name = 11655511
REMARK  5 active torsions:
REMARK  status: ('A' for Active; 'I' for Inactive)
REMARK    1  A    between atoms: N_3  and  C_12
REMARK    2  A    between atoms: C_4  and  C_27
REMARK    3  A    between atoms: C_4  and  C_33
REMARK    4  A    between atoms: C_8  and  C_21
REMARK    5  A    between atoms: C_33  and  O_34
REMARK                            x       y       z     vdW  Elec       q    Type
REMARK                         _______ _______ _______ _____ _____    ______ ____
ROOT
ATOM      1  O   UNL     1      36.802 -22.416 -17.333  0.00  0.00    -0.252 OA
ATOM      2  N   UNL     1      34.798 -23.172 -16.478  0.00  0.00    -0.254 N 
ATOM      3  N   UNL     1      34.944 -22.108 -18.635  0.00  0.00    -0.261 N 
ATOM      4  C   UNL     1      35.345 -23.451 -15.118  0.00  0.00    +0.126 C 
ATOM      5  C   UNL     1      33.349 -23.413 -16.525  0.00  0.00    +0.122 C 
ATOM      6  C   UNL     1      35.582 -22.572 -17.477  0.00  0.00    +0.308 C 
ATOM      7  C   UNL     1      34.106 -23.922 -14.382  0.00  0.00    -0.004 C 
ATOM      8  C   UNL     1      33.003 -23.873 -15.142  0.00  0.00    -0.002 C 
ATOM      9  C   UNL     1      33.921 -22.836 -19.374  0.00  0.00    +0.116 C 
ENDROOT
BRANCH   3  12
ATOM     10  F   UNL     1      33.745 -20.998 -20.896  0.00  0.00    -0.238 F 
ATOM     11  N   UNL     1      35.989 -19.445 -21.764  0.00  0.00    +0.387 N 
ATOM     12  C   UNL     1      35.483 -20.952 -19.306  0.00  0.00    +0.105 C 
ATOM     13  C   UNL     1      34.385 -20.168 -20.023  0.00  0.00    +0.158 C 
ATOM     14  C   UNL     1      36.575 -21.352 -20.298  0.00  0.00    -0.000 C 
ATOM     15  C   UNL     1      34.957 -18.994 -20.818  0.00  0.00    -0.040 C 
ATOM     16  C   UNL     1      37.087 -20.134 -21.072  0.00  0.00    -0.076 C 
ATOM     17  C   UNL     1      36.501 -18.316 -22.540  0.00  0.00    -0.101 C 
ATOM     18  H   UNL     1      35.557 -20.113 -22.402  0.00  0.00    -0.080 HD
ENDBRANCH   3  12
BRANCH   8  21
ATOM     19  F   UNL     1      30.911 -24.243 -17.014  0.00  0.00    -0.204 F 
ATOM     20  F   UNL     1      29.706 -24.899 -11.718  0.00  0.00    -0.204 F 
ATOM     21  C   UNL     1      31.628 -24.229 -14.746  0.00  0.00    +0.027 C 
ATOM     22  C   UNL     1      30.627 -24.401 -15.713  0.00  0.00    +0.140 C 
ATOM     23  C   UNL     1      31.304 -24.400 -13.393  0.00  0.00    +0.032 C 
ATOM     24  C   UNL     1      30.005 -24.738 -13.014  0.00  0.00    +0.140 C 
ATOM     25  C   UNL     1      29.328 -24.739 -15.334  0.00  0.00    +0.032 C 
ATOM     26  C   UNL     1      29.017 -24.907 -13.984  0.00  0.00    +0.032 C 
ENDBRANCH   8  21
BRANCH   4  27
ATOM     27  C   UNL     1      36.405 -24.555 -15.152  0.00  0.00    +0.000 C 
ATOM     28  C   UNL     1      37.751 -24.231 -15.000  0.00  0.00    -0.002 C 
ATOM     29  C   UNL     1      36.019 -25.881 -15.337  0.00  0.00    -0.002 C 
ATOM     30  C   UNL     1      38.716 -25.236 -15.033  0.00  0.00    -0.000 C 
ATOM     31  C   UNL     1      36.984 -26.887 -15.369  0.00  0.00    -0.000 C 
ATOM     32  C   UNL     1      38.333 -26.565 -15.217  0.00  0.00    -0.000 C 
ENDBRANCH   4  27
BRANCH   4  33
ATOM     33  C   UNL     1      35.777 -22.137 -14.426  0.00  0.00    +0.164 C 
BRANCH  33  34
ATOM     34  O   UNL     1      36.146 -22.438 -13.095  0.00  0.00    -0.380 OA
ATOM     35  H   UNL     1      36.545 -21.654 -12.686  0.00  0.00    +0.211 HD
ENDBRANCH  33  34
ENDBRANCH   4  33
TORSDOF 5
ENDMDL
MODEL 5
REMARK VINA RESULT:      -5.5     12.074     15.389
REMARK  Name = 11655511
REMARK  5 active torsions:
REMARK  status: ('A' for Active; 'I' for Inactive)
REMARK    1  A    between atoms: N_3  and  C_12
REMARK    2  A    between atoms: C_4  and  C_27
REMARK    3  A    between atoms: C_4  and  C_33
REMARK    4  A    between atoms: C_8  and  C_21
REMARK    5  A    between atoms: C_33  and  O_34
REMARK                            x       y       z     vdW  Elec       q    Type
REMARK                         _______ _______ _______ _____ _____    ______ ____
ROOT
ATOM      1  O   UNL     1      32.294  -7.758 -22.234  0.00  0.00    -0.252 OA
ATOM      2  N   UNL     1      32.817  -9.897 -22.918  0.00  0.00    -0.254 N 
ATOM      3  N   UNL     1      33.976  -7.967 -23.774  0.00  0.00    -0.261 N 
ATOM      4  C   UNL     1      31.637 -10.527 -22.254  0.00  0.00    +0.126 C 
ATOM      5  C   UNL     1      33.581 -10.888 -23.689  0.00  0.00    +0.122 C 
ATOM      6  C   UNL     1      32.999  -8.505 -22.927  0.00  0.00    +0.308 C 
ATOM      7  C   UNL     1      31.799 -11.978 -22.658  0.00  0.00    -0.004 C 
ATOM      8  C   UNL     1      32.846 -12.176 -23.471  0.00  0.00    -0.002 C 
ATOM      9  C   UNL     1      35.319  -8.503 -23.949  0.00  0.00    +0.116 C 
ENDROOT
BRANCH   3  12
ATOM     10  F   UNL     1      31.690  -7.337 -25.246  0.00  0.00    -0.238 F 
ATOM     11  N   UNL     1      32.702  -4.956 -26.474  0.00  0.00    +0.387 N 
ATOM     12  C   UNL     1      33.757  -6.659 -24.339  0.00  0.00    +0.105 C 
ATOM     13  C   UNL     1      32.266  -6.362 -24.484  0.00  0.00    +0.158 C 
ATOM     14  C   UNL     1      34.453  -6.523 -25.694  0.00  0.00    -0.000 C 
ATOM     15  C   UNL     1      32.022  -5.019 -25.171  0.00  0.00    -0.040 C 
ATOM     16  C   UNL     1      34.150  -5.165 -26.334  0.00  0.00    -0.076 C 
ATOM     17  C   UNL     1      32.430  -3.678 -27.133  0.00  0.00    -0.101 C 
ATOM     18  H   UNL     1      32.334  -5.709 -27.055  0.00  0.00    -0.080 HD
ENDBRANCH   3  12
BRANCH   8  21
ATOM     19  F   UNL     1      34.641 -13.953 -22.190  0.00  0.00    -0.204 F 
ATOM     20  F   UNL     1      32.759 -15.385 -27.123  0.00  0.00    -0.204 F 
ATOM     21  C   UNL     1      33.282 -13.448 -24.076  0.00  0.00    +0.027 C 
ATOM     22  C   UNL     1      34.173 -14.294 -23.400  0.00  0.00    +0.140 C 
ATOM     23  C   UNL     1      32.808 -13.828 -25.340  0.00  0.00    +0.032 C 
ATOM     24  C   UNL     1      33.217 -15.031 -25.916  0.00  0.00    +0.140 C 
ATOM     25  C   UNL     1      34.582 -15.496 -23.976  0.00  0.00    +0.032 C 
ATOM     26  C   UNL     1      34.104 -15.865 -25.234  0.00  0.00    +0.032 C 
ENDBRANCH   8  21
BRANCH   4  27
ATOM     27  C   UNL     1      31.703 -10.380 -20.731  0.00  0.00    +0.000 C 
ATOM     28  C   UNL     1      32.124  -9.178 -20.167  0.00  0.00    -0.002 C 
ATOM     29  C   UNL     1      31.344 -11.451 -19.916  0.00  0.00    -0.002 C 
ATOM     30  C   UNL     1      32.184  -9.045 -18.780  0.00  0.00    -0.000 C 
ATOM     31  C   UNL     1      31.405 -11.318 -18.529  0.00  0.00    -0.000 C 
ATOM     32  C   UNL     1      31.825 -10.116 -17.960  0.00  0.00    -0.000 C 
ENDBRANCH   4  27
BRANCH   4  33
ATOM     33  C   UNL     1      30.323 -10.046 -22.911  0.00  0.00    +0.164 C 
BRANCH  33  34
ATOM     34  O   UNL     1      30.352  -8.634 -22.977  0.00  0.00    -0.380 OA
ATOM     35  H   UNL     1      31.100  -8.301 -22.457  0.00  0.00    +0.211 HD
ENDBRANCH  33  34
ENDBRANCH   4  33
TORSDOF 5
ENDMDL
