MODEL 1
REMARK VINA RESULT:      -7.2      0.000      0.000
REMARK  Name = 2153
REMARK  0 active torsions:
REMARK  status: ('A' for Active; 'I' for Inactive)
REMARK                            x       y       z     vdW  Elec       q    Type
REMARK                         _______ _______ _______ _____ _____    ______ ____
ROOT
ATOM      1  O   UNL     1      34.787 -16.832 -25.873  0.00  0.00    -0.265 OA
ATOM      2  O   UNL     1      32.553 -13.883 -22.981  0.00  0.00    -0.246 OA
ATOM      3  N   UNL     1      33.872 -15.554 -22.044  0.00  0.00    -0.266 N 
ATOM      4  N   UNL     1      33.656 -15.340 -24.447  0.00  0.00    -0.246 N 
ATOM      5  N   UNL     1      35.839 -18.119 -23.394  0.00  0.00    -0.310 N 
ATOM      6  N   UNL     1      35.330 -17.409 -21.343  0.00  0.00    -0.302 N 
ATOM      7  C   UNL     1      34.709 -16.636 -22.286  0.00  0.00    +0.132 A 
ATOM      8  C   UNL     1      35.004 -17.051 -23.556  0.00  0.00    +0.133 A 
ATOM      9  C   UNL     1      34.504 -16.440 -24.745  0.00  0.00    +0.280 A 
ATOM     10  C   UNL     1      33.304 -14.853 -23.136  0.00  0.00    +0.335 A 
ATOM     11  C   UNL     1      33.587 -15.150 -20.672  0.00  0.00    +0.136 C 
ATOM     12  C   UNL     1      33.070 -14.615 -25.569  0.00  0.00    +0.138 C 
ATOM     13  C   UNL     1      36.006 -18.296 -22.045  0.00  0.00    +0.183 C 
ATOM     14  H   UNL     1      36.245 -18.659 -24.110  0.00  0.00    +0.149 HD
ATOM     15  H   UNL     1      35.284 -17.323 -20.364  0.00  0.00    +0.150 HD
ENDROOT
TORSDOF 0
ENDMDL
MODEL 2
REMARK VINA RESULT:      -7.0      0.980      3.098
REMARK  Name = 2153
REMARK  0 active torsions:
REMARK  status: ('A' for Active; 'I' for Inactive)
REMARK                            x       y       z     vdW  Elec       q    Type
REMARK                         _______ _______ _______ _____ _____    ______ ____
ROOT
ATOM      1  O   UNL     1      32.825 -13.505 -23.889  0.00  0.00    -0.265 OA
ATOM      2  O   UNL     1      34.573 -17.427 -25.788  0.00  0.00    -0.246 OA
ATOM      3  N   UNL     1      34.831 -17.103 -23.498  0.00  0.00    -0.266 N 
ATOM      4  N   UNL     1      33.691 -15.462 -24.867  0.00  0.00    -0.246 N 
ATOM      5  N   UNL     1      33.875 -14.550 -21.298  0.00  0.00    -0.310 N 
ATOM      6  N   UNL     1      34.953 -16.493 -21.117  0.00  0.00    -0.302 N 
ATOM      7  C   UNL     1      34.587 -16.268 -22.416  0.00  0.00    +0.132 A 
ATOM      8  C   UNL     1      33.923 -15.079 -22.556  0.00  0.00    +0.133 A 
ATOM      9  C   UNL     1      33.418 -14.574 -23.792  0.00  0.00    +0.280 A 
ATOM     10  C   UNL     1      34.384 -16.724 -24.788  0.00  0.00    +0.335 A 
ATOM     11  C   UNL     1      35.544 -18.360 -23.299  0.00  0.00    +0.136 C 
ATOM     12  C   UNL     1      33.231 -15.075 -26.196  0.00  0.00    +0.138 C 
ATOM     13  C   UNL     1      34.508 -15.438 -20.467  0.00  0.00    +0.183 C 
ATOM     14  H   UNL     1      33.465 -13.694 -21.038  0.00  0.00    +0.149 HD
ATOM     15  H   UNL     1      35.437 -17.268 -20.750  0.00  0.00    +0.150 HD
ENDROOT
TORSDOF 0
ENDMDL
MODEL 3
REMARK VINA RESULT:      -7.0     11.365     13.238
REMARK  Name = 2153
REMARK  0 active torsions:
REMARK  status: ('A' for Active; 'I' for Inactive)
REMARK                            x       y       z     vdW  Elec       q    Type
REMARK                         _______ _______ _______ _____ _____    ______ ____
ROOT
ATOM      1  O   UNL     1      37.074 -26.324 -11.908  0.00  0.00    -0.265 OA
ATOM      2  O   UNL     1      35.350 -22.796 -14.483  0.00  0.00    -0.246 OA
ATOM      3  N   UNL     1      37.435 -23.657 -15.052  0.00  0.00    -0.266 N 
ATOM      4  N   UNL     1      36.186 -24.556 -13.182  0.00  0.00    -0.246 N 
ATOM      5  N   UNL     1      39.436 -26.211 -13.730  0.00  0.00    -0.310 N 
ATOM      6  N   UNL     1      39.604 -24.763 -15.417  0.00  0.00    -0.302 N 
ATOM      7  C   UNL     1      38.420 -24.589 -14.753  0.00  0.00    +0.132 A 
ATOM      8  C   UNL     1      38.292 -25.466 -13.710  0.00  0.00    +0.133 A 
ATOM      9  C   UNL     1      37.165 -25.525 -12.835  0.00  0.00    +0.280 A 
ATOM     10  C   UNL     1      36.260 -23.605 -14.263  0.00  0.00    +0.335 A 
ATOM     11  C   UNL     1      37.619 -22.743 -16.173  0.00  0.00    +0.136 C 
ATOM     12  C   UNL     1      34.975 -24.500 -12.371  0.00  0.00    +0.138 C 
ATOM     13  C   UNL     1      40.194 -25.750 -14.775  0.00  0.00    +0.183 C 
ATOM     14  H   UNL     1      39.672 -26.939 -13.111  0.00  0.00    +0.149 HD
ATOM     15  H   UNL     1      39.938 -24.265 -16.197  0.00  0.00    +0.150 HD
ENDROOT
TORSDOF 0
ENDMDL
MODEL 4
REMARK VINA RESULT:      -7.0      1.654      3.094
REMARK  Name = 2153
REMARK  0 active torsions:
REMARK  status: ('A' for Active; 'I' for Inactive)
REMARK                            x       y       z     vdW  Elec       q    Type
REMARK                         _______ _______ _______ _____ _____    ______ ____
ROOT
ATOM      1  O   UNL     1      34.852 -15.208 -20.390  0.00  0.00    -0.265 OA
ATOM      2  O   UNL     1      33.809 -15.376 -24.965  0.00  0.00    -0.246 OA
ATOM      3  N   UNL     1      34.508 -17.336 -23.923  0.00  0.00    -0.266 N 
ATOM      4  N   UNL     1      34.323 -15.264 -22.683  0.00  0.00    -0.246 N 
ATOM      5  N   UNL     1      35.463 -18.118 -20.645  0.00  0.00    -0.310 N 
ATOM      6  N   UNL     1      35.269 -19.240 -22.562  0.00  0.00    -0.302 N 
ATOM      7  C   UNL     1      34.924 -17.927 -22.738  0.00  0.00    +0.132 A 
ATOM      8  C   UNL     1      35.036 -17.214 -21.575  0.00  0.00    +0.133 A 
ATOM      9  C   UNL     1      34.745 -15.823 -21.447  0.00  0.00    +0.280 A 
ATOM     10  C   UNL     1      34.186 -15.957 -23.940  0.00  0.00    +0.335 A 
ATOM     11  C   UNL     1      34.406 -18.137 -25.137  0.00  0.00    +0.136 C 
ATOM     12  C   UNL     1      33.990 -13.844 -22.703  0.00  0.00    +0.138 C 
ATOM     13  C   UNL     1      35.589 -19.323 -21.287  0.00  0.00    +0.183 C 
ATOM     14  H   UNL     1      35.647 -17.938 -19.694  0.00  0.00    +0.149 HD
ATOM     15  H   UNL     1      35.275 -19.959 -23.234  0.00  0.00    +0.150 HD
ENDROOT
TORSDOF 0
ENDMDL
MODEL 5
REMARK VINA RESULT:      -6.9      1.647      4.163
REMARK  Name = 2153
REMARK  0 active torsions:
REMARK  status: ('A' for Active; 'I' for Inactive)
REMARK                            x       y       z     vdW  Elec       q    Type
REMARK                         _______ _______ _______ _____ _____    ______ ____
ROOT
ATOM      1  O   UNL     1      34.662 -16.932 -21.106  0.00  0.00    -0.265 OA
ATOM      2  O   UNL     1      34.687 -17.011 -25.801  0.00  0.00    -0.246 OA
ATOM      3  N   UNL     1      33.576 -15.266 -24.736  0.00  0.00    -0.266 N 
ATOM      4  N   UNL     1      34.690 -16.996 -23.459  0.00  0.00    -0.246 N 
ATOM      5  N   UNL     1      33.058 -14.429 -21.374  0.00  0.00    -0.310 N 
ATOM      6  N   UNL     1      32.487 -13.554 -23.343  0.00  0.00    -0.302 N 
ATOM      7  C   UNL     1      33.218 -14.697 -23.521  0.00  0.00    +0.132 A 
ATOM      8  C   UNL     1      33.581 -15.256 -22.326  0.00  0.00    +0.133 A 
ATOM      9  C   UNL     1      34.348 -16.452 -22.192  0.00  0.00    +0.280 A 
ATOM     10  C   UNL     1      34.340 -16.459 -24.750  0.00  0.00    +0.335 A 
ATOM     11  C   UNL     1      33.164 -14.633 -25.984  0.00  0.00    +0.136 C 
ATOM     12  C   UNL     1      35.478 -18.224 -23.477  0.00  0.00    +0.138 C 
ATOM     13  C   UNL     1      32.409 -13.419 -22.035  0.00  0.00    +0.183 C 
ATOM     14  H   UNL     1      33.133 -14.538 -20.398  0.00  0.00    +0.149 HD
ATOM     15  H   UNL     1      32.107 -12.965 -24.035  0.00  0.00    +0.150 HD
ENDROOT
TORSDOF 0
ENDMDL
MODEL 6
REMARK VINA RESULT:      -6.9      1.776      3.462
REMARK  Name = 2153
REMARK  0 active torsions:
REMARK  status: ('A' for Active; 'I' for Inactive)
REMARK                            x       y       z     vdW  Elec       q    Type
REMARK                         _______ _______ _______ _____ _____    ______ ____
ROOT
ATOM      1  O   UNL     1      34.417 -17.591 -25.534  0.00  0.00    -0.265 OA
ATOM      2  O   UNL     1      35.300 -17.593 -20.923  0.00  0.00    -0.246 OA
ATOM      3  N   UNL     1      34.487 -15.638 -21.886  0.00  0.00    -0.266 N 
ATOM      4  N   UNL     1      34.868 -17.620 -23.225  0.00  0.00    -0.246 N 
ATOM      5  N   UNL     1      33.577 -14.753 -25.151  0.00  0.00    -0.310 N 
ATOM      6  N   UNL     1      33.625 -13.725 -23.173  0.00  0.00    -0.302 N 
ATOM      7  C   UNL     1      34.063 -15.016 -23.053  0.00  0.00    +0.132 A 
ATOM      8  C   UNL     1      34.045 -15.670 -24.255  0.00  0.00    +0.133 A 
ATOM      9  C   UNL     1      34.445 -17.027 -24.444  0.00  0.00    +0.280 A 
ATOM     10  C   UNL     1      34.913 -16.988 -21.929  0.00  0.00    +0.335 A 
ATOM     11  C   UNL     1      34.489 -14.898 -20.629  0.00  0.00    +0.136 C 
ATOM     12  C   UNL     1      35.307 -19.011 -23.266  0.00  0.00    +0.138 C 
ATOM     13  C   UNL     1      33.338 -13.598 -24.452  0.00  0.00    +0.183 C 
ATOM     14  H   UNL     1      33.437 -14.894 -26.115  0.00  0.00    +0.149 HD
ATOM     15  H   UNL     1      33.541 -13.047 -22.465  0.00  0.00    +0.150 HD
ENDROOT
TORSDOF 0
ENDMDL
MODEL 7
REMARK VINA RESULT:      -6.8     11.013     13.059
REMARK  Name = 2153
REMARK  0 active torsions:
REMARK  status: ('A' for Active; 'I' for Inactive)
REMARK                            x       y       z     vdW  Elec       q    Type
REMARK                         _______ _______ _______ _____ _____    ______ ____
ROOT
ATOM      1  O   UNL     1      36.870 -26.144 -12.069  0.00  0.00    -0.265 OA
ATOM      2  O   UNL     1      38.937 -23.724 -15.522  0.00  0.00    -0.246 OA
ATOM      3  N   UNL     1      36.662 -23.398 -15.159  0.00  0.00    -0.266 N 
ATOM      4  N   UNL     1      37.932 -24.944 -13.793  0.00  0.00    -0.246 N 
ATOM      5  N   UNL     1      34.366 -24.736 -12.877  0.00  0.00    -0.310 N 
ATOM      6  N   UNL     1      34.282 -23.261 -14.547  0.00  0.00    -0.302 N 
ATOM      7  C   UNL     1      35.553 -23.747 -14.400  0.00  0.00    +0.132 A 
ATOM      8  C   UNL     1      35.632 -24.657 -13.380  0.00  0.00    +0.133 A 
ATOM      9  C   UNL     1      36.827 -25.333 -12.989  0.00  0.00    +0.280 A 
ATOM     10  C   UNL     1      37.916 -23.995 -14.879  0.00  0.00    +0.335 A 
ATOM     11  C   UNL     1      36.527 -22.424 -16.236  0.00  0.00    +0.136 C 
ATOM     12  C   UNL     1      39.224 -25.556 -13.506  0.00  0.00    +0.138 C 
ATOM     13  C   UNL     1      33.589 -23.878 -13.612  0.00  0.00    +0.183 C 
ATOM     14  H   UNL     1      34.067 -25.303 -12.129  0.00  0.00    +0.149 HD
ATOM     15  H   UNL     1      33.959 -22.600 -15.201  0.00  0.00    +0.150 HD
ENDROOT
TORSDOF 0
ENDMDL
MODEL 8
REMARK VINA RESULT:      -6.7      1.914      3.206
REMARK  Name = 2153
REMARK  0 active torsions:
REMARK  status: ('A' for Active; 'I' for Inactive)
REMARK                            x       y       z     vdW  Elec       q    Type
REMARK                         _______ _______ _______ _____ _____    ______ ____
ROOT
ATOM      1  O   UNL     1      35.318 -17.589 -20.659  0.00  0.00    -0.265 OA
ATOM      2  O   UNL     1      33.837 -13.897 -23.153  0.00  0.00    -0.246 OA
ATOM      3  N   UNL     1      34.070 -15.940 -24.244  0.00  0.00    -0.266 N 
ATOM      4  N   UNL     1      34.577 -15.723 -21.885  0.00  0.00    -0.246 N 
ATOM      5  N   UNL     1      35.084 -19.128 -23.206  0.00  0.00    -0.310 N 
ATOM      6  N   UNL     1      34.409 -18.213 -25.123  0.00  0.00    -0.302 N 
ATOM      7  C   UNL     1      34.420 -17.278 -24.125  0.00  0.00    +0.132 A 
ATOM      8  C   UNL     1      34.833 -17.814 -22.935  0.00  0.00    +0.133 A 
ATOM      9  C   UNL     1      34.947 -17.083 -21.714  0.00  0.00    +0.280 A 
ATOM     10  C   UNL     1      34.136 -15.097 -23.107  0.00  0.00    +0.335 A 
ATOM     11  C   UNL     1      33.637 -15.415 -25.534  0.00  0.00    +0.136 C 
ATOM     12  C   UNL     1      34.644 -14.852 -20.717  0.00  0.00    +0.138 C 
ATOM     13  C   UNL     1      34.814 -19.321 -24.536  0.00  0.00    +0.183 C 
ATOM     14  H   UNL     1      35.400 -19.808 -22.568  0.00  0.00    +0.149 HD
ATOM     15  H   UNL     1      34.154 -18.088 -26.066  0.00  0.00    +0.150 HD
ENDROOT
TORSDOF 0
ENDMDL
MODEL 9
REMARK VINA RESULT:      -6.7      1.979      4.501
REMARK  Name = 2153
REMARK  0 active torsions:
REMARK  status: ('A' for Active; 'I' for Inactive)
REMARK                            x       y       z     vdW  Elec       q    Type
REMARK                         _______ _______ _______ _____ _____    ______ ____
ROOT
ATOM      1  O   UNL     1      35.021 -16.114 -20.037  0.00  0.00    -0.265 OA
ATOM      2  O   UNL     1      35.405 -18.977 -23.739  0.00  0.00    -0.246 OA
ATOM      3  N   UNL     1      34.597 -16.823 -24.092  0.00  0.00    -0.266 N 
ATOM      4  N   UNL     1      35.224 -17.569 -21.875  0.00  0.00    -0.246 N 
ATOM      5  N   UNL     1      33.997 -14.093 -21.981  0.00  0.00    -0.310 N 
ATOM      6  N   UNL     1      33.779 -14.503 -24.161  0.00  0.00    -0.302 N 
ATOM      7  C   UNL     1      34.269 -15.604 -23.514  0.00  0.00    +0.132 A 
ATOM      8  C   UNL     1      34.412 -15.380 -22.171  0.00  0.00    +0.133 A 
ATOM      9  C   UNL     1      34.901 -16.342 -21.237  0.00  0.00    +0.280 A 
ATOM     10  C   UNL     1      35.096 -17.870 -23.279  0.00  0.00    +0.335 A 
ATOM     11  C   UNL     1      34.426 -17.014 -25.528  0.00  0.00    +0.136 C 
ATOM     12  C   UNL     1      35.739 -18.649 -21.040  0.00  0.00    +0.138 C 
ATOM     13  C   UNL     1      33.626 -13.607 -23.208  0.00  0.00    +0.183 C 
ATOM     14  H   UNL     1      33.969 -13.607 -21.125  0.00  0.00    +0.149 HD
ATOM     15  H   UNL     1      33.586 -14.402 -25.121  0.00  0.00    +0.150 HD
ENDROOT
TORSDOF 0
ENDMDL
