MODEL 1
REMARK VINA RESULT:     -12.3      0.000      0.000
REMARK  Name = 447655
REMARK  6 active torsions:
REMARK  status: ('A' for Active; 'I' for Inactive)
REMARK    1  A    between atoms: N_4  and  C_14
REMARK    2  A    between atoms: C_6  and  O_26
REMARK    3  A    between atoms: C_15  and  S_20
REMARK    4  A    between atoms: S_20  and  N_23
REMARK    5  A    between atoms: O_26  and  C_27
REMARK    6  A    between atoms: C_27  and  C_28
REMARK                            x       y       z     vdW  Elec       q    Type
REMARK                         _______ _______ _______ _____ _____    ______ ____
ROOT
ATOM      1  N   UNL     1      32.368 -23.359 -15.911  0.00  0.00    -0.293 NA
ATOM      2  N   UNL     1      29.039 -22.467 -17.195  0.00  0.00    -0.266 NA
ATOM      3  N   UNL     1      30.532 -23.952 -14.419  0.00  0.00    -0.316 NA
ATOM      4  N   UNL     1      32.755 -24.405 -13.851  0.00  0.00    -0.238 N 
ATOM      5  N   UNL     1      28.336 -23.359 -15.277  0.00  0.00    -0.296 N 
ATOM      6  C   UNL     1      31.516 -22.843 -16.824  0.00  0.00    +0.288 C 
ATOM      7  C   UNL     1      30.166 -22.877 -16.542  0.00  0.00    +0.215 C 
ATOM      8  C   UNL     1      29.703 -23.427 -15.354  0.00  0.00    +0.196 C 
ATOM      9  C   UNL     1      31.830 -23.875 -14.780  0.00  0.00    +0.207 C 
ATOM     10  C   UNL     1      27.967 -22.776 -16.398  0.00  0.00    +0.164 C 
ATOM     11  H   UNL     1      29.003 -22.030 -18.076  0.00  0.00    +0.126 HD
ATOM     12  H   UNL     1      32.337 -24.773 -13.040  0.00  0.00    +0.166 HD
ATOM     13  H   UNL     1      27.757 -23.674 -14.545  0.00  0.00    +0.150 HD
ENDROOT
BRANCH   4  14
ATOM     14  C   UNL     1      34.158 -24.509 -13.861  0.00  0.00    +0.060 C 
ATOM     15  C   UNL     1      36.290 -24.219 -12.756  0.00  0.00    +0.123 C 
ATOM     16  C   UNL     1      34.899 -24.114 -12.746  0.00  0.00    +0.035 C 
ATOM     17  C   UNL     1      34.815 -25.010 -14.989  0.00  0.00    +0.015 C 
ATOM     18  C   UNL     1      36.944 -24.719 -13.883  0.00  0.00    +0.020 C 
ATOM     19  C   UNL     1      36.206 -25.114 -14.999  0.00  0.00    +0.003 C 
BRANCH  15  20
ATOM     20  S   UNL     1      37.215 -23.725 -11.360  0.00  0.00    +0.057 S 
ATOM     21  O   UNL     1      38.397 -24.569 -11.270  0.00  0.00    -0.153 OA
ATOM     22  O   UNL     1      37.361 -22.276 -11.392  0.00  0.00    -0.153 OA
BRANCH  20  23
ATOM     23  N   UNL     1      36.142 -24.140 -10.096  0.00  0.00    -0.203 NA
ATOM     24  H   UNL     1      36.360 -25.079  -9.761  0.00  0.00    +0.144 HD
ATOM     25  H   UNL     1      35.184 -24.116 -10.442  0.00  0.00    +0.144 HD
ENDBRANCH  20  23
ENDBRANCH  15  20
ENDBRANCH   4  14
BRANCH   6  26
ATOM     26  O   UNL     1      32.028 -22.311 -17.982  0.00  0.00    -0.453 OA
BRANCH  26  27
ATOM     27  C   UNL     1      33.360 -22.657 -18.314  0.00  0.00    +0.208 C 
BRANCH  27  28
ATOM     28  C   UNL     1      33.774 -21.858 -19.549  0.00  0.00    +0.044 C 
ATOM     29  C   UNL     1      32.820 -20.678 -19.776  0.00  0.00    +0.004 C 
ATOM     30  C   UNL     1      35.223 -21.371 -19.419  0.00  0.00    +0.004 C 
ATOM     31  C   UNL     1      33.244 -19.833 -20.975  0.00  0.00    +0.000 C 
ATOM     32  C   UNL     1      35.643 -20.525 -20.618  0.00  0.00    +0.000 C 
ATOM     33  C   UNL     1      34.688 -19.358 -20.846  0.00  0.00    +0.000 C 
ENDBRANCH  27  28
ENDBRANCH  26  27
ENDBRANCH   6  26
TORSDOF 6
ENDMDL
MODEL 2
REMARK VINA RESULT:     -12.2      2.252      2.693
REMARK  Name = 447655
REMARK  6 active torsions:
REMARK  status: ('A' for Active; 'I' for Inactive)
REMARK    1  A    between atoms: N_4  and  C_14
REMARK    2  A    between atoms: C_6  and  O_26
REMARK    3  A    between atoms: C_15  and  S_20
REMARK    4  A    between atoms: S_20  and  N_23
REMARK    5  A    between atoms: O_26  and  C_27
REMARK    6  A    between atoms: C_27  and  C_28
REMARK                            x       y       z     vdW  Elec       q    Type
REMARK                         _______ _______ _______ _____ _____    ______ ____
ROOT
ATOM      1  N   UNL     1      33.370 -23.033 -16.511  0.00  0.00    -0.293 NA
ATOM      2  N   UNL     1      29.744 -22.641 -16.985  0.00  0.00    -0.266 NA
ATOM      3  N   UNL     1      32.044 -23.552 -14.531  0.00  0.00    -0.316 NA
ATOM      4  N   UNL     1      34.377 -23.716 -14.510  0.00  0.00    -0.238 N 
ATOM      5  N   UNL     1      29.648 -23.291 -14.856  0.00  0.00    -0.296 N 
ATOM      6  C   UNL     1      32.263 -22.738 -17.228  0.00  0.00    +0.288 C 
ATOM      7  C   UNL     1      31.038 -22.847 -16.602  0.00  0.00    +0.215 C 
ATOM      8  C   UNL     1      30.953 -23.250 -15.276  0.00  0.00    +0.196 C 
ATOM      9  C   UNL     1      33.194 -23.417 -15.225  0.00  0.00    +0.207 C 
ATOM     10  C   UNL     1      28.947 -22.920 -15.906  0.00  0.00    +0.164 C 
ATOM     11  H   UNL     1      29.439 -22.348 -17.874  0.00  0.00    +0.126 HD
ATOM     12  H   UNL     1      34.219 -23.993 -13.579  0.00  0.00    +0.166 HD
ATOM     13  H   UNL     1      29.310 -23.542 -13.965  0.00  0.00    +0.150 HD
ENDROOT
BRANCH   4  14
ATOM     14  C   UNL     1      35.736 -23.697 -14.872  0.00  0.00    +0.060 C 
ATOM     15  C   UNL     1      37.912 -24.754 -14.909  0.00  0.00    +0.123 C 
ATOM     16  C   UNL     1      36.564 -24.774 -14.549  0.00  0.00    +0.035 C 
ATOM     17  C   UNL     1      36.263 -22.599 -15.559  0.00  0.00    +0.015 C 
ATOM     18  C   UNL     1      38.435 -23.657 -15.594  0.00  0.00    +0.020 C 
ATOM     19  C   UNL     1      37.610 -22.580 -15.918  0.00  0.00    +0.003 C 
BRANCH  15  20
ATOM     20  S   UNL     1      38.944 -26.102 -14.504  0.00  0.00    +0.057 S 
ATOM     21  O   UNL     1      39.438 -25.911 -13.148  0.00  0.00    -0.153 OA
ATOM     22  O   UNL     1      38.253 -27.335 -14.854  0.00  0.00    -0.153 OA
BRANCH  20  23
ATOM     23  N   UNL     1      40.234 -25.867 -15.600  0.00  0.00    -0.203 NA
ATOM     24  H   UNL     1      40.427 -26.741 -16.089  0.00  0.00    +0.144 HD
ATOM     25  H   UNL     1      41.065 -25.572 -15.088  0.00  0.00    +0.144 HD
ENDBRANCH  20  23
ENDBRANCH  15  20
ENDBRANCH   4  14
BRANCH   6  26
ATOM     26  O   UNL     1      32.406 -22.345 -18.536  0.00  0.00    -0.453 OA
BRANCH  26  27
ATOM     27  C   UNL     1      33.684 -22.512 -19.122  0.00  0.00    +0.208 C 
BRANCH  27  28
ATOM     28  C   UNL     1      34.207 -21.140 -19.541  0.00  0.00    +0.044 C 
ATOM     29  C   UNL     1      35.639 -21.248 -20.084  0.00  0.00    +0.004 C 
ATOM     30  C   UNL     1      33.277 -20.498 -20.579  0.00  0.00    +0.004 C 
ATOM     31  C   UNL     1      36.166 -19.896 -20.558  0.00  0.00    +0.000 C 
ATOM     32  C   UNL     1      33.808 -19.148 -21.053  0.00  0.00    +0.000 C 
ATOM     33  C   UNL     1      35.234 -19.258 -21.584  0.00  0.00    +0.000 C 
ENDBRANCH  27  28
ENDBRANCH  26  27
ENDBRANCH   6  26
TORSDOF 6
ENDMDL
MODEL 3
REMARK VINA RESULT:     -12.1      2.097      2.579
REMARK  Name = 447655
REMARK  6 active torsions:
REMARK  status: ('A' for Active; 'I' for Inactive)
REMARK    1  A    between atoms: N_4  and  C_14
REMARK    2  A    between atoms: C_6  and  O_26
REMARK    3  A    between atoms: C_15  and  S_20
REMARK    4  A    between atoms: S_20  and  N_23
REMARK    5  A    between atoms: O_26  and  C_27
REMARK    6  A    between atoms: C_27  and  C_28
REMARK                            x       y       z     vdW  Elec       q    Type
REMARK                         _______ _______ _______ _____ _____    ______ ____
ROOT
ATOM      1  N   UNL     1      33.379 -23.843 -14.821  0.00  0.00    -0.293 NA
ATOM      2  N   UNL     1      29.981 -23.931 -16.225  0.00  0.00    -0.266 NA
ATOM      3  N   UNL     1      31.756 -25.021 -13.432  0.00  0.00    -0.316 NA
ATOM      4  N   UNL     1      33.993 -24.812 -12.780  0.00  0.00    -0.238 N 
ATOM      5  N   UNL     1      29.514 -25.075 -14.370  0.00  0.00    -0.296 N 
ATOM      6  C   UNL     1      32.442 -23.566 -15.755  0.00  0.00    +0.288 C 
ATOM      7  C   UNL     1      31.156 -24.014 -15.535  0.00  0.00    +0.215 C 
ATOM      8  C   UNL     1      30.840 -24.728 -14.387  0.00  0.00    +0.196 C 
ATOM      9  C   UNL     1      32.983 -24.544 -13.732  0.00  0.00    +0.207 C 
ATOM     10  C   UNL     1      29.025 -24.581 -15.488  0.00  0.00    +0.164 C 
ATOM     11  H   UNL     1      29.844 -23.488 -17.093  0.00  0.00    +0.126 HD
ATOM     12  H   UNL     1      33.677 -25.324 -12.000  0.00  0.00    +0.166 HD
ATOM     13  H   UNL     1      29.032 -25.580 -13.675  0.00  0.00    +0.150 HD
ENDROOT
BRANCH   4  14
ATOM     14  C   UNL     1      35.361 -24.492 -12.730  0.00  0.00    +0.060 C 
ATOM     15  C   UNL     1      37.632 -24.868 -13.476  0.00  0.00    +0.123 C 
ATOM     16  C   UNL     1      36.275 -25.187 -13.526  0.00  0.00    +0.035 C 
ATOM     17  C   UNL     1      35.813 -23.475 -11.884  0.00  0.00    +0.015 C 
ATOM     18  C   UNL     1      38.079 -23.852 -12.631  0.00  0.00    +0.020 C 
ATOM     19  C   UNL     1      37.169 -23.156 -11.835  0.00  0.00    +0.003 C 
BRANCH  15  20
ATOM     20  S   UNL     1      38.771 -25.738 -14.473  0.00  0.00    +0.057 S 
ATOM     21  O   UNL     1      39.870 -26.184 -13.630  0.00  0.00    -0.153 OA
ATOM     22  O   UNL     1      38.036 -26.705 -15.277  0.00  0.00    -0.153 OA
BRANCH  20  23
ATOM     23  N   UNL     1      39.331 -24.488 -15.495  0.00  0.00    -0.203 NA
ATOM     24  H   UNL     1      38.535 -24.034 -15.944  0.00  0.00    +0.144 HD
ATOM     25  H   UNL     1      39.945 -24.882 -16.208  0.00  0.00    +0.144 HD
ENDBRANCH  20  23
ENDBRANCH  15  20
ENDBRANCH   4  14
BRANCH   6  26
ATOM     26  O   UNL     1      32.810 -22.856 -16.872  0.00  0.00    -0.453 OA
BRANCH  26  27
ATOM     27  C   UNL     1      34.076 -23.150 -17.433  0.00  0.00    +0.208 C 
BRANCH  27  28
ATOM     28  C   UNL     1      34.173 -22.463 -18.794  0.00  0.00    +0.044 C 
ATOM     29  C   UNL     1      32.996 -21.501 -19.002  0.00  0.00    +0.004 C 
ATOM     30  C   UNL     1      35.512 -21.727 -18.935  0.00  0.00    +0.004 C 
ATOM     31  C   UNL     1      33.099 -20.763 -20.334  0.00  0.00    +0.000 C 
ATOM     32  C   UNL     1      35.611 -20.988 -20.268  0.00  0.00    +0.000 C 
ATOM     33  C   UNL     1      34.435 -20.039 -20.474  0.00  0.00    +0.000 C 
ENDBRANCH  27  28
ENDBRANCH  26  27
ENDBRANCH   6  26
TORSDOF 6
ENDMDL
MODEL 4
REMARK VINA RESULT:     -11.6      2.426      5.149
REMARK  Name = 447655
REMARK  6 active torsions:
REMARK  status: ('A' for Active; 'I' for Inactive)
REMARK    1  A    between atoms: N_4  and  C_14
REMARK    2  A    between atoms: C_6  and  O_26
REMARK    3  A    between atoms: C_15  and  S_20
REMARK    4  A    between atoms: S_20  and  N_23
REMARK    5  A    between atoms: O_26  and  C_27
REMARK    6  A    between atoms: C_27  and  C_28
REMARK                            x       y       z     vdW  Elec       q    Type
REMARK                         _______ _______ _______ _____ _____    ______ ____
ROOT
ATOM      1  N   UNL     1      35.173 -23.316 -16.509  0.00  0.00    -0.293 NA
ATOM      2  N   UNL     1      33.100 -21.915 -19.205  0.00  0.00    -0.266 NA
ATOM      3  N   UNL     1      36.399 -21.912 -18.082  0.00  0.00    -0.316 NA
ATOM      4  N   UNL     1      37.471 -22.931 -16.271  0.00  0.00    -0.238 N 
ATOM      5  N   UNL     1      35.019 -20.990 -19.859  0.00  0.00    -0.296 N 
ATOM      6  C   UNL     1      34.013 -23.125 -17.176  0.00  0.00    +0.288 C 
ATOM      7  C   UNL     1      34.037 -22.326 -18.301  0.00  0.00    +0.215 C 
ATOM      8  C   UNL     1      35.220 -21.739 -18.728  0.00  0.00    +0.196 C 
ATOM      9  C   UNL     1      36.279 -22.705 -16.997  0.00  0.00    +0.207 C 
ATOM     10  C   UNL     1      33.735 -21.116 -20.120  0.00  0.00    +0.164 C 
ATOM     11  H   UNL     1      32.144 -22.148 -19.200  0.00  0.00    +0.126 HD
ATOM     12  H   UNL     1      38.257 -22.475 -16.647  0.00  0.00    +0.166 HD
ATOM     13  H   UNL     1      35.687 -20.472 -20.366  0.00  0.00    +0.150 HD
ENDROOT
BRANCH   4  14
ATOM     14  C   UNL     1      37.751 -23.680 -15.113  0.00  0.00    +0.060 C 
ATOM     15  C   UNL     1      37.226 -24.290 -12.832  0.00  0.00    +0.123 C 
ATOM     16  C   UNL     1      36.948 -23.546 -13.979  0.00  0.00    +0.035 C 
ATOM     17  C   UNL     1      38.834 -24.563 -15.095  0.00  0.00    +0.015 C 
ATOM     18  C   UNL     1      38.308 -25.170 -12.817  0.00  0.00    +0.020 C 
ATOM     19  C   UNL     1      39.112 -25.307 -13.949  0.00  0.00    +0.003 C 
BRANCH  15  20
ATOM     20  S   UNL     1      36.220 -24.120 -11.415  0.00  0.00    +0.057 S 
ATOM     21  O   UNL     1      35.907 -25.450 -10.913  0.00  0.00    -0.153 OA
ATOM     22  O   UNL     1      36.830 -23.138 -10.530  0.00  0.00    -0.153 OA
BRANCH  20  23
ATOM     23  N   UNL     1      34.808 -23.442 -12.097  0.00  0.00    -0.203 NA
ATOM     24  H   UNL     1      34.704 -22.479 -11.775  0.00  0.00    +0.144 HD
ATOM     25  H   UNL     1      33.996 -23.987 -11.808  0.00  0.00    +0.144 HD
ENDBRANCH  20  23
ENDBRANCH  15  20
ENDBRANCH   4  14
BRANCH   6  26
ATOM     26  O   UNL     1      32.873 -23.730 -16.708  0.00  0.00    -0.453 OA
BRANCH  26  27
ATOM     27  C   UNL     1      32.538 -23.510 -15.351  0.00  0.00    +0.208 C 
BRANCH  27  28
ATOM     28  C   UNL     1      31.016 -23.446 -15.232  0.00  0.00    +0.044 C 
ATOM     29  C   UNL     1      30.408 -22.721 -16.440  0.00  0.00    +0.004 C 
ATOM     30  C   UNL     1      30.424 -24.854 -15.085  0.00  0.00    +0.004 C 
ATOM     31  C   UNL     1      28.883 -22.691 -16.371  0.00  0.00    +0.000 C 
ATOM     32  C   UNL     1      28.899 -24.819 -15.018  0.00  0.00    +0.000 C 
ATOM     33  C   UNL     1      28.299 -24.091 -16.216  0.00  0.00    +0.000 C 
ENDBRANCH  27  28
ENDBRANCH  26  27
ENDBRANCH   6  26
TORSDOF 6
ENDMDL
MODEL 5
REMARK VINA RESULT:     -11.3      2.777      5.564
REMARK  Name = 447655
REMARK  6 active torsions:
REMARK  status: ('A' for Active; 'I' for Inactive)
REMARK    1  A    between atoms: N_4  and  C_14
REMARK    2  A    between atoms: C_6  and  O_26
REMARK    3  A    between atoms: C_15  and  S_20
REMARK    4  A    between atoms: S_20  and  N_23
REMARK    5  A    between atoms: O_26  and  C_27
REMARK    6  A    between atoms: C_27  and  C_28
REMARK                            x       y       z     vdW  Elec       q    Type
REMARK                         _______ _______ _______ _____ _____    ______ ____
ROOT
ATOM      1  N   UNL     1      35.471 -23.121 -16.975  0.00  0.00    -0.293 NA
ATOM      2  N   UNL     1      34.117 -21.260 -19.843  0.00  0.00    -0.266 NA
ATOM      3  N   UNL     1      37.032 -21.522 -17.954  0.00  0.00    -0.316 NA
ATOM      4  N   UNL     1      37.633 -22.840 -16.117  0.00  0.00    -0.238 N 
ATOM      5  N   UNL     1      36.126 -20.297 -19.848  0.00  0.00    -0.296 N 
ATOM      6  C   UNL     1      34.511 -22.796 -17.869  0.00  0.00    +0.288 C 
ATOM      7  C   UNL     1      34.804 -21.833 -18.812  0.00  0.00    +0.215 C 
ATOM      8  C   UNL     1      36.049 -21.219 -18.836  0.00  0.00    +0.196 C 
ATOM      9  C   UNL     1      36.656 -22.471 -17.071  0.00  0.00    +0.207 C 
ATOM     10  C   UNL     1      34.949 -20.346 -20.435  0.00  0.00    +0.164 C 
ATOM     11  H   UNL     1      33.192 -21.465 -20.112  0.00  0.00    +0.126 HD
ATOM     12  H   UNL     1      38.482 -22.352 -16.210  0.00  0.00    +0.166 HD
ATOM     13  H   UNL     1      36.892 -19.725 -20.086  0.00  0.00    +0.150 HD
ENDROOT
BRANCH   4  14
ATOM     14  C   UNL     1      37.626 -23.768 -15.059  0.00  0.00    +0.060 C 
ATOM     15  C   UNL     1      36.824 -24.463 -12.886  0.00  0.00    +0.123 C 
ATOM     16  C   UNL     1      36.831 -23.542 -13.934  0.00  0.00    +0.035 C 
ATOM     17  C   UNL     1      38.413 -24.920 -15.133  0.00  0.00    +0.015 C 
ATOM     18  C   UNL     1      37.611 -25.612 -12.962  0.00  0.00    +0.020 C 
ATOM     19  C   UNL     1      38.406 -25.840 -14.085  0.00  0.00    +0.003 C 
BRANCH  15  20
ATOM     20  S   UNL     1      35.829 -24.179 -11.480  0.00  0.00    +0.057 S 
ATOM     21  O   UNL     1      34.620 -23.488 -11.904  0.00  0.00    -0.153 OA
ATOM     22  O   UNL     1      35.725 -25.423 -10.729  0.00  0.00    -0.153 OA
BRANCH  20  23
ATOM     23  N   UNL     1      36.808 -23.089 -10.601  0.00  0.00    -0.203 NA
ATOM     24  H   UNL     1      37.228 -22.417 -11.244  0.00  0.00    +0.144 HD
ATOM     25  H   UNL     1      37.545 -23.606 -10.121  0.00  0.00    +0.144 HD
ENDBRANCH  20  23
ENDBRANCH  15  20
ENDBRANCH   4  14
BRANCH   6  26
ATOM     26  O   UNL     1      33.298 -23.436 -17.799  0.00  0.00    -0.453 OA
BRANCH  26  27
ATOM     27  C   UNL     1      32.281 -22.806 -17.043  0.00  0.00    +0.208 C 
BRANCH  27  28
ATOM     28  C   UNL     1      31.711 -23.824 -16.057  0.00  0.00    +0.044 C 
ATOM     29  C   UNL     1      32.559 -23.876 -14.779  0.00  0.00    +0.004 C 
ATOM     30  C   UNL     1      30.248 -23.499 -15.728  0.00  0.00    +0.004 C 
ATOM     31  C   UNL     1      31.979 -24.848 -13.756  0.00  0.00    +0.000 C 
ATOM     32  C   UNL     1      29.671 -24.472 -14.703  0.00  0.00    +0.000 C 
ATOM     33  C   UNL     1      30.522 -24.528 -13.438  0.00  0.00    +0.000 C 
ENDBRANCH  27  28
ENDBRANCH  26  27
ENDBRANCH   6  26
TORSDOF 6
ENDMDL
MODEL 6
REMARK VINA RESULT:     -11.2      3.234      5.824
REMARK  Name = 447655
REMARK  6 active torsions:
REMARK  status: ('A' for Active; 'I' for Inactive)
REMARK    1  A    between atoms: N_4  and  C_14
REMARK    2  A    between atoms: C_6  and  O_26
REMARK    3  A    between atoms: C_15  and  S_20
REMARK    4  A    between atoms: S_20  and  N_23
REMARK    5  A    between atoms: O_26  and  C_27
REMARK    6  A    between atoms: C_27  and  C_28
REMARK                            x       y       z     vdW  Elec       q    Type
REMARK                         _______ _______ _______ _____ _____    ______ ____
ROOT
ATOM      1  N   UNL     1      34.852 -22.489 -17.703  0.00  0.00    -0.293 NA
ATOM      2  N   UNL     1      33.086 -20.963 -20.546  0.00  0.00    -0.266 NA
ATOM      3  N   UNL     1      36.207 -20.928 -18.998  0.00  0.00    -0.316 NA
ATOM      4  N   UNL     1      37.080 -22.042 -17.135  0.00  0.00    -0.238 N 
ATOM      5  N   UNL     1      35.030 -19.924 -20.874  0.00  0.00    -0.296 N 
ATOM      6  C   UNL     1      33.781 -22.289 -18.503  0.00  0.00    +0.288 C 
ATOM      7  C   UNL     1      33.915 -21.408 -19.556  0.00  0.00    +0.215 C 
ATOM      8  C   UNL     1      35.116 -20.749 -19.781  0.00  0.00    +0.196 C 
ATOM      9  C   UNL     1      35.983 -21.804 -17.996  0.00  0.00    +0.207 C 
ATOM     10  C   UNL     1      33.798 -20.077 -21.311  0.00  0.00    +0.164 C 
ATOM     11  H   UNL     1      32.149 -21.230 -20.684  0.00  0.00    +0.126 HD
ATOM     12  H   UNL     1      37.887 -21.531 -17.371  0.00  0.00    +0.166 HD
ATOM     13  H   UNL     1      35.734 -19.347 -21.250  0.00  0.00    +0.150 HD
ENDROOT
BRANCH   4  14
ATOM     14  C   UNL     1      37.241 -22.865 -16.006  0.00  0.00    +0.060 C 
ATOM     15  C   UNL     1      38.556 -24.448 -14.735  0.00  0.00    +0.123 C 
ATOM     16  C   UNL     1      38.397 -23.633 -15.856  0.00  0.00    +0.035 C 
ATOM     17  C   UNL     1      36.243 -22.915 -15.028  0.00  0.00    +0.015 C 
ATOM     18  C   UNL     1      37.559 -24.496 -13.761  0.00  0.00    +0.020 C 
ATOM     19  C   UNL     1      36.402 -23.730 -13.908  0.00  0.00    +0.003 C 
BRANCH  15  20
ATOM     20  S   UNL     1      40.003 -25.407 -14.550  0.00  0.00    +0.057 S 
ATOM     21  O   UNL     1      41.063 -24.546 -14.045  0.00  0.00    -0.153 OA
ATOM     22  O   UNL     1      39.659 -26.628 -13.834  0.00  0.00    -0.153 OA
BRANCH  20  23
ATOM     23  N   UNL     1      40.342 -25.804 -16.177  0.00  0.00    -0.203 NA
ATOM     24  H   UNL     1      40.451 -26.814 -16.265  0.00  0.00    +0.144 HD
ATOM     25  H   UNL     1      41.205 -25.342 -16.466  0.00  0.00    +0.144 HD
ENDBRANCH  20  23
ENDBRANCH  15  20
ENDBRANCH   4  14
BRANCH   6  26
ATOM     26  O   UNL     1      32.618 -22.967 -18.234  0.00  0.00    -0.453 OA
BRANCH  26  27
ATOM     27  C   UNL     1      31.879 -22.553 -17.100  0.00  0.00    +0.208 C 
BRANCH  27  28
ATOM     28  C   UNL     1      31.798 -23.723 -16.122  0.00  0.00    +0.044 C 
ATOM     29  C   UNL     1      32.645 -23.446 -14.872  0.00  0.00    +0.004 C 
ATOM     30  C   UNL     1      30.339 -24.010 -15.739  0.00  0.00    +0.004 C 
ATOM     31  C   UNL     1      32.537 -24.578 -13.855  0.00  0.00    +0.000 C 
ATOM     32  C   UNL     1      30.236 -25.142 -14.720  0.00  0.00    +0.000 C 
ATOM     33  C   UNL     1      31.086 -24.866 -13.484  0.00  0.00    +0.000 C 
ENDBRANCH  27  28
ENDBRANCH  26  27
ENDBRANCH   6  26
TORSDOF 6
ENDMDL
MODEL 7
REMARK VINA RESULT:     -11.1      3.532      6.272
REMARK  Name = 447655
REMARK  6 active torsions:
REMARK  status: ('A' for Active; 'I' for Inactive)
REMARK    1  A    between atoms: N_4  and  C_14
REMARK    2  A    between atoms: C_6  and  O_26
REMARK    3  A    between atoms: C_15  and  S_20
REMARK    4  A    between atoms: S_20  and  N_23
REMARK    5  A    between atoms: O_26  and  C_27
REMARK    6  A    between atoms: C_27  and  C_28
REMARK                            x       y       z     vdW  Elec       q    Type
REMARK                         _______ _______ _______ _____ _____    ______ ____
ROOT
ATOM      1  N   UNL     1      33.430 -23.415 -16.490  0.00  0.00    -0.293 NA
ATOM      2  N   UNL     1      36.828 -22.277 -17.321  0.00  0.00    -0.266 NA
ATOM      3  N   UNL     1      34.840 -22.982 -14.547  0.00  0.00    -0.316 NA
ATOM      4  N   UNL     1      32.633 -23.716 -14.309  0.00  0.00    -0.238 N 
ATOM      5  N   UNL     1      37.083 -22.230 -15.107  0.00  0.00    -0.296 N 
ATOM      6  C   UNL     1      34.423 -23.071 -17.340  0.00  0.00    +0.288 C 
ATOM      7  C   UNL     1      35.632 -22.681 -16.801  0.00  0.00    +0.215 C 
ATOM      8  C   UNL     1      35.815 -22.644 -15.425  0.00  0.00    +0.196 C 
ATOM      9  C   UNL     1      33.697 -23.349 -15.163  0.00  0.00    +0.207 C 
ATOM     10  C   UNL     1      37.666 -22.018 -16.268  0.00  0.00    +0.164 C 
ATOM     11  H   UNL     1      37.047 -22.188 -18.276  0.00  0.00    +0.126 HD
ATOM     12  H   UNL     1      32.854 -23.658 -13.351  0.00  0.00    +0.166 HD
ATOM     13  H   UNL     1      37.473 -22.117 -14.210  0.00  0.00    +0.150 HD
ENDROOT
BRANCH   4  14
ATOM     14  C   UNL     1      31.317 -24.147 -14.560  0.00  0.00    +0.060 C 
ATOM     15  C   UNL     1      29.186 -23.844 -15.663  0.00  0.00    +0.123 C 
ATOM     16  C   UNL     1      30.490 -23.415 -15.414  0.00  0.00    +0.035 C 
ATOM     17  C   UNL     1      30.834 -25.312 -13.956  0.00  0.00    +0.015 C 
ATOM     18  C   UNL     1      28.706 -25.006 -15.059  0.00  0.00    +0.020 C 
ATOM     19  C   UNL     1      29.531 -25.739 -14.205  0.00  0.00    +0.003 C 
BRANCH  15  20
ATOM     20  S   UNL     1      28.154 -22.927 -16.732  0.00  0.00    +0.057 S 
ATOM     21  O   UNL     1      28.867 -21.725 -17.139  0.00  0.00    -0.153 OA
ATOM     22  O   UNL     1      27.619 -23.829 -17.743  0.00  0.00    -0.153 OA
BRANCH  20  23
ATOM     23  N   UNL     1      26.891 -22.487 -15.668  0.00  0.00    -0.203 NA
ATOM     24  H   UNL     1      27.286 -22.045 -14.838  0.00  0.00    +0.144 HD
ATOM     25  H   UNL     1      26.371 -23.320 -15.396  0.00  0.00    +0.144 HD
ENDBRANCH  20  23
ENDBRANCH  15  20
ENDBRANCH   4  14
BRANCH   6  26
ATOM     26  O   UNL     1      34.186 -23.127 -18.692  0.00  0.00    -0.453 OA
BRANCH  26  27
ATOM     27  C   UNL     1      33.216 -22.238 -19.212  0.00  0.00    +0.208 C 
BRANCH  27  28
ATOM     28  C   UNL     1      33.919 -20.950 -19.637  0.00  0.00    +0.044 C 
ATOM     29  C   UNL     1      35.309 -21.255 -20.212  0.00  0.00    +0.004 C 
ATOM     30  C   UNL     1      33.067 -20.177 -20.653  0.00  0.00    +0.004 C 
ATOM     31  C   UNL     1      36.011 -19.988 -20.693  0.00  0.00    +0.000 C 
ATOM     32  C   UNL     1      33.772 -18.912 -21.134  0.00  0.00    +0.000 C 
ATOM     33  C   UNL     1      35.157 -19.218 -21.695  0.00  0.00    +0.000 C 
ENDBRANCH  27  28
ENDBRANCH  26  27
ENDBRANCH   6  26
TORSDOF 6
ENDMDL
MODEL 8
REMARK VINA RESULT:     -11.0      3.840      7.901
REMARK  Name = 447655
REMARK  6 active torsions:
REMARK  status: ('A' for Active; 'I' for Inactive)
REMARK    1  A    between atoms: N_4  and  C_14
REMARK    2  A    between atoms: C_6  and  O_26
REMARK    3  A    between atoms: C_15  and  S_20
REMARK    4  A    between atoms: S_20  and  N_23
REMARK    5  A    between atoms: O_26  and  C_27
REMARK    6  A    between atoms: C_27  and  C_28
REMARK                            x       y       z     vdW  Elec       q    Type
REMARK                         _______ _______ _______ _____ _____    ______ ____
ROOT
ATOM      1  N   UNL     1      35.275 -23.435 -16.015  0.00  0.00    -0.293 NA
ATOM      2  N   UNL     1      36.301 -25.275 -13.000  0.00  0.00    -0.266 NA
ATOM      3  N   UNL     1      37.662 -23.303 -15.530  0.00  0.00    -0.316 NA
ATOM      4  N   UNL     1      36.736 -22.225 -17.388  0.00  0.00    -0.238 N 
ATOM      5  N   UNL     1      38.329 -24.523 -13.536  0.00  0.00    -0.296 N 
ATOM      6  C   UNL     1      35.054 -24.211 -14.931  0.00  0.00    +0.288 C 
ATOM      7  C   UNL     1      36.134 -24.538 -14.138  0.00  0.00    +0.215 C 
ATOM      8  C   UNL     1      37.408 -24.082 -14.451  0.00  0.00    +0.196 C 
ATOM      9  C   UNL     1      36.548 -23.035 -16.245  0.00  0.00    +0.207 C 
ATOM     10  C   UNL     1      37.632 -25.236 -12.678  0.00  0.00    +0.164 C 
ATOM     11  H   UNL     1      35.595 -25.747 -12.504  0.00  0.00    +0.126 HD
ATOM     12  H   UNL     1      37.670 -21.950 -17.531  0.00  0.00    +0.166 HD
ATOM     13  H   UNL     1      39.298 -24.345 -13.523  0.00  0.00    +0.150 HD
ENDROOT
BRANCH   4  14
ATOM     14  C   UNL     1      35.848 -21.737 -18.364  0.00  0.00    +0.060 C 
ATOM     15  C   UNL     1      35.392 -20.293 -20.251  0.00  0.00    +0.123 C 
ATOM     16  C   UNL     1      36.274 -20.776 -19.283  0.00  0.00    +0.035 C 
ATOM     17  C   UNL     1      34.535 -22.214 -18.417  0.00  0.00    +0.015 C 
ATOM     18  C   UNL     1      34.082 -20.771 -20.301  0.00  0.00    +0.020 C 
ATOM     19  C   UNL     1      33.654 -21.731 -19.384  0.00  0.00    +0.003 C 
BRANCH  15  20
ATOM     20  S   UNL     1      35.927 -19.093 -21.399  0.00  0.00    +0.057 S 
ATOM     21  O   UNL     1      37.381 -19.031 -21.356  0.00  0.00    -0.153 OA
ATOM     22  O   UNL     1      35.251 -19.332 -22.667  0.00  0.00    -0.153 OA
BRANCH  20  23
ATOM     23  N   UNL     1      35.293 -17.667 -20.701  0.00  0.00    -0.203 NA
ATOM     24  H   UNL     1      35.136 -16.973 -21.432  0.00  0.00    +0.144 HD
ATOM     25  H   UNL     1      35.956 -17.300 -20.019  0.00  0.00    +0.144 HD
ENDBRANCH  20  23
ENDBRANCH  15  20
ENDBRANCH   4  14
BRANCH   6  26
ATOM     26  O   UNL     1      33.774 -24.634 -14.669  0.00  0.00    -0.453 OA
BRANCH  26  27
ATOM     27  C   UNL     1      33.042 -23.908 -13.699  0.00  0.00    +0.208 C 
BRANCH  27  28
ATOM     28  C   UNL     1      31.609 -23.741 -14.199  0.00  0.00    +0.044 C 
ATOM     29  C   UNL     1      31.594 -23.175 -15.625  0.00  0.00    +0.004 C 
ATOM     30  C   UNL     1      30.853 -25.075 -14.133  0.00  0.00    +0.004 C 
ATOM     31  C   UNL     1      30.172 -23.049 -16.167  0.00  0.00    +0.000 C 
ATOM     32  C   UNL     1      29.433 -24.946 -14.678  0.00  0.00    +0.000 C 
ATOM     33  C   UNL     1      29.422 -24.375 -16.092  0.00  0.00    +0.000 C 
ENDBRANCH  27  28
ENDBRANCH  26  27
ENDBRANCH   6  26
TORSDOF 6
ENDMDL
MODEL 9
REMARK VINA RESULT:     -10.8      3.691      7.512
REMARK  Name = 447655
REMARK  6 active torsions:
REMARK  status: ('A' for Active; 'I' for Inactive)
REMARK    1  A    between atoms: N_4  and  C_14
REMARK    2  A    between atoms: C_6  and  O_26
REMARK    3  A    between atoms: C_15  and  S_20
REMARK    4  A    between atoms: S_20  and  N_23
REMARK    5  A    between atoms: O_26  and  C_27
REMARK    6  A    between atoms: C_27  and  C_28
REMARK                            x       y       z     vdW  Elec       q    Type
REMARK                         _______ _______ _______ _____ _____    ______ ____
ROOT
ATOM      1  N   UNL     1      33.754 -22.853 -16.692  0.00  0.00    -0.293 NA
ATOM      2  N   UNL     1      31.803 -24.602 -14.112  0.00  0.00    -0.266 NA
ATOM      3  N   UNL     1      31.408 -23.186 -17.270  0.00  0.00    -0.316 NA
ATOM      4  N   UNL     1      32.879 -22.101 -18.730  0.00  0.00    -0.238 N 
ATOM      5  N   UNL     1      30.127 -24.342 -15.558  0.00  0.00    -0.296 N 
ATOM      6  C   UNL     1      33.592 -23.468 -15.499  0.00  0.00    +0.288 C 
ATOM      7  C   UNL     1      32.337 -23.947 -15.184  0.00  0.00    +0.215 C 
ATOM      8  C   UNL     1      31.278 -23.797 -16.068  0.00  0.00    +0.196 C 
ATOM      9  C   UNL     1      32.667 -22.751 -17.492  0.00  0.00    +0.207 C 
ATOM     10  C   UNL     1      30.477 -24.818 -14.382  0.00  0.00    +0.164 C 
ATOM     11  H   UNL     1      32.282 -24.870 -13.295  0.00  0.00    +0.126 HD
ATOM     12  H   UNL     1      32.072 -22.040 -19.290  0.00  0.00    +0.166 HD
ATOM     13  H   UNL     1      29.237 -24.372 -15.978  0.00  0.00    +0.150 HD
ENDROOT
BRANCH   4  14
ATOM     14  C   UNL     1      34.020 -21.522 -19.316  0.00  0.00    +0.060 C 
ATOM     15  C   UNL     1      35.014 -19.930 -20.842  0.00  0.00    +0.123 C 
ATOM     16  C   UNL     1      33.883 -20.504 -20.261  0.00  0.00    +0.035 C 
ATOM     17  C   UNL     1      35.295 -21.963 -18.951  0.00  0.00    +0.015 C 
ATOM     18  C   UNL     1      36.286 -20.372 -20.476  0.00  0.00    +0.020 C 
ATOM     19  C   UNL     1      36.426 -21.389 -19.531  0.00  0.00    +0.003 C 
BRANCH  15  20
ATOM     20  S   UNL     1      34.840 -18.657 -22.023  0.00  0.00    +0.057 S 
ATOM     21  O   UNL     1      34.289 -19.233 -23.241  0.00  0.00    -0.153 OA
ATOM     22  O   UNL     1      34.173 -17.527 -21.390  0.00  0.00    -0.153 OA
BRANCH  20  23
ATOM     23  N   UNL     1      36.475 -18.243 -22.300  0.00  0.00    -0.203 NA
ATOM     24  H   UNL     1      36.754 -18.562 -23.228  0.00  0.00    +0.144 HD
ATOM     25  H   UNL     1      37.062 -18.690 -21.596  0.00  0.00    +0.144 HD
ENDBRANCH  20  23
ENDBRANCH  15  20
ENDBRANCH   4  14
BRANCH   6  26
ATOM     26  O   UNL     1      34.675 -23.589 -14.664  0.00  0.00    -0.453 OA
BRANCH  26  27
ATOM     27  C   UNL     1      35.853 -22.898 -15.034  0.00  0.00    +0.208 C 
BRANCH  27  28
ATOM     28  C   UNL     1      37.049 -23.606 -14.400  0.00  0.00    +0.044 C 
ATOM     29  C   UNL     1      36.983 -23.517 -12.869  0.00  0.00    +0.004 C 
ATOM     30  C   UNL     1      37.118 -25.069 -14.858  0.00  0.00    +0.004 C 
ATOM     31  C   UNL     1      38.141 -24.263 -12.211  0.00  0.00    +0.000 C 
ATOM     32  C   UNL     1      38.275 -25.813 -14.196  0.00  0.00    +0.000 C 
ATOM     33  C   UNL     1      38.211 -25.714 -12.676  0.00  0.00    +0.000 C 
ENDBRANCH  27  28
ENDBRANCH  26  27
ENDBRANCH   6  26
TORSDOF 6
ENDMDL
