MODEL 1
REMARK VINA RESULT:      -8.1      0.000      0.000
REMARK  Name = 445393
REMARK  4 active torsions:
REMARK  status: ('A' for Active; 'I' for Inactive)
REMARK    1  A    between atoms: C_10  and  C_17
REMARK    2  A    between atoms: C_17  and  O_18
REMARK    3  A    between atoms: O_18  and  S_19
REMARK    4  A    between atoms: S_19  and  N_22
REMARK                            x       y       z     vdW  Elec       q    Type
REMARK                         _______ _______ _______ _____ _____    ______ ____
ROOT
ATOM      1  S   UNL     1      38.384 -24.175 -13.613  0.00  0.00    +0.212 S 
ATOM      2  O   UNL     1      33.501 -23.995 -13.066  0.00  0.00    -0.329 OA
ATOM      3  O   UNL     1      32.857 -23.789 -15.311  0.00  0.00    -0.310 OA
ATOM      4  O   UNL     1      34.558 -25.392 -15.402  0.00  0.00    -0.327 OA
ATOM      5  O   UNL     1      37.032 -23.260 -13.706  0.00  0.00    -0.199 OA
ATOM      6  O   UNL     1      37.633 -25.618 -13.424  0.00  0.00    -0.199 OA
ATOM      7  O   UNL     1      39.086 -23.852 -12.387  0.00  0.00    -0.118 OA
ATOM      8  O   UNL     1      39.050 -24.157 -14.900  0.00  0.00    -0.118 OA
ATOM      9  C   UNL     1      34.608 -23.501 -13.835  0.00  0.00    +0.203 C 
ATOM     10  C   UNL     1      34.280 -23.998 -15.238  0.00  0.00    +0.247 C 
ATOM     11  C   UNL     1      35.903 -24.017 -13.240  0.00  0.00    +0.211 C 
ATOM     12  C   UNL     1      36.218 -25.470 -13.628  0.00  0.00    +0.209 C 
ATOM     13  C   UNL     1      32.384 -23.942 -13.964  0.00  0.00    +0.190 C 
ATOM     14  C   UNL     1      35.889 -25.771 -15.083  0.00  0.00    +0.179 C 
ATOM     15  C   UNL     1      31.513 -22.739 -13.618  0.00  0.00    +0.061 C 
ATOM     16  C   UNL     1      31.597 -25.240 -13.844  0.00  0.00    +0.061 C 
ENDROOT
BRANCH  10  17
ATOM     17  C   UNL     1      34.927 -23.179 -16.349  0.00  0.00    +0.232 C 
BRANCH  17  18
ATOM     18  O   UNL     1      33.915 -22.751 -17.243  0.00  0.00    -0.224 OA
BRANCH  18  19
ATOM     19  S   UNL     1      34.190 -22.770 -18.858  0.00  0.00    +0.046 S 
ATOM     20  O   UNL     1      35.498 -22.193 -19.108  0.00  0.00    -0.056 OA
ATOM     21  O   UNL     1      33.883 -24.107 -19.335  0.00  0.00    -0.056 OA
BRANCH  19  22
ATOM     22  N   UNL     1      33.005 -21.707 -19.494  0.00  0.00    -0.204 NA
ATOM     23  H   UNL     1      32.594 -21.163 -18.735  0.00  0.00    +0.144 HD
ATOM     24  H   UNL     1      32.276 -22.249 -19.959  0.00  0.00    +0.144 HD
ENDBRANCH  19  22
ENDBRANCH  18  19
ENDBRANCH  17  18
ENDBRANCH  10  17
TORSDOF 4
ENDMDL
MODEL 2
REMARK VINA RESULT:      -7.3      3.364      4.886
REMARK  Name = 445393
REMARK  4 active torsions:
REMARK  status: ('A' for Active; 'I' for Inactive)
REMARK    1  A    between atoms: C_10  and  C_17
REMARK    2  A    between atoms: C_17  and  O_18
REMARK    3  A    between atoms: O_18  and  S_19
REMARK    4  A    between atoms: S_19  and  N_22
REMARK                            x       y       z     vdW  Elec       q    Type
REMARK                         _______ _______ _______ _____ _____    ______ ____
ROOT
ATOM      1  S   UNL     1      39.938 -25.531 -14.334  0.00  0.00    +0.212 S 
ATOM      2  O   UNL     1      35.283 -24.868 -15.775  0.00  0.00    -0.329 OA
ATOM      3  O   UNL     1      34.804 -22.862 -14.658  0.00  0.00    -0.310 OA
ATOM      4  O   UNL     1      36.966 -22.500 -15.475  0.00  0.00    -0.327 OA
ATOM      5  O   UNL     1      38.361 -25.518 -13.898  0.00  0.00    -0.199 OA
ATOM      6  O   UNL     1      39.737 -24.871 -15.820  0.00  0.00    -0.199 OA
ATOM      7  O   UNL     1      40.369 -26.906 -14.491  0.00  0.00    -0.118 OA
ATOM      8  O   UNL     1      40.662 -24.595 -13.498  0.00  0.00    -0.118 OA
ATOM      9  C   UNL     1      36.204 -24.698 -14.686  0.00  0.00    +0.203 C 
ATOM     10  C   UNL     1      36.196 -23.187 -14.483  0.00  0.00    +0.247 C 
ATOM     11  C   UNL     1      37.541 -25.305 -15.059  0.00  0.00    +0.211 C 
ATOM     12  C   UNL     1      38.385 -24.408 -15.977  0.00  0.00    +0.209 C 
ATOM     13  C   UNL     1      34.302 -23.838 -15.584  0.00  0.00    +0.190 C 
ATOM     14  C   UNL     1      38.312 -22.939 -15.588  0.00  0.00    +0.179 C 
ATOM     15  C   UNL     1      33.033 -24.450 -15.000  0.00  0.00    +0.061 C 
ATOM     16  C   UNL     1      34.023 -23.174 -16.925  0.00  0.00    +0.061 C 
ENDROOT
BRANCH  10  17
ATOM     17  C   UNL     1      36.602 -22.751 -13.080  0.00  0.00    +0.232 C 
BRANCH  17  18
ATOM     18  O   UNL     1      35.823 -23.471 -12.141  0.00  0.00    -0.224 OA
BRANCH  18  19
ATOM     19  S   UNL     1      36.556 -24.454 -11.054  0.00  0.00    +0.046 S 
ATOM     20  O   UNL     1      36.230 -23.987  -9.719  0.00  0.00    -0.056 OA
ATOM     21  O   UNL     1      36.258 -25.823 -11.438  0.00  0.00    -0.056 OA
BRANCH  19  22
ATOM     22  N   UNL     1      38.229 -24.192 -11.318  0.00  0.00    -0.204 NA
ATOM     23  H   UNL     1      38.407 -24.113 -12.320  0.00  0.00    +0.144 HD
ATOM     24  H   UNL     1      38.760 -24.977 -10.939  0.00  0.00    +0.144 HD
ENDBRANCH  19  22
ENDBRANCH  18  19
ENDBRANCH  17  18
ENDBRANCH  10  17
TORSDOF 4
ENDMDL
MODEL 3
REMARK VINA RESULT:      -7.1      3.042      4.351
REMARK  Name = 445393
REMARK  4 active torsions:
REMARK  status: ('A' for Active; 'I' for Inactive)
REMARK    1  A    between atoms: C_10  and  C_17
REMARK    2  A    between atoms: C_17  and  O_18
REMARK    3  A    between atoms: O_18  and  S_19
REMARK    4  A    between atoms: S_19  and  N_22
REMARK                            x       y       z     vdW  Elec       q    Type
REMARK                         _______ _______ _______ _____ _____    ______ ____
ROOT
ATOM      1  S   UNL     1      36.676 -23.777 -11.266  0.00  0.00    +0.212 S 
ATOM      2  O   UNL     1      34.763 -22.387 -15.578  0.00  0.00    -0.329 OA
ATOM      3  O   UNL     1      34.875 -24.423 -16.737  0.00  0.00    -0.310 OA
ATOM      4  O   UNL     1      34.138 -25.071 -14.614  0.00  0.00    -0.327 OA
ATOM      5  O   UNL     1      36.951 -23.482 -12.852  0.00  0.00    -0.199 OA
ATOM      6  O   UNL     1      35.041 -23.711 -11.335  0.00  0.00    -0.199 OA
ATOM      7  O   UNL     1      37.155 -22.650 -10.491  0.00  0.00    -0.118 OA
ATOM      8  O   UNL     1      37.080 -25.135 -10.967  0.00  0.00    -0.118 OA
ATOM      9  C   UNL     1      35.737 -23.237 -14.953  0.00  0.00    +0.203 C 
ATOM     10  C   UNL     1      35.271 -24.628 -15.367  0.00  0.00    +0.247 C 
ATOM     11  C   UNL     1      35.757 -22.967 -13.462  0.00  0.00    +0.211 C 
ATOM     12  C   UNL     1      34.605 -23.644 -12.702  0.00  0.00    +0.209 C 
ATOM     13  C   UNL     1      34.424 -23.061 -16.798  0.00  0.00    +0.190 C 
ATOM     14  C   UNL     1      34.321 -25.052 -13.205  0.00  0.00    +0.179 C 
ATOM     15  C   UNL     1      35.122 -22.373 -17.967  0.00  0.00    +0.061 C 
ATOM     16  C   UNL     1      32.911 -23.032 -16.970  0.00  0.00    +0.061 C 
ENDROOT
BRANCH  10  17
ATOM     17  C   UNL     1      36.377 -25.677 -15.356  0.00  0.00    +0.232 C 
BRANCH  17  18
ATOM     18  O   UNL     1      37.629 -25.015 -15.418  0.00  0.00    -0.224 OA
BRANCH  18  19
ATOM     19  S   UNL     1      38.952 -25.705 -14.745  0.00  0.00    +0.046 S 
ATOM     20  O   UNL     1      39.390 -24.876 -13.636  0.00  0.00    -0.056 OA
ATOM     21  O   UNL     1      38.647 -27.108 -14.526  0.00  0.00    -0.056 OA
BRANCH  19  22
ATOM     22  N   UNL     1      40.139 -25.618 -15.978  0.00  0.00    -0.204 NA
ATOM     23  H   UNL     1      40.409 -26.561 -16.258  0.00  0.00    +0.144 HD
ATOM     24  H   UNL     1      40.959 -25.120 -15.627  0.00  0.00    +0.144 HD
ENDBRANCH  19  22
ENDBRANCH  18  19
ENDBRANCH  17  18
ENDBRANCH  10  17
TORSDOF 4
ENDMDL
MODEL 4
REMARK VINA RESULT:      -6.9      2.377      5.080
REMARK  Name = 445393
REMARK  4 active torsions:
REMARK  status: ('A' for Active; 'I' for Inactive)
REMARK    1  A    between atoms: C_10  and  C_17
REMARK    2  A    between atoms: C_17  and  O_18
REMARK    3  A    between atoms: O_18  and  S_19
REMARK    4  A    between atoms: S_19  and  N_22
REMARK                            x       y       z     vdW  Elec       q    Type
REMARK                         _______ _______ _______ _____ _____    ______ ____
ROOT
ATOM      1  S   UNL     1      29.499 -24.654 -14.877  0.00  0.00    +0.212 S 
ATOM      2  O   UNL     1      34.219 -24.899 -13.520  0.00  0.00    -0.329 OA
ATOM      3  O   UNL     1      35.195 -23.653 -15.250  0.00  0.00    -0.310 OA
ATOM      4  O   UNL     1      33.279 -22.415 -14.733  0.00  0.00    -0.327 OA
ATOM      5  O   UNL     1      30.985 -25.255 -15.204  0.00  0.00    -0.199 OA
ATOM      6  O   UNL     1      29.965 -23.597 -13.715  0.00  0.00    -0.199 OA
ATOM      7  O   UNL     1      28.698 -25.696 -14.264  0.00  0.00    -0.118 OA
ATOM      8  O   UNL     1      29.031 -23.911 -16.029  0.00  0.00    -0.118 OA
ATOM      9  C   UNL     1      33.328 -24.870 -14.646  0.00  0.00    +0.203 C 
ATOM     10  C   UNL     1      33.760 -23.601 -15.372  0.00  0.00    +0.247 C 
ATOM     11  C   UNL     1      31.895 -24.890 -14.153  0.00  0.00    +0.211 C 
ATOM     12  C   UNL     1      31.398 -23.521 -13.661  0.00  0.00    +0.209 C 
ATOM     13  C   UNL     1      35.443 -24.336 -14.012  0.00  0.00    +0.190 C 
ATOM     14  C   UNL     1      31.872 -22.376 -14.543  0.00  0.00    +0.179 C 
ATOM     15  C   UNL     1      36.447 -25.455 -14.271  0.00  0.00    +0.061 C 
ATOM     16  C   UNL     1      35.977 -23.349 -12.983  0.00  0.00    +0.061 C 
ENDROOT
BRANCH  10  17
ATOM     17  C   UNL     1      33.421 -23.596 -16.858  0.00  0.00    +0.232 C 
BRANCH  17  18
ATOM     18  O   UNL     1      34.462 -22.938 -17.558  0.00  0.00    -0.224 OA
BRANCH  18  19
ATOM     19  S   UNL     1      34.275 -22.566 -19.142  0.00  0.00    +0.046 S 
ATOM     20  O   UNL     1      35.330 -21.646 -19.526  0.00  0.00    -0.056 OA
ATOM     21  O   UNL     1      34.103 -23.815 -19.863  0.00  0.00    -0.056 OA
BRANCH  19  22
ATOM     22  N   UNL     1      32.784 -21.724 -19.198  0.00  0.00    -0.204 NA
ATOM     23  H   UNL     1      32.036 -22.373 -19.441  0.00  0.00    +0.144 HD
ATOM     24  H   UNL     1      32.836 -20.987 -19.902  0.00  0.00    +0.144 HD
ENDBRANCH  19  22
ENDBRANCH  18  19
ENDBRANCH  17  18
ENDBRANCH  10  17
TORSDOF 4
ENDMDL
MODEL 5
REMARK VINA RESULT:      -6.7      1.546      1.629
REMARK  Name = 445393
REMARK  4 active torsions:
REMARK  status: ('A' for Active; 'I' for Inactive)
REMARK    1  A    between atoms: C_10  and  C_17
REMARK    2  A    between atoms: C_17  and  O_18
REMARK    3  A    between atoms: O_18  and  S_19
REMARK    4  A    between atoms: S_19  and  N_22
REMARK                            x       y       z     vdW  Elec       q    Type
REMARK                         _______ _______ _______ _____ _____    ______ ____
ROOT
ATOM      1  S   UNL     1      38.013 -24.473 -12.655  0.00  0.00    +0.212 S 
ATOM      2  O   UNL     1      33.225 -23.968 -13.661  0.00  0.00    -0.329 OA
ATOM      3  O   UNL     1      33.361 -23.281 -15.899  0.00  0.00    -0.310 OA
ATOM      4  O   UNL     1      34.962 -24.982 -15.779  0.00  0.00    -0.327 OA
ATOM      5  O   UNL     1      36.786 -23.440 -12.978  0.00  0.00    -0.199 OA
ATOM      6  O   UNL     1      37.210 -25.853 -13.021  0.00  0.00    -0.199 OA
ATOM      7  O   UNL     1      38.278 -24.453 -11.230  0.00  0.00    -0.118 OA
ATOM      8  O   UNL     1      39.065 -24.269 -13.630  0.00  0.00    -0.118 OA
ATOM      9  C   UNL     1      34.535 -23.437 -13.917  0.00  0.00    +0.203 C 
ATOM     10  C   UNL     1      34.676 -23.626 -15.423  0.00  0.00    +0.247 C 
ATOM     11  C   UNL     1      35.551 -24.170 -13.064  0.00  0.00    +0.211 C 
ATOM     12  C   UNL     1      35.944 -25.544 -13.628  0.00  0.00    +0.209 C 
ATOM     13  C   UNL     1      32.468 -23.646 -14.836  0.00  0.00    +0.190 C 
ATOM     14  C   UNL     1      36.106 -25.531 -15.141  0.00  0.00    +0.179 C 
ATOM     15  C   UNL     1      31.557 -22.459 -14.540  0.00  0.00    +0.061 C 
ATOM     16  C   UNL     1      31.658 -24.869 -15.247  0.00  0.00    +0.061 C 
ENDROOT
BRANCH  10  17
ATOM     17  C   UNL     1      35.670 -22.670 -16.074  0.00  0.00    +0.232 C 
BRANCH  17  18
ATOM     18  O   UNL     1      35.589 -22.822 -17.480  0.00  0.00    -0.224 OA
BRANCH  18  19
ATOM     19  S   UNL     1      36.185 -21.656 -18.464  0.00  0.00    +0.046 S 
ATOM     20  O   UNL     1      37.104 -22.272 -19.403  0.00  0.00    -0.056 OA
ATOM     21  O   UNL     1      35.057 -20.882 -18.952  0.00  0.00    -0.056 OA
BRANCH  19  22
ATOM     22  N   UNL     1      37.090 -20.648 -17.413  0.00  0.00    -0.204 NA
ATOM     23  H   UNL     1      36.870 -20.882 -16.445  0.00  0.00    +0.144 HD
ATOM     24  H   UNL     1      36.852 -19.672 -17.590  0.00  0.00    +0.144 HD
ENDBRANCH  19  22
ENDBRANCH  18  19
ENDBRANCH  17  18
ENDBRANCH  10  17
TORSDOF 4
ENDMDL
MODEL 6
REMARK VINA RESULT:      -6.6      3.293      6.316
REMARK  Name = 445393
REMARK  4 active torsions:
REMARK  status: ('A' for Active; 'I' for Inactive)
REMARK    1  A    between atoms: C_10  and  C_17
REMARK    2  A    between atoms: C_17  and  O_18
REMARK    3  A    between atoms: O_18  and  S_19
REMARK    4  A    between atoms: S_19  and  N_22
REMARK                            x       y       z     vdW  Elec       q    Type
REMARK                         _______ _______ _______ _____ _____    ______ ____
ROOT
ATOM      1  S   UNL     1      34.055 -23.910 -14.956  0.00  0.00    +0.212 S 
ATOM      2  O   UNL     1      38.948 -24.391 -15.060  0.00  0.00    -0.329 OA
ATOM      3  O   UNL     1      39.222 -26.022 -13.397  0.00  0.00    -0.310 OA
ATOM      4  O   UNL     1      37.354 -26.790 -14.577  0.00  0.00    -0.327 OA
ATOM      5  O   UNL     1      35.470 -23.654 -14.176  0.00  0.00    -0.199 OA
ATOM      6  O   UNL     1      34.653 -24.871 -16.139  0.00  0.00    -0.199 OA
ATOM      7  O   UNL     1      33.614 -22.662 -15.547  0.00  0.00    -0.118 OA
ATOM      8  O   UNL     1      33.187 -24.698 -14.104  0.00  0.00    -0.118 OA
ATOM      9  C   UNL     1      37.791 -24.401 -14.209  0.00  0.00    +0.203 C 
ATOM     10  C   UNL     1      37.817 -25.814 -13.638  0.00  0.00    +0.247 C 
ATOM     11  C   UNL     1      36.565 -24.041 -15.022  0.00  0.00    +0.211 C 
ATOM     12  C   UNL     1      36.020 -25.212 -15.857  0.00  0.00    +0.209 C 
ATOM     13  C   UNL     1      39.895 -25.239 -14.395  0.00  0.00    +0.190 C 
ATOM     14  C   UNL     1      36.061 -26.534 -15.106  0.00  0.00    +0.179 C 
ATOM     15  C   UNL     1      40.947 -24.377 -13.705  0.00  0.00    +0.061 C 
ATOM     16  C   UNL     1      40.533 -26.162 -15.424  0.00  0.00    +0.061 C 
ENDROOT
BRANCH  10  17
ATOM     17  C   UNL     1      37.092 -25.954 -12.304  0.00  0.00    +0.232 C 
BRANCH  17  18
ATOM     18  O   UNL     1      37.532 -24.920 -11.440  0.00  0.00    -0.224 OA
BRANCH  18  19
ATOM     19  S   UNL     1      36.459 -23.828 -10.859  0.00  0.00    +0.046 S 
ATOM     20  O   UNL     1      36.293 -24.059  -9.436  0.00  0.00    -0.056 OA
ATOM     21  O   UNL     1      36.867 -22.520 -11.340  0.00  0.00    -0.056 OA
BRANCH  19  22
ATOM     22  N   UNL     1      34.988 -24.233 -11.641  0.00  0.00    -0.204 NA
ATOM     23  H   UNL     1      34.472 -23.380 -11.858  0.00  0.00    +0.144 HD
ATOM     24  H   UNL     1      34.427 -24.823 -11.026  0.00  0.00    +0.144 HD
ENDBRANCH  19  22
ENDBRANCH  18  19
ENDBRANCH  17  18
ENDBRANCH  10  17
TORSDOF 4
ENDMDL
MODEL 7
REMARK VINA RESULT:      -6.6      3.125      5.237
REMARK  Name = 445393
REMARK  4 active torsions:
REMARK  status: ('A' for Active; 'I' for Inactive)
REMARK    1  A    between atoms: C_10  and  C_17
REMARK    2  A    between atoms: C_17  and  O_18
REMARK    3  A    between atoms: O_18  and  S_19
REMARK    4  A    between atoms: S_19  and  N_22
REMARK                            x       y       z     vdW  Elec       q    Type
REMARK                         _______ _______ _______ _____ _____    ______ ____
ROOT
ATOM      1  S   UNL     1      35.459 -24.224 -10.906  0.00  0.00    +0.212 S 
ATOM      2  O   UNL     1      39.730 -25.410 -13.037  0.00  0.00    -0.329 OA
ATOM      3  O   UNL     1      39.084 -25.333 -15.290  0.00  0.00    -0.310 OA
ATOM      4  O   UNL     1      38.036 -23.449 -14.383  0.00  0.00    -0.327 OA
ATOM      5  O   UNL     1      36.301 -25.345 -11.749  0.00  0.00    -0.199 OA
ATOM      6  O   UNL     1      36.541 -23.004 -11.069  0.00  0.00    -0.199 OA
ATOM      7  O   UNL     1      35.413 -24.622  -9.514  0.00  0.00    -0.118 OA
ATOM      8  O   UNL     1      34.258 -23.889 -11.644  0.00  0.00    -0.118 OA
ATOM      9  C   UNL     1      38.303 -25.544 -13.128  0.00  0.00    +0.203 C 
ATOM     10  C   UNL     1      37.996 -24.877 -14.464  0.00  0.00    +0.247 C 
ATOM     11  C   UNL     1      37.660 -24.908 -11.912  0.00  0.00    +0.211 C 
ATOM     12  C   UNL     1      37.572 -23.376 -11.998  0.00  0.00    +0.209 C 
ATOM     13  C   UNL     1      40.190 -25.512 -14.392  0.00  0.00    +0.190 C 
ATOM     14  C   UNL     1      37.190 -22.889 -13.389  0.00  0.00    +0.179 C 
ATOM     15  C   UNL     1      40.781 -26.899 -14.623  0.00  0.00    +0.061 C 
ATOM     16  C   UNL     1      41.229 -24.426 -14.639  0.00  0.00    +0.061 C 
ENDROOT
BRANCH  10  17
ATOM     17  C   UNL     1      36.696 -25.351 -15.105  0.00  0.00    +0.232 C 
BRANCH  17  18
ATOM     18  O   UNL     1      36.180 -24.303 -15.907  0.00  0.00    -0.224 OA
BRANCH  18  19
ATOM     19  S   UNL     1      34.628 -23.816 -15.715  0.00  0.00    +0.046 S 
ATOM     20  O   UNL     1      34.633 -22.472 -15.166  0.00  0.00    -0.056 OA
ATOM     21  O   UNL     1      33.929 -24.091 -16.958  0.00  0.00    -0.056 OA
BRANCH  19  22
ATOM     22  N   UNL     1      34.003 -24.878 -14.523  0.00  0.00    -0.204 NA
ATOM     23  H   UNL     1      33.770 -25.773 -14.953  0.00  0.00    +0.144 HD
ATOM     24  H   UNL     1      33.164 -24.470 -14.110  0.00  0.00    +0.144 HD
ENDBRANCH  19  22
ENDBRANCH  18  19
ENDBRANCH  17  18
ENDBRANCH  10  17
TORSDOF 4
ENDMDL
MODEL 8
REMARK VINA RESULT:      -6.2     15.449     17.969
REMARK  Name = 445393
REMARK  4 active torsions:
REMARK  status: ('A' for Active; 'I' for Inactive)
REMARK    1  A    between atoms: C_10  and  C_17
REMARK    2  A    between atoms: C_17  and  O_18
REMARK    3  A    between atoms: O_18  and  S_19
REMARK    4  A    between atoms: S_19  and  N_22
REMARK                            x       y       z     vdW  Elec       q    Type
REMARK                         _______ _______ _______ _____ _____    ______ ____
ROOT
ATOM      1  S   UNL     1      31.412  -5.312 -24.374  0.00  0.00    +0.212 S 
ATOM      2  O   UNL     1      30.633  -9.395 -21.747  0.00  0.00    -0.329 OA
ATOM      3  O   UNL     1      32.760 -10.372 -21.892  0.00  0.00    -0.310 OA
ATOM      4  O   UNL     1      33.248  -8.114 -21.528  0.00  0.00    -0.327 OA
ATOM      5  O   UNL     1      31.258  -6.940 -24.393  0.00  0.00    -0.199 OA
ATOM      6  O   UNL     1      31.490  -5.141 -22.747  0.00  0.00    -0.199 OA
ATOM      7  O   UNL     1      30.176  -4.720 -24.846  0.00  0.00    -0.118 OA
ATOM      8  O   UNL     1      32.694  -4.957 -24.947  0.00  0.00    -0.118 OA
ATOM      9  C   UNL     1      31.331  -8.849 -22.877  0.00  0.00    +0.203 C 
ATOM     10  C   UNL     1      32.791  -9.064 -22.495  0.00  0.00    +0.247 C 
ATOM     11  C   UNL     1      30.909  -7.408 -23.080  0.00  0.00    +0.211 C 
ATOM     12  C   UNL     1      31.599  -6.428 -22.118  0.00  0.00    +0.209 C 
ATOM     13  C   UNL     1      31.454 -10.486 -21.306  0.00  0.00    +0.190 C 
ATOM     14  C   UNL     1      33.069  -6.756 -21.904  0.00  0.00    +0.179 C 
ATOM     15  C   UNL     1      30.833 -11.802 -21.762  0.00  0.00    +0.061 C 
ATOM     16  C   UNL     1      31.568 -10.431 -19.789  0.00  0.00    +0.061 C 
ENDROOT
BRANCH  10  17
ATOM     17  C   UNL     1      33.737  -9.126 -23.688  0.00  0.00    +0.232 C 
BRANCH  17  18
ATOM     18  O   UNL     1      33.215 -10.045 -24.632  0.00  0.00    -0.224 OA
BRANCH  18  19
ATOM     19  S   UNL     1      34.141 -11.287 -25.162  0.00  0.00    +0.046 S 
ATOM     20  O   UNL     1      33.444 -11.948 -26.251  0.00  0.00    -0.056 OA
ATOM     21  O   UNL     1      35.483 -10.773 -25.366  0.00  0.00    -0.056 OA
BRANCH  19  22
ATOM     22  N   UNL     1      34.194 -12.364 -23.830  0.00  0.00    -0.204 NA
ATOM     23  H   UNL     1      33.273 -12.782 -23.694  0.00  0.00    +0.144 HD
ATOM     24  H   UNL     1      34.464 -11.853 -22.989  0.00  0.00    +0.144 HD
ENDBRANCH  19  22
ENDBRANCH  18  19
ENDBRANCH  17  18
ENDBRANCH  10  17
TORSDOF 4
ENDMDL
MODEL 9
REMARK VINA RESULT:      -6.0      2.765      4.524
REMARK  Name = 445393
REMARK  4 active torsions:
REMARK  status: ('A' for Active; 'I' for Inactive)
REMARK    1  A    between atoms: C_10  and  C_17
REMARK    2  A    between atoms: C_17  and  O_18
REMARK    3  A    between atoms: O_18  and  S_19
REMARK    4  A    between atoms: S_19  and  N_22
REMARK                            x       y       z     vdW  Elec       q    Type
REMARK                         _______ _______ _______ _____ _____    ______ ____
ROOT
ATOM      1  S   UNL     1      36.625 -21.939 -17.004  0.00  0.00    +0.212 S 
ATOM      2  O   UNL     1      36.977 -23.500 -12.354  0.00  0.00    -0.329 OA
ATOM      3  O   UNL     1      35.246 -25.082 -12.334  0.00  0.00    -0.310 OA
ATOM      4  O   UNL     1      36.276 -25.463 -14.399  0.00  0.00    -0.327 OA
ATOM      5  O   UNL     1      35.941 -21.973 -15.519  0.00  0.00    -0.199 OA
ATOM      6  O   UNL     1      37.787 -23.057 -16.711  0.00  0.00    -0.199 OA
ATOM      7  O   UNL     1      37.258 -20.650 -17.199  0.00  0.00    -0.118 OA
ATOM      8  O   UNL     1      35.685 -22.480 -17.964  0.00  0.00    -0.118 OA
ATOM      9  C   UNL     1      36.063 -23.218 -13.425  0.00  0.00    +0.203 C 
ATOM     10  C   UNL     1      35.419 -24.577 -13.672  0.00  0.00    +0.247 C 
ATOM     11  C   UNL     1      36.825 -22.628 -14.594  0.00  0.00    +0.211 C 
ATOM     12  C   UNL     1      37.563 -23.681 -15.436  0.00  0.00    +0.209 C 
ATOM     13  C   UNL     1      36.321 -24.509 -11.573  0.00  0.00    +0.190 C 
ATOM     14  C   UNL     1      36.745 -24.948 -15.637  0.00  0.00    +0.179 C 
ATOM     15  C   UNL     1      35.738 -23.875 -10.314  0.00  0.00    +0.061 C 
ATOM     16  C   UNL     1      37.332 -25.592 -11.223  0.00  0.00    +0.061 C 
ENDROOT
BRANCH  10  17
ATOM     17  C   UNL     1      34.041 -24.498 -14.320  0.00  0.00    +0.232 C 
BRANCH  17  18
ATOM     18  O   UNL     1      33.070 -24.344 -13.299  0.00  0.00    -0.224 OA
BRANCH  18  19
ATOM     19  S   UNL     1      31.525 -23.969 -13.691  0.00  0.00    +0.046 S 
ATOM     20  O   UNL     1      30.802 -23.663 -12.470  0.00  0.00    -0.056 OA
ATOM     21  O   UNL     1      31.574 -22.997 -14.769  0.00  0.00    -0.056 OA
BRANCH  19  22
ATOM     22  N   UNL     1      30.894 -25.427 -14.335  0.00  0.00    -0.204 NA
ATOM     23  H   UNL     1      30.045 -25.682 -13.829  0.00  0.00    +0.144 HD
ATOM     24  H   UNL     1      31.585 -26.171 -14.235  0.00  0.00    +0.144 HD
ENDBRANCH  19  22
ENDBRANCH  18  19
ENDBRANCH  17  18
ENDBRANCH  10  17
TORSDOF 4
ENDMDL
