MODEL 1
REMARK VINA RESULT:      -6.8      0.000      0.000
REMARK  Name = 6918293
REMARK  7 active torsions:
REMARK  status: ('A' for Active; 'I' for Inactive)
REMARK    1  A    between atoms: N_2  and  C_12
REMARK    2  A    between atoms: C_3  and  C_5
REMARK    3  A    between atoms: C_5  and  C_6
REMARK    4  A    between atoms: C_5  and  C_9
REMARK    5  A    between atoms: C_6  and  C_7
REMARK    6  A    between atoms: C_9  and  C_10
REMARK    7  A    between atoms: C_12  and  C_15
REMARK                            x       y       z     vdW  Elec       q    Type
REMARK                         _______ _______ _______ _____ _____    ______ ____
ROOT
ATOM      1  O   UNL     1      35.014 -16.155 -20.080  0.00  0.00    -0.275 OA
ATOM      2  N   UNL     1      34.607 -15.864 -22.343  0.00  0.00    -0.297 N 
ATOM      3  C   UNL     1      34.956 -16.602 -21.225  0.00  0.00    +0.222 C 
ATOM      4  H   UNL     1      34.589 -16.313 -23.218  0.00  0.00    +0.150 HD
ENDROOT
BRANCH   3   5
ATOM      5  C   UNL     1      35.278 -18.071 -21.513  0.00  0.00    +0.076 C 
BRANCH   5   6
ATOM      6  C   UNL     1      34.029 -18.936 -21.252  0.00  0.00    +0.009 C 
BRANCH   6   7
ATOM      7  C   UNL     1      34.338 -20.210 -20.463  0.00  0.00    +0.000 C 
ATOM      8  C   UNL     1      33.076 -20.806 -19.857  0.00  0.00    +0.000 C 
ENDBRANCH   6   7
ENDBRANCH   5   6
BRANCH   5   9
ATOM      9  C   UNL     1      35.845 -18.267 -22.932  0.00  0.00    +0.009 C 
BRANCH   9  10
ATOM     10  C   UNL     1      34.917 -19.097 -23.826  0.00  0.00    +0.000 C 
ATOM     11  C   UNL     1      34.409 -18.281 -25.006  0.00  0.00    +0.000 C 
ENDBRANCH   9  10
ENDBRANCH   5   9
ENDBRANCH   3   5
BRANCH   2  12
ATOM     12  C   UNL     1      34.266 -14.463 -22.273  0.00  0.00    +0.175 C 
BRANCH  12  15
ATOM     13  O   UNL     1      33.358 -14.695 -24.506  0.00  0.00    -0.273 OA
ATOM     14  N   UNL     1      34.105 -12.632 -23.820  0.00  0.00    -0.327 N 
ATOM     15  C   UNL     1      33.840 -13.973 -23.638  0.00  0.00    +0.239 C 
ATOM     16  H   UNL     1      33.872 -12.195 -24.670  0.00  0.00    +0.145 HD
ATOM     17  H   UNL     1      34.525 -12.111 -23.097  0.00  0.00    +0.145 HD
ENDBRANCH  12  15
ENDBRANCH   2  12
TORSDOF 7
ENDMDL
MODEL 2
REMARK VINA RESULT:      -6.8      3.574      5.901
REMARK  Name = 6918293
REMARK  7 active torsions:
REMARK  status: ('A' for Active; 'I' for Inactive)
REMARK    1  A    between atoms: N_2  and  C_12
REMARK    2  A    between atoms: C_3  and  C_5
REMARK    3  A    between atoms: C_5  and  C_6
REMARK    4  A    between atoms: C_5  and  C_9
REMARK    5  A    between atoms: C_6  and  C_7
REMARK    6  A    between atoms: C_9  and  C_10
REMARK    7  A    between atoms: C_12  and  C_15
REMARK                            x       y       z     vdW  Elec       q    Type
REMARK                         _______ _______ _______ _____ _____    ______ ____
ROOT
ATOM      1  O   UNL     1      36.741 -19.454 -20.352  0.00  0.00    -0.275 OA
ATOM      2  N   UNL     1      34.692 -20.536 -20.328  0.00  0.00    -0.297 N 
ATOM      3  C   UNL     1      35.570 -19.543 -20.723  0.00  0.00    +0.222 C 
ATOM      4  H   UNL     1      33.773 -20.522 -20.680  0.00  0.00    +0.150 HD
ENDROOT
BRANCH   3   5
ATOM      5  C   UNL     1      34.973 -18.519 -21.691  0.00  0.00    +0.076 C 
BRANCH   5   6
ATOM      6  C   UNL     1      35.019 -17.116 -21.055  0.00  0.00    +0.009 C 
BRANCH   6   7
ATOM      7  C   UNL     1      33.887 -16.203 -21.534  0.00  0.00    +0.000 C 
ATOM      8  C   UNL     1      34.427 -15.021 -22.324  0.00  0.00    +0.000 C 
ENDBRANCH   6   7
ENDBRANCH   5   6
BRANCH   5   9
ATOM      9  C   UNL     1      35.658 -18.565 -23.070  0.00  0.00    +0.009 C 
BRANCH   9  10
ATOM     10  C   UNL     1      34.665 -18.798 -24.213  0.00  0.00    +0.000 C 
ATOM     11  C   UNL     1      34.571 -17.580 -25.122  0.00  0.00    +0.000 C 
ENDBRANCH   9  10
ENDBRANCH   5   9
ENDBRANCH   3   5
BRANCH   2  12
ATOM     12  C   UNL     1      35.071 -21.593 -19.420  0.00  0.00    +0.175 C 
BRANCH  12  15
ATOM     13  O   UNL     1      34.036 -23.777 -19.584  0.00  0.00    -0.273 OA
ATOM     14  N   UNL     1      32.769 -21.998 -18.866  0.00  0.00    -0.327 N 
ATOM     15  C   UNL     1      33.940 -22.587 -19.293  0.00  0.00    +0.239 C 
ATOM     16  H   UNL     1      31.958 -22.543 -18.744  0.00  0.00    +0.145 HD
ATOM     17  H   UNL     1      32.744 -21.031 -18.680  0.00  0.00    +0.145 HD
ENDBRANCH  12  15
ENDBRANCH   2  12
TORSDOF 7
ENDMDL
MODEL 3
REMARK VINA RESULT:      -6.6      1.565      3.165
REMARK  Name = 6918293
REMARK  7 active torsions:
REMARK  status: ('A' for Active; 'I' for Inactive)
REMARK    1  A    between atoms: N_2  and  C_12
REMARK    2  A    between atoms: C_3  and  C_5
REMARK    3  A    between atoms: C_5  and  C_6
REMARK    4  A    between atoms: C_5  and  C_9
REMARK    5  A    between atoms: C_6  and  C_7
REMARK    6  A    between atoms: C_9  and  C_10
REMARK    7  A    between atoms: C_12  and  C_15
REMARK                            x       y       z     vdW  Elec       q    Type
REMARK                         _______ _______ _______ _____ _____    ______ ____
ROOT
ATOM      1  O   UNL     1      35.307 -16.662 -20.295  0.00  0.00    -0.275 OA
ATOM      2  N   UNL     1      34.305 -16.012 -22.281  0.00  0.00    -0.297 N 
ATOM      3  C   UNL     1      34.828 -16.938 -21.395  0.00  0.00    +0.222 C 
ATOM      4  H   UNL     1      33.944 -16.331 -23.139  0.00  0.00    +0.150 HD
ENDROOT
BRANCH   3   5
ATOM      5  C   UNL     1      34.771 -18.385 -21.888  0.00  0.00    +0.076 C 
BRANCH   5   6
ATOM      6  C   UNL     1      35.510 -18.503 -23.236  0.00  0.00    +0.009 C 
BRANCH   6   7
ATOM      7  C   UNL     1      34.596 -18.943 -24.383  0.00  0.00    +0.000 C 
ATOM      8  C   UNL     1      34.292 -17.786 -25.322  0.00  0.00    +0.000 C 
ENDBRANCH   6   7
ENDBRANCH   5   6
BRANCH   5   9
ATOM      9  C   UNL     1      35.307 -19.372 -20.833  0.00  0.00    +0.009 C 
BRANCH   9  10
ATOM     10  C   UNL     1      34.258 -20.407 -20.410  0.00  0.00    +0.000 C 
ATOM     11  C   UNL     1      32.847 -19.915 -20.697  0.00  0.00    +0.000 C 
ENDBRANCH   9  10
ENDBRANCH   5   9
ENDBRANCH   3   5
BRANCH   2  12
ATOM     12  C   UNL     1      34.267 -14.597 -21.995  0.00  0.00    +0.175 C 
BRANCH  12  15
ATOM     13  O   UNL     1      32.580 -14.516 -20.260  0.00  0.00    -0.273 OA
ATOM     14  N   UNL     1      32.110 -13.589 -22.310  0.00  0.00    -0.327 N 
ATOM     15  C   UNL     1      32.926 -14.232 -21.403  0.00  0.00    +0.239 C 
ATOM     16  H   UNL     1      31.208 -13.299 -22.043  0.00  0.00    +0.145 HD
ATOM     17  H   UNL     1      32.431 -13.417 -23.226  0.00  0.00    +0.145 HD
ENDBRANCH  12  15
ENDBRANCH   2  12
TORSDOF 7
ENDMDL
MODEL 4
REMARK VINA RESULT:      -6.5      2.018      3.020
REMARK  Name = 6918293
REMARK  7 active torsions:
REMARK  status: ('A' for Active; 'I' for Inactive)
REMARK    1  A    between atoms: N_2  and  C_12
REMARK    2  A    between atoms: C_3  and  C_5
REMARK    3  A    between atoms: C_5  and  C_6
REMARK    4  A    between atoms: C_5  and  C_9
REMARK    5  A    between atoms: C_6  and  C_7
REMARK    6  A    between atoms: C_9  and  C_10
REMARK    7  A    between atoms: C_12  and  C_15
REMARK                            x       y       z     vdW  Elec       q    Type
REMARK                         _______ _______ _______ _____ _____    ______ ____
ROOT
ATOM      1  O   UNL     1      34.855 -19.430 -23.798  0.00  0.00    -0.275 OA
ATOM      2  N   UNL     1      34.599 -17.128 -23.733  0.00  0.00    -0.297 N 
ATOM      3  C   UNL     1      34.699 -18.386 -23.165  0.00  0.00    +0.222 C 
ATOM      4  H   UNL     1      34.476 -16.351 -23.141  0.00  0.00    +0.150 HD
ENDROOT
BRANCH   3   5
ATOM      5  C   UNL     1      34.603 -18.399 -21.638  0.00  0.00    +0.076 C 
BRANCH   5   6
ATOM      6  C   UNL     1      35.391 -19.601 -21.079  0.00  0.00    +0.009 C 
BRANCH   6   7
ATOM      7  C   UNL     1      34.513 -20.582 -20.298  0.00  0.00    +0.000 C 
ATOM      8  C   UNL     1      33.043 -20.207 -20.395  0.00  0.00    +0.000 C 
ENDBRANCH   6   7
ENDBRANCH   5   6
BRANCH   5   9
ATOM      9  C   UNL     1      35.053 -17.061 -21.022  0.00  0.00    +0.009 C 
BRANCH   9  10
ATOM     10  C   UNL     1      33.881 -16.107 -20.767  0.00  0.00    +0.000 C 
ATOM     11  C   UNL     1      34.327 -14.653 -20.831  0.00  0.00    +0.000 C 
ENDBRANCH   9  10
ENDBRANCH   5   9
ENDBRANCH   3   5
BRANCH   2  12
ATOM     12  C   UNL     1      34.670 -16.910 -25.158  0.00  0.00    +0.175 C 
BRANCH  12  15
ATOM     13  O   UNL     1      33.422 -15.516 -26.696  0.00  0.00    -0.273 OA
ATOM     14  N   UNL     1      33.430 -14.975 -24.462  0.00  0.00    -0.327 N 
ATOM     15  C   UNL     1      33.771 -15.758 -25.544  0.00  0.00    +0.239 C 
ATOM     16  H   UNL     1      32.847 -14.191 -24.585  0.00  0.00    +0.145 HD
ATOM     17  H   UNL     1      33.768 -15.200 -23.564  0.00  0.00    +0.145 HD
ENDBRANCH  12  15
ENDBRANCH   2  12
TORSDOF 7
ENDMDL
MODEL 5
REMARK VINA RESULT:      -6.4      2.112      3.627
REMARK  Name = 6918293
REMARK  7 active torsions:
REMARK  status: ('A' for Active; 'I' for Inactive)
REMARK    1  A    between atoms: N_2  and  C_12
REMARK    2  A    between atoms: C_3  and  C_5
REMARK    3  A    between atoms: C_5  and  C_6
REMARK    4  A    between atoms: C_5  and  C_9
REMARK    5  A    between atoms: C_6  and  C_7
REMARK    6  A    between atoms: C_9  and  C_10
REMARK    7  A    between atoms: C_12  and  C_15
REMARK                            x       y       z     vdW  Elec       q    Type
REMARK                         _______ _______ _______ _____ _____    ______ ____
ROOT
ATOM      1  O   UNL     1      34.968 -19.684 -24.160  0.00  0.00    -0.275 OA
ATOM      2  N   UNL     1      34.743 -17.389 -23.923  0.00  0.00    -0.297 N 
ATOM      3  C   UNL     1      34.909 -18.680 -23.450  0.00  0.00    +0.222 C 
ATOM      4  H   UNL     1      34.708 -16.650 -23.275  0.00  0.00    +0.150 HD
ENDROOT
BRANCH   3   5
ATOM      5  C   UNL     1      35.021 -18.785 -21.928  0.00  0.00    +0.076 C 
BRANCH   5   6
ATOM      6  C   UNL     1      35.330 -17.396 -21.334  0.00  0.00    +0.009 C 
BRANCH   6   7
ATOM      7  C   UNL     1      34.076 -16.652 -20.867  0.00  0.00    +0.000 C 
ATOM      8  C   UNL     1      34.369 -15.183 -20.606  0.00  0.00    +0.000 C 
ENDBRANCH   6   7
ENDBRANCH   5   6
BRANCH   5   9
ATOM      9  C   UNL     1      33.768 -19.428 -21.303  0.00  0.00    +0.009 C 
BRANCH   9  10
ATOM     10  C   UNL     1      34.113 -20.473 -20.236  0.00  0.00    +0.000 C 
ATOM     11  C   UNL     1      35.592 -20.831 -20.269  0.00  0.00    +0.000 C 
ENDBRANCH   9  10
ENDBRANCH   5   9
ENDBRANCH   3   5
BRANCH   2  12
ATOM     12  C   UNL     1      34.620 -17.087 -25.330  0.00  0.00    +0.175 C 
BRANCH  12  15
ATOM     13  O   UNL     1      33.511 -15.351 -26.603  0.00  0.00    -0.273 OA
ATOM     14  N   UNL     1      33.536 -15.203 -24.309  0.00  0.00    -0.327 N 
ATOM     15  C   UNL     1      33.825 -15.815 -25.510  0.00  0.00    +0.239 C 
ATOM     16  H   UNL     1      33.020 -14.364 -24.295  0.00  0.00    +0.145 HD
ATOM     17  H   UNL     1      33.843 -15.605 -23.464  0.00  0.00    +0.145 HD
ENDBRANCH  12  15
ENDBRANCH   2  12
TORSDOF 7
ENDMDL
MODEL 6
REMARK VINA RESULT:      -6.3      1.908      2.706
REMARK  Name = 6918293
REMARK  7 active torsions:
REMARK  status: ('A' for Active; 'I' for Inactive)
REMARK    1  A    between atoms: N_2  and  C_12
REMARK    2  A    between atoms: C_3  and  C_5
REMARK    3  A    between atoms: C_5  and  C_6
REMARK    4  A    between atoms: C_5  and  C_9
REMARK    5  A    between atoms: C_6  and  C_7
REMARK    6  A    between atoms: C_9  and  C_10
REMARK    7  A    between atoms: C_12  and  C_15
REMARK                            x       y       z     vdW  Elec       q    Type
REMARK                         _______ _______ _______ _____ _____    ______ ____
ROOT
ATOM      1  O   UNL     1      35.029 -16.210 -20.635  0.00  0.00    -0.275 OA
ATOM      2  N   UNL     1      34.898 -17.043 -22.795  0.00  0.00    -0.297 N 
ATOM      3  C   UNL     1      34.994 -17.160 -21.419  0.00  0.00    +0.222 C 
ATOM      4  H   UNL     1      34.877 -17.863 -23.338  0.00  0.00    +0.150 HD
ENDROOT
BRANCH   3   5
ATOM      5  C   UNL     1      35.058 -18.602 -20.910  0.00  0.00    +0.076 C 
BRANCH   5   6
ATOM      6  C   UNL     1      33.963 -19.442 -21.598  0.00  0.00    +0.009 C 
BRANCH   6   7
ATOM      7  C   UNL     1      32.801 -19.790 -20.663  0.00  0.00    +0.000 C 
ATOM      8  C   UNL     1      33.146 -20.970 -19.768  0.00  0.00    +0.000 C 
ENDBRANCH   6   7
ENDBRANCH   5   6
BRANCH   5   9
ATOM      9  C   UNL     1      36.462 -19.210 -21.083  0.00  0.00    +0.009 C 
BRANCH   9  10
ATOM     10  C   UNL     1      36.899 -20.034 -19.867  0.00  0.00    +0.000 C 
ATOM     11  C   UNL     1      36.574 -21.509 -20.051  0.00  0.00    +0.000 C 
ENDBRANCH   9  10
ENDBRANCH   5   9
ENDBRANCH   3   5
BRANCH   2  12
ATOM     12  C   UNL     1      34.824 -15.764 -23.463  0.00  0.00    +0.175 C 
BRANCH  12  15
ATOM     13  O   UNL     1      33.333 -15.000 -25.211  0.00  0.00    -0.273 OA
ATOM     14  N   UNL     1      34.101 -17.166 -25.274  0.00  0.00    -0.327 N 
ATOM     15  C   UNL     1      34.020 -15.899 -24.735  0.00  0.00    +0.239 C 
ATOM     16  H   UNL     1      33.620 -17.379 -26.106  0.00  0.00    +0.145 HD
ATOM     17  H   UNL     1      34.643 -17.857 -24.828  0.00  0.00    +0.145 HD
ENDBRANCH  12  15
ENDBRANCH   2  12
TORSDOF 7
ENDMDL
MODEL 7
REMARK VINA RESULT:      -6.2      2.556      3.712
REMARK  Name = 6918293
REMARK  7 active torsions:
REMARK  status: ('A' for Active; 'I' for Inactive)
REMARK    1  A    between atoms: N_2  and  C_12
REMARK    2  A    between atoms: C_3  and  C_5
REMARK    3  A    between atoms: C_5  and  C_6
REMARK    4  A    between atoms: C_5  and  C_9
REMARK    5  A    between atoms: C_6  and  C_7
REMARK    6  A    between atoms: C_9  and  C_10
REMARK    7  A    between atoms: C_12  and  C_15
REMARK                            x       y       z     vdW  Elec       q    Type
REMARK                         _______ _______ _______ _____ _____    ______ ____
ROOT
ATOM      1  O   UNL     1      34.785 -17.302 -25.556  0.00  0.00    -0.275 OA
ATOM      2  N   UNL     1      33.609 -15.407 -24.926  0.00  0.00    -0.297 N 
ATOM      3  C   UNL     1      34.446 -16.486 -24.699  0.00  0.00    +0.222 C 
ATOM      4  H   UNL     1      33.395 -14.808 -24.174  0.00  0.00    +0.150 HD
ENDROOT
BRANCH   3   5
ATOM      5  C   UNL     1      34.945 -16.606 -23.257  0.00  0.00    +0.076 C 
BRANCH   5   6
ATOM      6  C   UNL     1      34.620 -15.310 -22.487  0.00  0.00    +0.009 C 
BRANCH   6   7
ATOM      7  C   UNL     1      34.458 -15.533 -20.981  0.00  0.00    +0.000 C 
ATOM      8  C   UNL     1      33.102 -15.048 -20.493  0.00  0.00    +0.000 C 
ENDBRANCH   6   7
ENDBRANCH   5   6
BRANCH   5   9
ATOM      9  C   UNL     1      34.387 -17.861 -22.559  0.00  0.00    +0.009 C 
BRANCH   9  10
ATOM     10  C   UNL     1      35.439 -18.965 -22.408  0.00  0.00    +0.000 C 
ATOM     11  C   UNL     1      36.296 -18.748 -21.169  0.00  0.00    +0.000 C 
ENDBRANCH   9  10
ENDBRANCH   5   9
ENDBRANCH   3   5
BRANCH   2  12
ATOM     12  C   UNL     1      33.039 -15.124 -26.222  0.00  0.00    +0.175 C 
BRANCH  12  15
ATOM     13  O   UNL     1      33.243 -13.219 -27.703  0.00  0.00    -0.273 OA
ATOM     14  N   UNL     1      33.459 -12.893 -25.438  0.00  0.00    -0.327 N 
ATOM     15  C   UNL     1      33.235 -13.664 -26.559  0.00  0.00    +0.239 C 
ATOM     16  H   UNL     1      33.601 -11.924 -25.527  0.00  0.00    +0.145 HD
ATOM     17  H   UNL     1      33.474 -13.313 -24.547  0.00  0.00    +0.145 HD
ENDBRANCH  12  15
ENDBRANCH   2  12
TORSDOF 7
ENDMDL
MODEL 8
REMARK VINA RESULT:      -6.2      2.368      3.663
REMARK  Name = 6918293
REMARK  7 active torsions:
REMARK  status: ('A' for Active; 'I' for Inactive)
REMARK    1  A    between atoms: N_2  and  C_12
REMARK    2  A    between atoms: C_3  and  C_5
REMARK    3  A    between atoms: C_5  and  C_6
REMARK    4  A    between atoms: C_5  and  C_9
REMARK    5  A    between atoms: C_6  and  C_7
REMARK    6  A    between atoms: C_9  and  C_10
REMARK    7  A    between atoms: C_12  and  C_15
REMARK                            x       y       z     vdW  Elec       q    Type
REMARK                         _______ _______ _______ _____ _____    ______ ____
ROOT
ATOM      1  O   UNL     1      34.640 -17.313 -25.503  0.00  0.00    -0.275 OA
ATOM      2  N   UNL     1      33.388 -15.431 -24.990  0.00  0.00    -0.297 N 
ATOM      3  C   UNL     1      34.195 -16.512 -24.680  0.00  0.00    +0.222 C 
ATOM      4  H   UNL     1      33.081 -14.846 -24.260  0.00  0.00    +0.150 HD
ENDROOT
BRANCH   3   5
ATOM      5  C   UNL     1      34.514 -16.656 -23.191  0.00  0.00    +0.076 C 
BRANCH   5   6
ATOM      6  C   UNL     1      35.757 -17.551 -23.011  0.00  0.00    +0.009 C 
BRANCH   6   7
ATOM      7  C   UNL     1      35.429 -18.914 -22.398  0.00  0.00    +0.000 C 
ATOM      8  C   UNL     1      34.109 -18.878 -21.642  0.00  0.00    +0.000 C 
ENDBRANCH   6   7
ENDBRANCH   5   6
BRANCH   5   9
ATOM      9  C   UNL     1      34.670 -15.286 -22.502  0.00  0.00    +0.009 C 
BRANCH   9  10
ATOM     10  C   UNL     1      34.381 -15.348 -20.998  0.00  0.00    +0.000 C 
ATOM     11  C   UNL     1      32.888 -15.260 -20.717  0.00  0.00    +0.000 C 
ENDBRANCH   9  10
ENDBRANCH   5   9
ENDBRANCH   3   5
BRANCH   2  12
ATOM     12  C   UNL     1      32.979 -15.128 -26.341  0.00  0.00    +0.175 C 
BRANCH  12  15
ATOM     13  O   UNL     1      33.872 -13.449 -27.840  0.00  0.00    -0.273 OA
ATOM     14  N   UNL     1      33.437 -12.872 -25.658  0.00  0.00    -0.327 N 
ATOM     15  C   UNL     1      33.460 -13.747 -26.722  0.00  0.00    +0.239 C 
ATOM     16  H   UNL     1      33.727 -11.939 -25.780  0.00  0.00    +0.145 HD
ATOM     17  H   UNL     1      33.127 -13.179 -24.775  0.00  0.00    +0.145 HD
ENDBRANCH  12  15
ENDBRANCH   2  12
TORSDOF 7
ENDMDL
MODEL 9
REMARK VINA RESULT:      -6.2      2.206      3.365
REMARK  Name = 6918293
REMARK  7 active torsions:
REMARK  status: ('A' for Active; 'I' for Inactive)
REMARK    1  A    between atoms: N_2  and  C_12
REMARK    2  A    between atoms: C_3  and  C_5
REMARK    3  A    between atoms: C_5  and  C_6
REMARK    4  A    between atoms: C_5  and  C_9
REMARK    5  A    between atoms: C_6  and  C_7
REMARK    6  A    between atoms: C_9  and  C_10
REMARK    7  A    between atoms: C_12  and  C_15
REMARK                            x       y       z     vdW  Elec       q    Type
REMARK                         _______ _______ _______ _____ _____    ______ ____
ROOT
ATOM      1  O   UNL     1      35.032 -19.853 -24.279  0.00  0.00    -0.275 OA
ATOM      2  N   UNL     1      34.646 -17.680 -23.572  0.00  0.00    -0.297 N 
ATOM      3  C   UNL     1      34.900 -19.027 -23.377  0.00  0.00    +0.222 C 
ATOM      4  H   UNL     1      34.556 -17.097 -22.785  0.00  0.00    +0.150 HD
ENDROOT
BRANCH   3   5
ATOM      5  C   UNL     1      35.011 -19.442 -21.908  0.00  0.00    +0.076 C 
BRANCH   5   6
ATOM      6  C   UNL     1      36.377 -18.998 -21.346  0.00  0.00    +0.009 C 
BRANCH   6   7
ATOM      7  C   UNL     1      36.796 -19.784 -20.102  0.00  0.00    +0.000 C 
ATOM      8  C   UNL     1      36.563 -21.276 -20.284  0.00  0.00    +0.000 C 
ENDBRANCH   6   7
ENDBRANCH   5   6
BRANCH   5   9
ATOM      9  C   UNL     1      33.830 -18.914 -21.071  0.00  0.00    +0.009 C 
BRANCH   9  10
ATOM     10  C   UNL     1      32.756 -19.980 -20.832  0.00  0.00    +0.000 C 
ATOM     11  C   UNL     1      33.129 -20.893 -19.673  0.00  0.00    +0.000 C 
ENDBRANCH   9  10
ENDBRANCH   5   9
ENDBRANCH   3   5
BRANCH   2  12
ATOM     12  C   UNL     1      34.510 -17.098 -24.887  0.00  0.00    +0.175 C 
BRANCH  12  15
ATOM     13  O   UNL     1      33.352 -15.128 -25.689  0.00  0.00    -0.273 OA
ATOM     14  N   UNL     1      34.156 -15.145 -23.534  0.00  0.00    -0.327 N 
ATOM     15  C   UNL     1      33.925 -15.709 -24.771  0.00  0.00    +0.239 C 
ATOM     16  H   UNL     1      33.823 -14.240 -23.336  0.00  0.00    +0.145 HD
ATOM     17  H   UNL     1      34.652 -15.648 -22.848  0.00  0.00    +0.145 HD
ENDBRANCH  12  15
ENDBRANCH   2  12
TORSDOF 7
ENDMDL
