MODEL 1
REMARK VINA RESULT:      -8.4      0.000      0.000
REMARK  Name = 44176354
REMARK  10 active torsions:
REMARK  status: ('A' for Active; 'I' for Inactive)
REMARK    1  A    between atoms: C_1  and  C_3
REMARK    2  A    between atoms: C_1  and  C_6
REMARK    3  A    between atoms: C_1  and  C_16
REMARK    4  A    between atoms: C_3  and  O_4
REMARK    5  A    between atoms: C_6  and  C_7
REMARK    6  A    between atoms: C_7  and  O_8
REMARK    7  A    between atoms: C_7  and  O_10
REMARK    8  A    between atoms: C_7  and  C_12
REMARK    9  A    between atoms: C_12  and  N_15
REMARK   10  A    between atoms: C_16  and  C_17
REMARK                            x       y       z     vdW  Elec       q    Type
REMARK                         _______ _______ _______ _____ _____    ______ ____
ROOT
ATOM      1  C   UNL     1      36.533 -24.237 -12.910  0.00  0.00    +0.108 C 
ENDROOT
BRANCH   1   3
ATOM      2  O   UNL     1      38.028 -22.576 -11.928  0.00  0.00    -0.250 OA
ATOM      3  C   UNL     1      37.194 -23.461 -11.780  0.00  0.00    +0.314 C 
BRANCH   3   4
ATOM      4  O   UNL     1      36.782 -23.883 -10.556  0.00  0.00    -0.480 OA
ATOM      5  H   UNL     1      36.293 -23.307 -10.002  0.00  0.00    +0.295 HD
ENDBRANCH   3   4
ENDBRANCH   1   3
BRANCH   1   6
ATOM      6  C   UNL     1      37.124 -25.657 -13.074  0.00  0.00    +0.069 C 
BRANCH   6   7
ATOM      7  C   UNL     1      38.191 -25.818 -14.185  0.00  0.00    +0.209 C 
BRANCH   7   8
ATOM      8  O   UNL     1      37.760 -25.044 -15.312  0.00  0.00    -0.362 OA
ATOM      9  H   UNL     1      38.347 -24.280 -15.423  0.00  0.00    +0.213 HD
ENDBRANCH   7   8
BRANCH   7  10
ATOM     10  O   UNL     1      38.251 -27.195 -14.576  0.00  0.00    -0.362 OA
ATOM     11  H   UNL     1      38.528 -27.734 -13.820  0.00  0.00    +0.213 HD
ENDBRANCH   7  10
BRANCH   7  12
ATOM     12  C   UNL     1      39.606 -25.375 -13.818  0.00  0.00    +0.249 C 
BRANCH  12  15
ATOM     13  O   UNL     1      41.350 -26.906 -14.002  0.00  0.00    -0.131 OA
ATOM     14  O   UNL     1      40.597 -25.956 -15.841  0.00  0.00    -0.131 OA
ATOM     15  N   UNL     1      40.594 -26.129 -14.610  0.00  0.00    +0.040 N 
ENDBRANCH  12  15
ENDBRANCH   7  12
ENDBRANCH   6   7
ENDBRANCH   1   6
BRANCH   1  16
ATOM     16  C   UNL     1      35.000 -24.245 -12.705  0.00  0.00    +0.038 C 
BRANCH  16  17
ATOM     17  C   UNL     1      34.167 -23.930 -13.926  0.00  0.00    -0.022 C 
ATOM     18  C   UNL     1      34.786 -23.538 -15.112  0.00  0.00    -0.004 C 
ATOM     19  C   UNL     1      32.776 -24.030 -13.865  0.00  0.00    -0.004 C 
ATOM     20  C   UNL     1      34.018 -23.247 -16.239  0.00  0.00    -0.000 C 
ATOM     21  C   UNL     1      32.007 -23.739 -14.991  0.00  0.00    -0.000 C 
ATOM     22  C   UNL     1      32.627 -23.347 -16.178  0.00  0.00    -0.000 C 
ENDBRANCH  16  17
ENDBRANCH   1  16
TORSDOF 10
ENDMDL
MODEL 2
REMARK VINA RESULT:      -8.2      2.216      4.107
REMARK  Name = 44176354
REMARK  10 active torsions:
REMARK  status: ('A' for Active; 'I' for Inactive)
REMARK    1  A    between atoms: C_1  and  C_3
REMARK    2  A    between atoms: C_1  and  C_6
REMARK    3  A    between atoms: C_1  and  C_16
REMARK    4  A    between atoms: C_3  and  O_4
REMARK    5  A    between atoms: C_6  and  C_7
REMARK    6  A    between atoms: C_7  and  O_8
REMARK    7  A    between atoms: C_7  and  O_10
REMARK    8  A    between atoms: C_7  and  C_12
REMARK    9  A    between atoms: C_12  and  N_15
REMARK   10  A    between atoms: C_16  and  C_17
REMARK                            x       y       z     vdW  Elec       q    Type
REMARK                         _______ _______ _______ _____ _____    ______ ____
ROOT
ATOM      1  C   UNL     1      36.602 -24.850 -14.405  0.00  0.00    +0.108 C 
ENDROOT
BRANCH   1   3
ATOM      2  O   UNL     1      37.798 -26.976 -14.306  0.00  0.00    -0.250 OA
ATOM      3  C   UNL     1      36.938 -26.275 -14.823  0.00  0.00    +0.314 C 
BRANCH   3   4
ATOM      4  O   UNL     1      36.191 -26.690 -15.879  0.00  0.00    -0.480 OA
ATOM      5  H   UNL     1      35.943 -26.081 -16.546  0.00  0.00    +0.295 HD
ENDBRANCH   3   4
ENDBRANCH   1   3
BRANCH   1   6
ATOM      6  C   UNL     1      37.795 -24.140 -13.723  0.00  0.00    +0.069 C 
BRANCH   6   7
ATOM      7  C   UNL     1      37.724 -24.038 -12.179  0.00  0.00    +0.209 C 
BRANCH   7   8
ATOM      8  O   UNL     1      38.885 -23.323 -11.740  0.00  0.00    -0.362 OA
ATOM      9  H   UNL     1      38.709 -22.920 -10.875  0.00  0.00    +0.213 HD
ENDBRANCH   7   8
BRANCH   7  10
ATOM     10  O   UNL     1      37.768 -25.358 -11.624  0.00  0.00    -0.362 OA
ATOM     11  H   UNL     1      36.865 -25.695 -11.519  0.00  0.00    +0.213 HD
ENDBRANCH   7  10
BRANCH   7  12
ATOM     12  C   UNL     1      36.491 -23.334 -11.614  0.00  0.00    +0.249 C 
BRANCH  12  15
ATOM     13  O   UNL     1      34.882 -24.993 -11.329  0.00  0.00    -0.131 OA
ATOM     14  O   UNL     1      35.968 -24.275  -9.552  0.00  0.00    -0.131 OA
ATOM     15  N   UNL     1      35.720 -24.264 -10.770  0.00  0.00    +0.040 N 
ENDBRANCH  12  15
ENDBRANCH   7  12
ENDBRANCH   6   7
ENDBRANCH   1   6
BRANCH   1  16
ATOM     16  C   UNL     1      36.055 -24.069 -15.622  0.00  0.00    +0.038 C 
BRANCH  16  17
ATOM     17  C   UNL     1      34.575 -23.765 -15.603  0.00  0.00    -0.022 C 
ATOM     18  C   UNL     1      33.911 -23.455 -16.789  0.00  0.00    -0.004 C 
ATOM     19  C   UNL     1      33.872 -23.795 -14.398  0.00  0.00    -0.004 C 
ATOM     20  C   UNL     1      32.545 -23.174 -16.772  0.00  0.00    -0.000 C 
ATOM     21  C   UNL     1      32.507 -23.515 -14.380  0.00  0.00    -0.000 C 
ATOM     22  C   UNL     1      31.842 -23.204 -15.567  0.00  0.00    -0.000 C 
ENDBRANCH  16  17
ENDBRANCH   1  16
TORSDOF 10
ENDMDL
MODEL 3
REMARK VINA RESULT:      -8.1      1.998      2.905
REMARK  Name = 44176354
REMARK  10 active torsions:
REMARK  status: ('A' for Active; 'I' for Inactive)
REMARK    1  A    between atoms: C_1  and  C_3
REMARK    2  A    between atoms: C_1  and  C_6
REMARK    3  A    between atoms: C_1  and  C_16
REMARK    4  A    between atoms: C_3  and  O_4
REMARK    5  A    between atoms: C_6  and  C_7
REMARK    6  A    between atoms: C_7  and  O_8
REMARK    7  A    between atoms: C_7  and  O_10
REMARK    8  A    between atoms: C_7  and  C_12
REMARK    9  A    between atoms: C_12  and  N_15
REMARK   10  A    between atoms: C_16  and  C_17
REMARK                            x       y       z     vdW  Elec       q    Type
REMARK                         _______ _______ _______ _____ _____    ______ ____
ROOT
ATOM      1  C   UNL     1      35.442 -24.258 -14.349  0.00  0.00    +0.108 C 
ENDROOT
BRANCH   1   3
ATOM      2  O   UNL     1      35.537 -25.044 -12.040  0.00  0.00    -0.250 OA
ATOM      3  C   UNL     1      35.004 -24.346 -12.893  0.00  0.00    +0.314 C 
BRANCH   3   4
ATOM      4  O   UNL     1      33.913 -23.580 -12.638  0.00  0.00    -0.480 OA
ATOM      5  H   UNL     1      33.181 -23.944 -12.179  0.00  0.00    +0.295 HD
ENDBRANCH   3   4
ENDBRANCH   1   3
BRANCH   1   6
ATOM      6  C   UNL     1      35.688 -25.651 -14.976  0.00  0.00    +0.069 C 
BRANCH   6   7
ATOM      7  C   UNL     1      37.128 -26.204 -14.842  0.00  0.00    +0.209 C 
BRANCH   7   8
ATOM      8  O   UNL     1      37.391 -27.008 -15.998  0.00  0.00    -0.362 OA
ATOM      9  H   UNL     1      37.965 -27.751 -15.752  0.00  0.00    +0.213 HD
ENDBRANCH   7   8
BRANCH   7  10
ATOM     10  O   UNL     1      37.199 -27.041 -13.682  0.00  0.00    -0.362 OA
ATOM     11  H   UNL     1      37.058 -26.505 -12.887  0.00  0.00    +0.213 HD
ENDBRANCH   7  10
BRANCH   7  12
ATOM     12  C   UNL     1      38.236 -25.157 -14.730  0.00  0.00    +0.249 C 
BRANCH  12  15
ATOM     13  O   UNL     1      39.893 -26.257 -13.518  0.00  0.00    -0.131 OA
ATOM     14  O   UNL     1      40.224 -25.915 -15.669  0.00  0.00    -0.131 OA
ATOM     15  N   UNL     1      39.549 -25.819 -14.629  0.00  0.00    +0.040 N 
ENDBRANCH  12  15
ENDBRANCH   7  12
ENDBRANCH   6   7
ENDBRANCH   1   6
BRANCH   1  16
ATOM     16  C   UNL     1      34.421 -23.414 -15.146  0.00  0.00    +0.038 C 
BRANCH  16  17
ATOM     17  C   UNL     1      34.911 -22.848 -16.459  0.00  0.00    -0.022 C 
ATOM     18  C   UNL     1      34.068 -22.830 -17.570  0.00  0.00    -0.004 C 
ATOM     19  C   UNL     1      36.208 -22.344 -16.561  0.00  0.00    -0.004 C 
ATOM     20  C   UNL     1      34.519 -22.309 -18.782  0.00  0.00    -0.000 C 
ATOM     21  C   UNL     1      36.660 -21.822 -17.772  0.00  0.00    -0.000 C 
ATOM     22  C   UNL     1      35.816 -21.804 -18.883  0.00  0.00    -0.000 C 
ENDBRANCH  16  17
ENDBRANCH   1  16
TORSDOF 10
ENDMDL
MODEL 4
REMARK VINA RESULT:      -7.9      2.667      4.770
REMARK  Name = 44176354
REMARK  10 active torsions:
REMARK  status: ('A' for Active; 'I' for Inactive)
REMARK    1  A    between atoms: C_1  and  C_3
REMARK    2  A    between atoms: C_1  and  C_6
REMARK    3  A    between atoms: C_1  and  C_16
REMARK    4  A    between atoms: C_3  and  O_4
REMARK    5  A    between atoms: C_6  and  C_7
REMARK    6  A    between atoms: C_7  and  O_8
REMARK    7  A    between atoms: C_7  and  O_10
REMARK    8  A    between atoms: C_7  and  C_12
REMARK    9  A    between atoms: C_12  and  N_15
REMARK   10  A    between atoms: C_16  and  C_17
REMARK                            x       y       z     vdW  Elec       q    Type
REMARK                         _______ _______ _______ _____ _____    ______ ____
ROOT
ATOM      1  C   UNL     1      36.760 -23.604 -15.193  0.00  0.00    +0.108 C 
ENDROOT
BRANCH   1   3
ATOM      2  O   UNL     1      38.070 -25.613 -14.736  0.00  0.00    -0.250 OA
ATOM      3  C   UNL     1      38.012 -24.471 -15.174  0.00  0.00    +0.314 C 
BRANCH   3   4
ATOM      4  O   UNL     1      39.096 -23.821 -15.671  0.00  0.00    -0.480 OA
ATOM      5  H   UNL     1      39.246 -23.800 -16.596  0.00  0.00    +0.295 HD
ENDBRANCH   3   4
ENDBRANCH   1   3
BRANCH   1   6
ATOM      6  C   UNL     1      36.328 -23.161 -13.776  0.00  0.00    +0.069 C 
BRANCH   6   7
ATOM      7  C   UNL     1      35.484 -24.185 -12.979  0.00  0.00    +0.209 C 
BRANCH   7   8
ATOM      8  O   UNL     1      34.979 -25.148 -13.913  0.00  0.00    -0.362 OA
ATOM      9  H   UNL     1      34.229 -25.620 -13.517  0.00  0.00    +0.213 HD
ENDBRANCH   7   8
BRANCH   7  10
ATOM     10  O   UNL     1      34.372 -23.507 -12.382  0.00  0.00    -0.362 OA
ATOM     11  H   UNL     1      34.401 -23.623 -11.420  0.00  0.00    +0.213 HD
ENDBRANCH   7  10
BRANCH   7  12
ATOM     12  C   UNL     1      36.220 -24.939 -11.872  0.00  0.00    +0.249 C 
BRANCH  12  15
ATOM     13  O   UNL     1      36.934 -23.216 -10.478  0.00  0.00    -0.131 OA
ATOM     14  O   UNL     1      35.315 -24.530  -9.768  0.00  0.00    -0.131 OA
ATOM     15  N   UNL     1      36.157 -24.176 -10.612  0.00  0.00    +0.040 N 
ENDBRANCH  12  15
ENDBRANCH   7  12
ENDBRANCH   6   7
ENDBRANCH   1   6
BRANCH   1  16
ATOM     16  C   UNL     1      36.972 -22.413 -16.156  0.00  0.00    +0.038 C 
BRANCH  16  17
ATOM     17  C   UNL     1      35.972 -22.286 -17.282  0.00  0.00    -0.022 C 
ATOM     18  C   UNL     1      34.691 -22.820 -17.143  0.00  0.00    -0.004 C 
ATOM     19  C   UNL     1      36.331 -21.635 -18.463  0.00  0.00    -0.004 C 
ATOM     20  C   UNL     1      33.768 -22.704 -18.182  0.00  0.00    -0.000 C 
ATOM     21  C   UNL     1      35.409 -21.519 -19.502  0.00  0.00    -0.000 C 
ATOM     22  C   UNL     1      34.127 -22.053 -19.362  0.00  0.00    -0.000 C 
ENDBRANCH  16  17
ENDBRANCH   1  16
TORSDOF 10
ENDMDL
MODEL 5
REMARK VINA RESULT:      -7.9     10.603     12.632
REMARK  Name = 44176354
REMARK  10 active torsions:
REMARK  status: ('A' for Active; 'I' for Inactive)
REMARK    1  A    between atoms: C_1  and  C_3
REMARK    2  A    between atoms: C_1  and  C_6
REMARK    3  A    between atoms: C_1  and  C_16
REMARK    4  A    between atoms: C_3  and  O_4
REMARK    5  A    between atoms: C_6  and  C_7
REMARK    6  A    between atoms: C_7  and  O_8
REMARK    7  A    between atoms: C_7  and  O_10
REMARK    8  A    between atoms: C_7  and  C_12
REMARK    9  A    between atoms: C_12  and  N_15
REMARK   10  A    between atoms: C_16  and  C_17
REMARK                            x       y       z     vdW  Elec       q    Type
REMARK                         _______ _______ _______ _____ _____    ______ ____
ROOT
ATOM      1  C   UNL     1      34.734 -17.185 -22.212  0.00  0.00    +0.108 C 
ENDROOT
BRANCH   1   3
ATOM      2  O   UNL     1      35.044 -15.842 -20.197  0.00  0.00    -0.250 OA
ATOM      3  C   UNL     1      34.338 -16.179 -21.140  0.00  0.00    +0.314 C 
BRANCH   3   4
ATOM      4  O   UNL     1      33.078 -15.706 -21.318  0.00  0.00    -0.480 OA
ATOM      5  H   UNL     1      32.341 -16.242 -21.098  0.00  0.00    +0.295 HD
ENDBRANCH   3   4
ENDBRANCH   1   3
BRANCH   1   6
ATOM      6  C   UNL     1      35.366 -16.507 -23.451  0.00  0.00    +0.069 C 
BRANCH   6   7
ATOM      7  C   UNL     1      34.530 -16.573 -24.753  0.00  0.00    +0.209 C 
BRANCH   7   8
ATOM      8  O   UNL     1      33.830 -17.824 -24.754  0.00  0.00    -0.362 OA
ATOM      9  H   UNL     1      33.121 -17.796 -25.415  0.00  0.00    +0.213 HD
ENDBRANCH   7   8
BRANCH   7  10
ATOM     10  O   UNL     1      35.418 -16.551 -25.877  0.00  0.00    -0.362 OA
ATOM     11  H   UNL     1      36.055 -17.278 -25.800  0.00  0.00    +0.213 HD
ENDBRANCH   7  10
BRANCH   7  12
ATOM     12  C   UNL     1      33.506 -15.455 -24.945  0.00  0.00    +0.249 C 
BRANCH  12  15
ATOM     13  O   UNL     1      33.548 -14.374 -27.007  0.00  0.00    -0.131 OA
ATOM     14  O   UNL     1      32.429 -16.265 -26.841  0.00  0.00    -0.131 OA
ATOM     15  N   UNL     1      33.129 -15.353 -26.366  0.00  0.00    +0.040 N 
ENDBRANCH  12  15
ENDBRANCH   7  12
ENDBRANCH   6   7
ENDBRANCH   1   6
BRANCH   1  16
ATOM     16  C   UNL     1      35.643 -18.270 -21.593  0.00  0.00    +0.038 C 
BRANCH  16  17
ATOM     17  C   UNL     1      34.935 -19.413 -20.902  0.00  0.00    -0.022 C 
ATOM     18  C   UNL     1      33.542 -19.480 -20.913  0.00  0.00    -0.004 C 
ATOM     19  C   UNL     1      35.675 -20.403 -20.254  0.00  0.00    -0.004 C 
ATOM     20  C   UNL     1      32.888 -20.534 -20.276  0.00  0.00    -0.000 C 
ATOM     21  C   UNL     1      35.022 -21.457 -19.617  0.00  0.00    -0.000 C 
ATOM     22  C   UNL     1      33.629 -21.523 -19.627  0.00  0.00    -0.000 C 
ENDBRANCH  16  17
ENDBRANCH   1  16
TORSDOF 10
ENDMDL
MODEL 6
REMARK VINA RESULT:      -7.8      2.492      3.842
REMARK  Name = 44176354
REMARK  10 active torsions:
REMARK  status: ('A' for Active; 'I' for Inactive)
REMARK    1  A    between atoms: C_1  and  C_3
REMARK    2  A    between atoms: C_1  and  C_6
REMARK    3  A    between atoms: C_1  and  C_16
REMARK    4  A    between atoms: C_3  and  O_4
REMARK    5  A    between atoms: C_6  and  C_7
REMARK    6  A    between atoms: C_7  and  O_8
REMARK    7  A    between atoms: C_7  and  O_10
REMARK    8  A    between atoms: C_7  and  C_12
REMARK    9  A    between atoms: C_12  and  N_15
REMARK   10  A    between atoms: C_16  and  C_17
REMARK                            x       y       z     vdW  Elec       q    Type
REMARK                         _______ _______ _______ _____ _____    ______ ____
ROOT
ATOM      1  C   UNL     1      35.090 -23.712 -14.703  0.00  0.00    +0.108 C 
ENDROOT
BRANCH   1   3
ATOM      2  O   UNL     1      33.096 -24.557 -13.577  0.00  0.00    -0.250 OA
ATOM      3  C   UNL     1      34.191 -24.012 -13.512  0.00  0.00    +0.314 C 
BRANCH   3   4
ATOM      4  O   UNL     1      34.723 -23.572 -12.342  0.00  0.00    -0.480 OA
ATOM      5  H   UNL     1      34.718 -22.657 -12.141  0.00  0.00    +0.295 HD
ENDBRANCH   3   4
ENDBRANCH   1   3
BRANCH   1   6
ATOM      6  C   UNL     1      36.279 -24.697 -14.807  0.00  0.00    +0.069 C 
BRANCH   6   7
ATOM      7  C   UNL     1      37.627 -24.185 -14.245  0.00  0.00    +0.209 C 
BRANCH   7   8
ATOM      8  O   UNL     1      37.437 -22.823 -13.841  0.00  0.00    -0.362 OA
ATOM      9  H   UNL     1      36.594 -22.741 -13.368  0.00  0.00    +0.213 HD
ENDBRANCH   7   8
BRANCH   7  10
ATOM     10  O   UNL     1      38.608 -24.215 -15.289  0.00  0.00    -0.362 OA
ATOM     11  H   UNL     1      38.170 -24.109 -16.147  0.00  0.00    +0.213 HD
ENDBRANCH   7  10
BRANCH   7  12
ATOM     12  C   UNL     1      38.190 -24.959 -13.053  0.00  0.00    +0.249 C 
BRANCH  12  15
ATOM     13  O   UNL     1      37.183 -24.350 -11.045  0.00  0.00    -0.131 OA
ATOM     14  O   UNL     1      39.012 -23.287 -11.661  0.00  0.00    -0.131 OA
ATOM     15  N   UNL     1      38.119 -24.135 -11.834  0.00  0.00    +0.040 N 
ENDBRANCH  12  15
ENDBRANCH   7  12
ENDBRANCH   6   7
ENDBRANCH   1   6
BRANCH   1  16
ATOM     16  C   UNL     1      34.240 -23.661 -15.993  0.00  0.00    +0.038 C 
BRANCH  16  17
ATOM     17  C   UNL     1      34.814 -22.853 -17.134  0.00  0.00    -0.022 C 
ATOM     18  C   UNL     1      36.103 -22.329 -17.039  0.00  0.00    -0.004 C 
ATOM     19  C   UNL     1      34.054 -22.630 -18.283  0.00  0.00    -0.004 C 
ATOM     20  C   UNL     1      36.634 -21.583 -18.091  0.00  0.00    -0.000 C 
ATOM     21  C   UNL     1      34.584 -21.884 -19.335  0.00  0.00    -0.000 C 
ATOM     22  C   UNL     1      35.874 -21.361 -19.240  0.00  0.00    -0.000 C 
ENDBRANCH  16  17
ENDBRANCH   1  16
TORSDOF 10
ENDMDL
MODEL 7
REMARK VINA RESULT:      -7.8      2.963      4.548
REMARK  Name = 44176354
REMARK  10 active torsions:
REMARK  status: ('A' for Active; 'I' for Inactive)
REMARK    1  A    between atoms: C_1  and  C_3
REMARK    2  A    between atoms: C_1  and  C_6
REMARK    3  A    between atoms: C_1  and  C_16
REMARK    4  A    between atoms: C_3  and  O_4
REMARK    5  A    between atoms: C_6  and  C_7
REMARK    6  A    between atoms: C_7  and  O_8
REMARK    7  A    between atoms: C_7  and  O_10
REMARK    8  A    between atoms: C_7  and  C_12
REMARK    9  A    between atoms: C_12  and  N_15
REMARK   10  A    between atoms: C_16  and  C_17
REMARK                            x       y       z     vdW  Elec       q    Type
REMARK                         _______ _______ _______ _____ _____    ______ ____
ROOT
ATOM      1  C   UNL     1      33.739 -23.411 -15.010  0.00  0.00    +0.108 C 
ENDROOT
BRANCH   1   3
ATOM      2  O   UNL     1      31.369 -22.827 -14.958  0.00  0.00    -0.250 OA
ATOM      3  C   UNL     1      32.406 -23.072 -14.355  0.00  0.00    +0.314 C 
BRANCH   3   4
ATOM      4  O   UNL     1      32.493 -23.035 -13.001  0.00  0.00    -0.480 OA
ATOM      5  H   UNL     1      32.811 -22.264 -12.573  0.00  0.00    +0.295 HD
ENDBRANCH   3   4
ENDBRANCH   1   3
BRANCH   1   6
ATOM      6  C   UNL     1      34.372 -24.696 -14.427  0.00  0.00    +0.069 C 
BRANCH   6   7
ATOM      7  C   UNL     1      35.326 -24.491 -13.225  0.00  0.00    +0.209 C 
BRANCH   7   8
ATOM      8  O   UNL     1      34.620 -24.883 -12.041  0.00  0.00    -0.362 OA
ATOM      9  H   UNL     1      33.680 -24.999 -12.250  0.00  0.00    +0.213 HD
ENDBRANCH   7   8
BRANCH   7  10
ATOM     10  O   UNL     1      35.648 -23.098 -13.120  0.00  0.00    -0.362 OA
ATOM     11  H   UNL     1      35.167 -22.603 -13.801  0.00  0.00    +0.213 HD
ENDBRANCH   7  10
BRANCH   7  12
ATOM     12  C   UNL     1      36.639 -25.271 -13.275  0.00  0.00    +0.249 C 
BRANCH  12  15
ATOM     13  O   UNL     1      37.531 -24.610 -11.228  0.00  0.00    -0.131 OA
ATOM     14  O   UNL     1      38.610 -24.053 -13.067  0.00  0.00    -0.131 OA
ATOM     15  N   UNL     1      37.664 -24.590 -12.464  0.00  0.00    +0.040 N 
ENDBRANCH  12  15
ENDBRANCH   7  12
ENDBRANCH   6   7
ENDBRANCH   1   6
BRANCH   1  16
ATOM     16  C   UNL     1      33.561 -23.472 -16.544  0.00  0.00    +0.038 C 
BRANCH  16  17
ATOM     17  C   UNL     1      34.605 -22.747 -17.362  0.00  0.00    -0.022 C 
ATOM     18  C   UNL     1      35.853 -22.465 -16.809  0.00  0.00    -0.004 C 
ATOM     19  C   UNL     1      34.318 -22.359 -18.672  0.00  0.00    -0.004 C 
ATOM     20  C   UNL     1      36.816 -21.796 -17.563  0.00  0.00    -0.000 C 
ATOM     21  C   UNL     1      35.281 -21.690 -19.426  0.00  0.00    -0.000 C 
ATOM     22  C   UNL     1      36.530 -21.408 -18.872  0.00  0.00    -0.000 C 
ENDBRANCH  16  17
ENDBRANCH   1  16
TORSDOF 10
ENDMDL
MODEL 8
REMARK VINA RESULT:      -7.7      3.808      5.549
REMARK  Name = 44176354
REMARK  10 active torsions:
REMARK  status: ('A' for Active; 'I' for Inactive)
REMARK    1  A    between atoms: C_1  and  C_3
REMARK    2  A    between atoms: C_1  and  C_6
REMARK    3  A    between atoms: C_1  and  C_16
REMARK    4  A    between atoms: C_3  and  O_4
REMARK    5  A    between atoms: C_6  and  C_7
REMARK    6  A    between atoms: C_7  and  O_8
REMARK    7  A    between atoms: C_7  and  O_10
REMARK    8  A    between atoms: C_7  and  C_12
REMARK    9  A    between atoms: C_12  and  N_15
REMARK   10  A    between atoms: C_16  and  C_17
REMARK                            x       y       z     vdW  Elec       q    Type
REMARK                         _______ _______ _______ _____ _____    ______ ____
ROOT
ATOM      1  C   UNL     1      33.447 -22.959 -16.855  0.00  0.00    +0.108 C 
ENDROOT
BRANCH   1   3
ATOM      2  O   UNL     1      31.050 -22.604 -17.149  0.00  0.00    -0.250 OA
ATOM      3  C   UNL     1      31.992 -22.872 -16.414  0.00  0.00    +0.314 C 
BRANCH   3   4
ATOM      4  O   UNL     1      31.844 -23.094 -15.083  0.00  0.00    -0.480 OA
ATOM      5  H   UNL     1      32.542 -22.888 -14.493  0.00  0.00    +0.295 HD
ENDBRANCH   3   4
ENDBRANCH   1   3
BRANCH   1   6
ATOM      6  C   UNL     1      34.240 -24.026 -16.064  0.00  0.00    +0.069 C 
BRANCH   6   7
ATOM      7  C   UNL     1      35.350 -23.485 -15.131  0.00  0.00    +0.209 C 
BRANCH   7   8
ATOM      8  O   UNL     1      34.719 -23.037 -13.924  0.00  0.00    -0.362 OA
ATOM      9  H   UNL     1      34.611 -23.788 -13.319  0.00  0.00    +0.213 HD
ENDBRANCH   7   8
BRANCH   7  10
ATOM     10  O   UNL     1      35.977 -22.359 -15.758  0.00  0.00    -0.362 OA
ATOM     11  H   UNL     1      36.897 -22.578 -15.970  0.00  0.00    +0.213 HD
ENDBRANCH   7  10
BRANCH   7  12
ATOM     12  C   UNL     1      36.447 -24.479 -14.753  0.00  0.00    +0.249 C 
BRANCH  12  15
ATOM     13  O   UNL     1      38.638 -23.850 -15.228  0.00  0.00    -0.131 OA
ATOM     14  O   UNL     1      37.711 -23.091 -13.379  0.00  0.00    -0.131 OA
ATOM     15  N   UNL     1      37.692 -23.760 -14.428  0.00  0.00    +0.040 N 
ENDBRANCH  12  15
ENDBRANCH   7  12
ENDBRANCH   6   7
ENDBRANCH   1   6
BRANCH   1  16
ATOM     16  C   UNL     1      33.512 -23.175 -18.384  0.00  0.00    +0.038 C 
BRANCH  16  17
ATOM     17  C   UNL     1      34.065 -22.024 -19.193  0.00  0.00    -0.022 C 
ATOM     18  C   UNL     1      35.443 -21.842 -19.297  0.00  0.00    -0.004 C 
ATOM     19  C   UNL     1      33.195 -21.142 -19.836  0.00  0.00    -0.004 C 
ATOM     20  C   UNL     1      35.954 -20.779 -20.042  0.00  0.00    -0.000 C 
ATOM     21  C   UNL     1      33.704 -20.080 -20.581  0.00  0.00    -0.000 C 
ATOM     22  C   UNL     1      35.083 -19.898 -20.685  0.00  0.00    -0.000 C 
ENDBRANCH  16  17
ENDBRANCH   1  16
TORSDOF 10
ENDMDL
MODEL 9
REMARK VINA RESULT:      -7.6      3.440      5.295
REMARK  Name = 44176354
REMARK  10 active torsions:
REMARK  status: ('A' for Active; 'I' for Inactive)
REMARK    1  A    between atoms: C_1  and  C_3
REMARK    2  A    between atoms: C_1  and  C_6
REMARK    3  A    between atoms: C_1  and  C_16
REMARK    4  A    between atoms: C_3  and  O_4
REMARK    5  A    between atoms: C_6  and  C_7
REMARK    6  A    between atoms: C_7  and  O_8
REMARK    7  A    between atoms: C_7  and  O_10
REMARK    8  A    between atoms: C_7  and  C_12
REMARK    9  A    between atoms: C_12  and  N_15
REMARK   10  A    between atoms: C_16  and  C_17
REMARK                            x       y       z     vdW  Elec       q    Type
REMARK                         _______ _______ _______ _____ _____    ______ ____
ROOT
ATOM      1  C   UNL     1      36.748 -23.606 -15.088  0.00  0.00    +0.108 C 
ENDROOT
BRANCH   1   3
ATOM      2  O   UNL     1      38.153 -25.455 -14.335  0.00  0.00    -0.250 OA
ATOM      3  C   UNL     1      38.028 -24.423 -14.981  0.00  0.00    +0.314 C 
BRANCH   3   4
ATOM      4  O   UNL     1      39.057 -23.859 -15.666  0.00  0.00    -0.480 OA
ATOM      5  H   UNL     1      39.370 -23.009 -15.425  0.00  0.00    +0.295 HD
ENDBRANCH   3   4
ENDBRANCH   1   3
BRANCH   1   6
ATOM      6  C   UNL     1      36.156 -23.255 -13.702  0.00  0.00    +0.069 C 
BRANCH   6   7
ATOM      7  C   UNL     1      35.036 -24.194 -13.192  0.00  0.00    +0.209 C 
BRANCH   7   8
ATOM      8  O   UNL     1      34.321 -23.495 -12.165  0.00  0.00    -0.362 OA
ATOM      9  H   UNL     1      34.248 -24.061 -11.380  0.00  0.00    +0.213 HD
ENDBRANCH   7   8
BRANCH   7  10
ATOM     10  O   UNL     1      35.635 -25.361 -12.614  0.00  0.00    -0.362 OA
ATOM     11  H   UNL     1      35.084 -25.677 -11.881  0.00  0.00    +0.213 HD
ENDBRANCH   7  10
BRANCH   7  12
ATOM     12  C   UNL     1      34.026 -24.659 -14.240  0.00  0.00    +0.249 C 
BRANCH  12  15
ATOM     13  O   UNL     1      32.001 -25.030 -13.153  0.00  0.00    -0.131 OA
ATOM     14  O   UNL     1      32.275 -23.129 -14.232  0.00  0.00    -0.131 OA
ATOM     15  N   UNL     1      32.667 -24.246 -13.852  0.00  0.00    +0.040 N 
ENDBRANCH  12  15
ENDBRANCH   7  12
ENDBRANCH   6   7
ENDBRANCH   1   6
BRANCH   1  16
ATOM     16  C   UNL     1      37.002 -22.358 -15.965  0.00  0.00    +0.038 C 
BRANCH  16  17
ATOM     17  C   UNL     1      36.119 -22.215 -17.183  0.00  0.00    -0.022 C 
ATOM     18  C   UNL     1      34.825 -22.734 -17.173  0.00  0.00    -0.004 C 
ATOM     19  C   UNL     1      36.600 -21.562 -18.319  0.00  0.00    -0.004 C 
ATOM     20  C   UNL     1      34.010 -22.602 -18.297  0.00  0.00    -0.000 C 
ATOM     21  C   UNL     1      35.786 -21.430 -19.443  0.00  0.00    -0.000 C 
ATOM     22  C   UNL     1      34.491 -21.950 -19.433  0.00  0.00    -0.000 C 
ENDBRANCH  16  17
ENDBRANCH   1  16
TORSDOF 10
ENDMDL
