MODEL 1
REMARK VINA RESULT:      -7.0      0.000      0.000
REMARK  Name = 1746
REMARK  1 active torsions:
REMARK  status: ('A' for Active; 'I' for Inactive)
REMARK    1  A    between atoms: C_6  and  C_13
REMARK                            x       y       z     vdW  Elec       q    Type
REMARK                         _______ _______ _______ _____ _____    ______ ____
ROOT
ATOM      1  I   UNL     1      35.048 -18.719 -23.466  0.00  0.00    -0.043 I 
ATOM      2  S   UNL     1      33.359 -13.332 -23.346  0.00  0.00    -0.084 S 
ATOM      3  C   UNL     1      34.177 -15.775 -23.117  0.00  0.00    +0.012 C 
ATOM      4  C   UNL     1      33.950 -14.620 -22.362  0.00  0.00    +0.030 C 
ATOM      5  C   UNL     1      33.854 -15.564 -24.500  0.00  0.00    +0.010 C 
ATOM      6  C   UNL     1      33.402 -14.291 -24.755  0.00  0.00    +0.058 C 
ATOM      7  C   UNL     1      34.666 -16.924 -22.451  0.00  0.00    +0.031 C 
ATOM      8  C   UNL     1      34.197 -14.586 -20.975  0.00  0.00    +0.007 C 
ATOM      9  C   UNL     1      34.911 -16.894 -21.076  0.00  0.00    +0.006 C 
ATOM     10  C   UNL     1      34.678 -15.736 -20.348  0.00  0.00    +0.001 C 
ENDROOT
BRANCH   6  13
ATOM     11  N   UNL     1      33.526 -12.673 -26.523  0.00  0.00    -0.386 N 
ATOM     12  N   UNL     1      32.136 -14.528 -26.780  0.00  0.00    -0.344 N 
ATOM     13  C   UNL     1      33.014 -13.822 -26.046  0.00  0.00    +0.102 C 
ATOM     14  H   UNL     1      33.260 -12.348 -27.413  0.00  0.00    +0.157 HD
ATOM     15  H   UNL     1      34.167 -12.158 -25.982  0.00  0.00    +0.157 HD
ATOM     16  H   UNL     1      31.867 -14.206 -27.671  0.00  0.00    +0.144 HD
ATOM     17  H   UNL     1      31.762 -15.367 -26.426  0.00  0.00    +0.144 HD
ENDBRANCH   6  13
TORSDOF 1
ENDMDL
MODEL 2
REMARK VINA RESULT:      -7.0      4.496      5.778
REMARK  Name = 1746
REMARK  1 active torsions:
REMARK  status: ('A' for Active; 'I' for Inactive)
REMARK    1  A    between atoms: C_6  and  C_13
REMARK                            x       y       z     vdW  Elec       q    Type
REMARK                         _______ _______ _______ _____ _____    ______ ____
ROOT
ATOM      1  I   UNL     1      32.940 -14.330 -21.147  0.00  0.00    -0.043 I 
ATOM      2  S   UNL     1      35.355 -18.901 -23.420  0.00  0.00    -0.084 S 
ATOM      3  C   UNL     1      34.223 -16.708 -22.648  0.00  0.00    +0.012 C 
ATOM      4  C   UNL     1      34.646 -17.376 -23.801  0.00  0.00    +0.030 C 
ATOM      5  C   UNL     1      34.498 -17.480 -21.469  0.00  0.00    +0.010 C 
ATOM      6  C   UNL     1      35.105 -18.681 -21.748  0.00  0.00    +0.058 C 
ATOM      7  C   UNL     1      33.618 -15.436 -22.795  0.00  0.00    +0.031 C 
ATOM      8  C   UNL     1      34.481 -16.811 -25.082  0.00  0.00    +0.007 C 
ATOM      9  C   UNL     1      33.453 -14.874 -24.063  0.00  0.00    +0.006 C 
ATOM     10  C   UNL     1      33.881 -15.556 -25.193  0.00  0.00    +0.001 C 
ENDROOT
BRANCH   6  13
ATOM     11  N   UNL     1      36.733 -19.617 -20.252  0.00  0.00    -0.386 N 
ATOM     12  N   UNL     1      34.597 -20.553 -20.334  0.00  0.00    -0.344 N 
ATOM     13  C   UNL     1      35.486 -19.636 -20.756  0.00  0.00    +0.102 C 
ATOM     14  H   UNL     1      36.996 -20.274 -19.568  0.00  0.00    +0.157 HD
ATOM     15  H   UNL     1      37.380 -18.946 -20.565  0.00  0.00    +0.157 HD
ATOM     16  H   UNL     1      34.858 -21.212 -19.650  0.00  0.00    +0.144 HD
ATOM     17  H   UNL     1      33.687 -20.564 -20.707  0.00  0.00    +0.144 HD
ENDBRANCH   6  13
TORSDOF 1
ENDMDL
MODEL 3
REMARK VINA RESULT:      -6.9      3.319      4.026
REMARK  Name = 1746
REMARK  1 active torsions:
REMARK  status: ('A' for Active; 'I' for Inactive)
REMARK    1  A    between atoms: C_6  and  C_13
REMARK                            x       y       z     vdW  Elec       q    Type
REMARK                         _______ _______ _______ _____ _____    ______ ____
ROOT
ATOM      1  I   UNL     1      33.060 -14.513 -26.327  0.00  0.00    -0.043 I 
ATOM      2  S   UNL     1      33.147 -14.379 -20.683  0.00  0.00    -0.084 S 
ATOM      3  C   UNL     1      33.274 -14.674 -23.249  0.00  0.00    +0.012 C 
ATOM      4  C   UNL     1      33.723 -15.250 -22.056  0.00  0.00    +0.030 C 
ATOM      5  C   UNL     1      32.460 -13.520 -22.995  0.00  0.00    +0.010 C 
ATOM      6  C   UNL     1      32.313 -13.253 -21.654  0.00  0.00    +0.058 C 
ATOM      7  C   UNL     1      33.663 -15.276 -24.470  0.00  0.00    +0.031 C 
ATOM      8  C   UNL     1      34.540 -16.398 -22.054  0.00  0.00    +0.007 C 
ATOM      9  C   UNL     1      34.474 -16.414 -24.471  0.00  0.00    +0.006 C 
ATOM     10  C   UNL     1      34.906 -16.967 -23.274  0.00  0.00    +0.001 C 
ENDROOT
BRANCH   6  13
ATOM     11  N   UNL     1      30.671 -11.523 -21.919  0.00  0.00    -0.386 N 
ATOM     12  N   UNL     1      31.729 -11.776 -19.855  0.00  0.00    -0.344 N 
ATOM     13  C   UNL     1      31.555 -12.163 -21.132  0.00  0.00    +0.102 C 
ATOM     14  H   UNL     1      30.147 -10.771 -21.561  0.00  0.00    +0.157 HD
ATOM     15  H   UNL     1      30.548 -11.808 -22.853  0.00  0.00    +0.157 HD
ATOM     16  H   UNL     1      31.206 -11.024 -19.493  0.00  0.00    +0.144 HD
ATOM     17  H   UNL     1      32.378 -12.246 -19.284  0.00  0.00    +0.144 HD
ENDBRANCH   6  13
TORSDOF 1
ENDMDL
MODEL 4
REMARK VINA RESULT:      -6.7      3.707      4.708
REMARK  Name = 1746
REMARK  1 active torsions:
REMARK  status: ('A' for Active; 'I' for Inactive)
REMARK    1  A    between atoms: C_6  and  C_13
REMARK                            x       y       z     vdW  Elec       q    Type
REMARK                         _______ _______ _______ _____ _____    ______ ____
ROOT
ATOM      1  I   UNL     1      33.160 -14.522 -25.843  0.00  0.00    -0.043 I 
ATOM      2  S   UNL     1      34.424 -15.950 -20.528  0.00  0.00    -0.084 S 
ATOM      3  C   UNL     1      33.692 -15.079 -22.851  0.00  0.00    +0.012 C 
ATOM      4  C   UNL     1      33.555 -14.808 -21.485  0.00  0.00    +0.030 C 
ATOM      5  C   UNL     1      34.517 -16.232 -23.072  0.00  0.00    +0.010 C 
ATOM      6  C   UNL     1      34.975 -16.794 -21.903  0.00  0.00    +0.058 C 
ATOM      7  C   UNL     1      33.036 -14.227 -23.771  0.00  0.00    +0.031 C 
ATOM      8  C   UNL     1      32.788 -13.720 -21.024  0.00  0.00    +0.007 C 
ATOM      9  C   UNL     1      32.274 -13.147 -23.316  0.00  0.00    +0.006 C 
ATOM     10  C   UNL     1      32.153 -12.899 -21.956  0.00  0.00    +0.001 C 
ENDROOT
BRANCH   6  13
ATOM     11  N   UNL     1      35.879 -18.669 -20.709  0.00  0.00    -0.386 N 
ATOM     12  N   UNL     1      36.533 -18.310 -22.919  0.00  0.00    -0.344 N 
ATOM     13  C   UNL     1      35.812 -17.949 -21.843  0.00  0.00    +0.102 C 
ATOM     14  H   UNL     1      36.455 -19.466 -20.665  0.00  0.00    +0.157 HD
ATOM     15  H   UNL     1      35.350 -18.400 -19.923  0.00  0.00    +0.157 HD
ATOM     16  H   UNL     1      37.111 -19.107 -22.879  0.00  0.00    +0.144 HD
ATOM     17  H   UNL     1      36.483 -17.779 -23.746  0.00  0.00    +0.144 HD
ENDBRANCH   6  13
TORSDOF 1
ENDMDL
MODEL 5
REMARK VINA RESULT:      -6.6      9.988     11.373
REMARK  Name = 1746
REMARK  1 active torsions:
REMARK  status: ('A' for Active; 'I' for Inactive)
REMARK    1  A    between atoms: C_6  and  C_13
REMARK                            x       y       z     vdW  Elec       q    Type
REMARK                         _______ _______ _______ _____ _____    ______ ____
ROOT
ATOM      1  I   UNL     1      28.557 -23.159 -16.247  0.00  0.00    -0.043 I 
ATOM      2  S   UNL     1      34.190 -23.551 -16.179  0.00  0.00    -0.084 S 
ATOM      3  C   UNL     1      31.614 -23.499 -15.952  0.00  0.00    +0.012 C 
ATOM      4  C   UNL     1      32.766 -23.908 -15.273  0.00  0.00    +0.030 C 
ATOM      5  C   UNL     1      31.941 -22.897 -17.214  0.00  0.00    +0.010 C 
ATOM      6  C   UNL     1      33.293 -22.864 -17.456  0.00  0.00    +0.058 C 
ATOM      7  C   UNL     1      30.359 -23.724 -15.336  0.00  0.00    +0.031 C 
ATOM      8  C   UNL     1      32.695 -24.528 -14.010  0.00  0.00    +0.007 C 
ATOM      9  C   UNL     1      30.286 -24.338 -14.083  0.00  0.00    +0.006 C 
ATOM     10  C   UNL     1      31.444 -24.735 -13.429  0.00  0.00    +0.001 C 
ENDROOT
BRANCH   6  13
ATOM     11  N   UNL     1      35.209 -22.094 -18.681  0.00  0.00    -0.386 N 
ATOM     12  N   UNL     1      33.111 -22.030 -19.699  0.00  0.00    -0.344 N 
ATOM     13  C   UNL     1      33.883 -22.319 -18.637  0.00  0.00    +0.102 C 
ATOM     14  H   UNL     1      35.617 -21.719 -19.494  0.00  0.00    +0.157 HD
ATOM     15  H   UNL     1      35.770 -22.305 -17.900  0.00  0.00    +0.157 HD
ATOM     16  H   UNL     1      33.516 -21.655 -20.515  0.00  0.00    +0.144 HD
ATOM     17  H   UNL     1      32.141 -22.194 -19.662  0.00  0.00    +0.144 HD
ENDBRANCH   6  13
TORSDOF 1
ENDMDL
MODEL 6
REMARK VINA RESULT:      -6.5     10.920     11.646
REMARK  Name = 1746
REMARK  1 active torsions:
REMARK  status: ('A' for Active; 'I' for Inactive)
REMARK    1  A    between atoms: C_6  and  C_13
REMARK                            x       y       z     vdW  Elec       q    Type
REMARK                         _______ _______ _______ _____ _____    ______ ____
ROOT
ATOM      1  I   UNL     1      33.955 -22.517 -18.742  0.00  0.00    -0.043 I 
ATOM      2  S   UNL     1      30.476 -23.638 -14.438  0.00  0.00    -0.084 S 
ATOM      3  C   UNL     1      32.284 -23.209 -16.237  0.00  0.00    +0.012 C 
ATOM      4  C   UNL     1      32.133 -23.652 -14.919  0.00  0.00    +0.030 C 
ATOM      5  C   UNL     1      31.018 -22.867 -16.819  0.00  0.00    +0.010 C 
ATOM      6  C   UNL     1      29.965 -23.053 -15.955  0.00  0.00    +0.058 C 
ATOM      7  C   UNL     1      33.591 -23.162 -16.780  0.00  0.00    +0.031 C 
ATOM      8  C   UNL     1      33.241 -24.045 -14.142  0.00  0.00    +0.007 C 
ATOM      9  C   UNL     1      34.691 -23.551 -16.012  0.00  0.00    +0.006 C 
ATOM     10  C   UNL     1      34.515 -23.987 -14.707  0.00  0.00    +0.001 C 
ENDROOT
BRANCH   6  13
ATOM     11  N   UNL     1      27.796 -22.198 -15.382  0.00  0.00    -0.386 N 
ATOM     12  N   UNL     1      28.125 -23.131 -17.494  0.00  0.00    -0.344 N 
ATOM     13  C   UNL     1      28.601 -22.787 -16.285  0.00  0.00    +0.102 C 
ATOM     14  H   UNL     1      26.856 -22.013 -15.608  0.00  0.00    +0.157 HD
ATOM     15  H   UNL     1      28.148 -21.949 -14.497  0.00  0.00    +0.157 HD
ATOM     16  H   UNL     1      27.185 -22.949 -17.724  0.00  0.00    +0.144 HD
ATOM     17  H   UNL     1      28.717 -23.565 -18.151  0.00  0.00    +0.144 HD
ENDBRANCH   6  13
TORSDOF 1
ENDMDL
MODEL 7
REMARK VINA RESULT:      -6.4     11.170     12.311
REMARK  Name = 1746
REMARK  1 active torsions:
REMARK  status: ('A' for Active; 'I' for Inactive)
REMARK    1  A    between atoms: C_6  and  C_13
REMARK                            x       y       z     vdW  Elec       q    Type
REMARK                         _______ _______ _______ _____ _____    ______ ____
ROOT
ATOM      1  I   UNL     1      33.813 -22.415 -18.753  0.00  0.00    -0.043 I 
ATOM      2  S   UNL     1      31.903 -24.400 -13.823  0.00  0.00    -0.084 S 
ATOM      3  C   UNL     1      33.039 -23.488 -15.960  0.00  0.00    +0.012 C 
ATOM      4  C   UNL     1      33.326 -23.882 -14.649  0.00  0.00    +0.030 C 
ATOM      5  C   UNL     1      31.640 -23.625 -16.250  0.00  0.00    +0.010 C 
ATOM      6  C   UNL     1      30.918 -24.106 -15.183  0.00  0.00    +0.058 C 
ATOM      7  C   UNL     1      34.107 -23.034 -16.771  0.00  0.00    +0.031 C 
ATOM      8  C   UNL     1      34.637 -23.834 -14.136  0.00  0.00    +0.007 C 
ATOM      9  C   UNL     1      35.409 -22.986 -16.265  0.00  0.00    +0.006 C 
ATOM     10  C   UNL     1      35.668 -23.383 -14.961  0.00  0.00    +0.001 C 
ENDROOT
BRANCH   6  13
ATOM     11  N   UNL     1      28.983 -25.352 -14.503  0.00  0.00    -0.386 N 
ATOM     12  N   UNL     1      28.712 -23.532 -15.935  0.00  0.00    -0.344 N 
ATOM     13  C   UNL     1      29.509 -24.334 -15.207  0.00  0.00    +0.102 C 
ATOM     14  H   UNL     1      28.012 -25.511 -14.517  0.00  0.00    +0.157 HD
ATOM     15  H   UNL     1      29.569 -25.938 -13.972  0.00  0.00    +0.157 HD
ATOM     16  H   UNL     1      27.740 -23.687 -15.953  0.00  0.00    +0.144 HD
ATOM     17  H   UNL     1      29.102 -22.789 -16.451  0.00  0.00    +0.144 HD
ENDBRANCH   6  13
TORSDOF 1
ENDMDL
MODEL 8
REMARK VINA RESULT:      -6.4     11.494     12.671
REMARK  Name = 1746
REMARK  1 active torsions:
REMARK  status: ('A' for Active; 'I' for Inactive)
REMARK    1  A    between atoms: C_6  and  C_13
REMARK                            x       y       z     vdW  Elec       q    Type
REMARK                         _______ _______ _______ _____ _____    ______ ____
ROOT
ATOM      1  I   UNL     1      33.800 -22.596 -18.739  0.00  0.00    -0.043 I 
ATOM      2  S   UNL     1      34.717 -24.145 -13.387  0.00  0.00    -0.084 S 
ATOM      3  C   UNL     1      34.017 -23.430 -15.772  0.00  0.00    +0.012 C 
ATOM      4  C   UNL     1      33.480 -23.730 -14.515  0.00  0.00    +0.030 C 
ATOM      5  C   UNL     1      35.447 -23.552 -15.769  0.00  0.00    +0.010 C 
ATOM      6  C   UNL     1      35.949 -23.931 -14.546  0.00  0.00    +0.058 C 
ATOM      7  C   UNL     1      33.126 -23.069 -16.811  0.00  0.00    +0.031 C 
ATOM      8  C   UNL     1      32.093 -23.678 -14.276  0.00  0.00    +0.007 C 
ATOM      9  C   UNL     1      31.749 -23.016 -16.576  0.00  0.00    +0.006 C 
ATOM     10  C   UNL     1      31.241 -23.318 -15.321  0.00  0.00    +0.001 C 
ENDROOT
BRANCH   6  13
ATOM     11  N   UNL     1      38.205 -24.267 -15.291  0.00  0.00    -0.386 N 
ATOM     12  N   UNL     1      37.770 -24.169 -13.002  0.00  0.00    -0.344 N 
ATOM     13  C   UNL     1      37.337 -24.125 -14.274  0.00  0.00    +0.102 C 
ATOM     14  H   UNL     1      39.163 -24.400 -15.106  0.00  0.00    +0.157 HD
ATOM     15  H   UNL     1      37.884 -24.236 -16.221  0.00  0.00    +0.157 HD
ATOM     16  H   UNL     1      38.728 -24.302 -12.812  0.00  0.00    +0.144 HD
ATOM     17  H   UNL     1      37.131 -24.067 -12.260  0.00  0.00    +0.144 HD
ENDBRANCH   6  13
TORSDOF 1
ENDMDL
MODEL 9
REMARK VINA RESULT:      -6.3     10.020     11.579
REMARK  Name = 1746
REMARK  1 active torsions:
REMARK  status: ('A' for Active; 'I' for Inactive)
REMARK    1  A    between atoms: C_6  and  C_13
REMARK                            x       y       z     vdW  Elec       q    Type
REMARK                         _______ _______ _______ _____ _____    ______ ____
ROOT
ATOM      1  I   UNL     1      37.304 -22.543 -15.981  0.00  0.00    -0.043 I 
ATOM      2  S   UNL     1      31.767 -23.281 -16.808  0.00  0.00    -0.084 S 
ATOM      3  C   UNL     1      34.315 -22.849 -16.701  0.00  0.00    +0.012 C 
ATOM      4  C   UNL     1      33.223 -22.755 -17.570  0.00  0.00    +0.030 C 
ATOM      5  C   UNL     1      33.917 -23.356 -15.419  0.00  0.00    +0.010 C 
ATOM      6  C   UNL     1      32.571 -23.628 -15.346  0.00  0.00    +0.058 C 
ATOM      7  C   UNL     1      35.587 -22.453 -17.181  0.00  0.00    +0.031 C 
ATOM      8  C   UNL     1      33.370 -22.282 -18.889  0.00  0.00    +0.007 C 
ATOM      9  C   UNL     1      35.735 -21.983 -18.489  0.00  0.00    +0.006 C 
ATOM     10  C   UNL     1      34.636 -21.900 -19.332  0.00  0.00    +0.001 C 
ENDROOT
BRANCH   6  13
ATOM     11  N   UNL     1      30.855 -23.497 -13.673  0.00  0.00    -0.386 N 
ATOM     12  N   UNL     1      32.374 -25.266 -13.603  0.00  0.00    -0.344 N 
ATOM     13  C   UNL     1      31.919 -24.142 -14.184  0.00  0.00    +0.102 C 
ATOM     14  H   UNL     1      30.404 -23.850 -12.872  0.00  0.00    +0.157 HD
ATOM     15  H   UNL     1      30.527 -22.673 -14.100  0.00  0.00    +0.157 HD
ATOM     16  H   UNL     1      31.925 -25.623 -12.802  0.00  0.00    +0.144 HD
ATOM     17  H   UNL     1      33.154 -25.734 -13.980  0.00  0.00    +0.144 HD
ENDBRANCH   6  13
TORSDOF 1
ENDMDL
