MODEL 1
REMARK VINA RESULT:     -11.1      0.000      0.000
REMARK  Name = 21066096
REMARK  4 active torsions:
REMARK  status: ('A' for Active; 'I' for Inactive)
REMARK    1  A    between atoms: C_4  and  N_17
REMARK    2  A    between atoms: C_6  and  C_11
REMARK    3  A    between atoms: N_17  and  C_19
REMARK    4  A    between atoms: C_19  and  C_21
REMARK                            x       y       z     vdW  Elec       q    Type
REMARK                         _______ _______ _______ _____ _____    ______ ____
ROOT
ATOM      1  N   UNL     1      34.419 -16.678 -23.239  0.00  0.00    -0.152 N 
ATOM      2  N   UNL     1      34.712 -19.046 -22.915  0.00  0.00    -0.389 NA
ATOM      3  N   UNL     1      34.334 -15.771 -24.253  0.00  0.00    -0.174 NA
ATOM      4  C   UNL     1      34.350 -16.431 -21.858  0.00  0.00    +0.126 C 
ATOM      5  C   UNL     1      34.601 -17.969 -23.738  0.00  0.00    +0.190 C 
ATOM      6  C   UNL     1      34.633 -18.821 -21.635  0.00  0.00    +0.137 C 
ATOM      7  C   UNL     1      34.455 -17.472 -21.014  0.00  0.00    +0.064 C 
ATOM      8  C   UNL     1      34.632 -17.859 -25.110  0.00  0.00    +0.125 C 
ATOM      9  C   UNL     1      34.463 -16.493 -25.364  0.00  0.00    +0.101 C 
ENDROOT
BRANCH   6  11
ATOM     10  F   UNL     1      32.378 -20.168 -20.591  0.00  0.00    -0.204 F 
ATOM     11  C   UNL     1      34.744 -19.971 -20.699  0.00  0.00    +0.057 C 
ATOM     12  C   UNL     1      33.592 -20.596 -20.218  0.00  0.00    +0.143 C 
ATOM     13  C   UNL     1      36.001 -20.427 -20.303  0.00  0.00    +0.005 C 
ATOM     14  C   UNL     1      33.699 -21.675 -19.340  0.00  0.00    +0.030 C 
ATOM     15  C   UNL     1      36.108 -21.506 -19.426  0.00  0.00    +0.000 C 
ATOM     16  C   UNL     1      34.957 -22.130 -18.945  0.00  0.00    +0.002 C 
ENDBRANCH   6  11
BRANCH   4  17
ATOM     17  N   UNL     1      34.187 -15.136 -21.456  0.00  0.00    -0.316 N 
ATOM     18  H   UNL     1      34.835 -14.465 -21.770  0.00  0.00    +0.148 HD
BRANCH  17  19
ATOM     19  C   UNL     1      33.116 -14.704 -20.598  0.00  0.00    +0.115 C 
BRANCH  19  21
ATOM     20  N   UNL     1      31.406 -11.037 -22.050  0.00  0.00    -0.242 NA
ATOM     21  C   UNL     1      32.518 -13.422 -21.106  0.00  0.00    +0.000 C 
ATOM     22  C   UNL     1      32.594 -13.103 -22.458  0.00  0.00    +0.018 C 
ATOM     23  C   UNL     1      31.887 -12.549 -20.226  0.00  0.00    +0.018 C 
ATOM     24  C   UNL     1      32.027 -11.910 -22.875  0.00  0.00    +0.099 C 
ATOM     25  C   UNL     1      31.352 -11.380 -20.743  0.00  0.00    +0.099 C 
ENDBRANCH  19  21
ENDBRANCH  17  19
ENDBRANCH   4  17
TORSDOF 4
ENDMDL
MODEL 2
REMARK VINA RESULT:     -11.0      0.992      1.696
REMARK  Name = 21066096
REMARK  4 active torsions:
REMARK  status: ('A' for Active; 'I' for Inactive)
REMARK    1  A    between atoms: C_4  and  N_17
REMARK    2  A    between atoms: C_6  and  C_11
REMARK    3  A    between atoms: N_17  and  C_19
REMARK    4  A    between atoms: C_19  and  C_21
REMARK                            x       y       z     vdW  Elec       q    Type
REMARK                         _______ _______ _______ _____ _____    ______ ____
ROOT
ATOM      1  N   UNL     1      34.376 -16.599 -23.214  0.00  0.00    -0.152 N 
ATOM      2  N   UNL     1      34.745 -18.959 -22.911  0.00  0.00    -0.389 NA
ATOM      3  N   UNL     1      34.262 -15.686 -24.220  0.00  0.00    -0.174 NA
ATOM      4  C   UNL     1      34.299 -16.366 -21.831  0.00  0.00    +0.126 C 
ATOM      5  C   UNL     1      34.600 -17.879 -23.725  0.00  0.00    +0.190 C 
ATOM      6  C   UNL     1      34.660 -18.748 -21.629  0.00  0.00    +0.137 C 
ATOM      7  C   UNL     1      34.438 -17.410 -20.996  0.00  0.00    +0.064 C 
ATOM      8  C   UNL     1      34.627 -17.756 -25.095  0.00  0.00    +0.125 C 
ATOM      9  C   UNL     1      34.414 -16.394 -25.338  0.00  0.00    +0.101 C 
ENDROOT
BRANCH   6  11
ATOM     10  F   UNL     1      37.168 -19.633 -20.673  0.00  0.00    -0.204 F 
ATOM     11  C   UNL     1      34.808 -19.902 -20.702  0.00  0.00    +0.057 C 
ATOM     12  C   UNL     1      36.074 -20.291 -20.265  0.00  0.00    +0.143 C 
ATOM     13  C   UNL     1      33.677 -20.594 -20.270  0.00  0.00    +0.005 C 
ATOM     14  C   UNL     1      36.209 -21.373 -19.395  0.00  0.00    +0.030 C 
ATOM     15  C   UNL     1      33.811 -21.676 -19.400  0.00  0.00    +0.000 C 
ATOM     16  C   UNL     1      35.078 -22.065 -18.962  0.00  0.00    +0.002 C 
ENDBRANCH   6  11
BRANCH   4  17
ATOM     17  N   UNL     1      34.094 -15.081 -21.418  0.00  0.00    -0.316 N 
ATOM     18  H   UNL     1      34.749 -14.395 -21.682  0.00  0.00    +0.148 HD
BRANCH  17  19
ATOM     19  C   UNL     1      32.969 -14.679 -20.616  0.00  0.00    +0.115 C 
BRANCH  19  21
ATOM     20  N   UNL     1      31.455 -10.881 -21.946  0.00  0.00    -0.242 NA
ATOM     21  C   UNL     1      32.440 -13.351 -21.080  0.00  0.00    +0.000 C 
ATOM     22  C   UNL     1      31.879 -12.463 -20.168  0.00  0.00    +0.018 C 
ATOM     23  C   UNL     1      32.509 -13.003 -22.426  0.00  0.00    +0.018 C 
ATOM     24  C   UNL     1      31.406 -11.253 -20.647  0.00  0.00    +0.099 C 
ATOM     25  C   UNL     1      32.007 -11.768 -22.804  0.00  0.00    +0.099 C 
ENDBRANCH  19  21
ENDBRANCH  17  19
ENDBRANCH   4  17
TORSDOF 4
ENDMDL
MODEL 3
REMARK VINA RESULT:     -10.4      5.562      8.958
REMARK  Name = 21066096
REMARK  4 active torsions:
REMARK  status: ('A' for Active; 'I' for Inactive)
REMARK    1  A    between atoms: C_4  and  N_17
REMARK    2  A    between atoms: C_6  and  C_11
REMARK    3  A    between atoms: N_17  and  C_19
REMARK    4  A    between atoms: C_19  and  C_21
REMARK                            x       y       z     vdW  Elec       q    Type
REMARK                         _______ _______ _______ _____ _____    ______ ____
ROOT
ATOM      1  N   UNL     1      31.736 -23.130 -16.358  0.00  0.00    -0.152 N 
ATOM      2  N   UNL     1      32.688 -24.163 -14.402  0.00  0.00    -0.389 NA
ATOM      3  N   UNL     1      30.534 -22.677 -16.812  0.00  0.00    -0.174 NA
ATOM      4  C   UNL     1      32.968 -23.119 -17.031  0.00  0.00    +0.126 C 
ATOM      5  C   UNL     1      31.618 -23.651 -15.068  0.00  0.00    +0.190 C 
ATOM      6  C   UNL     1      33.834 -24.141 -15.019  0.00  0.00    +0.137 C 
ATOM      7  C   UNL     1      34.048 -23.617 -16.404  0.00  0.00    +0.064 C 
ATOM      8  C   UNL     1      30.296 -23.517 -14.710  0.00  0.00    +0.125 C 
ATOM      9  C   UNL     1      29.684 -22.915 -15.815  0.00  0.00    +0.101 C 
ENDROOT
BRANCH   6  11
ATOM     10  F   UNL     1      34.472 -23.507 -12.340  0.00  0.00    -0.204 F 
ATOM     11  C   UNL     1      35.031 -24.685 -14.325  0.00  0.00    +0.057 C 
ATOM     12  C   UNL     1      35.293 -24.335 -13.000  0.00  0.00    +0.143 C 
ATOM     13  C   UNL     1      35.892 -25.549 -15.002  0.00  0.00    +0.005 C 
ATOM     14  C   UNL     1      36.416 -24.849 -12.352  0.00  0.00    +0.030 C 
ATOM     15  C   UNL     1      37.016 -26.063 -14.354  0.00  0.00    +0.000 C 
ATOM     16  C   UNL     1      37.277 -25.713 -13.028  0.00  0.00    +0.002 C 
ENDBRANCH   6  11
BRANCH   4  17
ATOM     17  N   UNL     1      32.991 -22.606 -18.297  0.00  0.00    -0.316 N 
ATOM     18  H   UNL     1      32.146 -22.282 -18.685  0.00  0.00    +0.148 HD
BRANCH  17  19
ATOM     19  C   UNL     1      34.187 -22.514 -19.091  0.00  0.00    +0.115 C 
BRANCH  19  21
ATOM     20  N   UNL     1      34.279 -18.798 -21.250  0.00  0.00    -0.242 NA
ATOM     21  C   UNL     1      34.220 -21.214 -19.846  0.00  0.00    +0.000 C 
ATOM     22  C   UNL     1      35.433 -20.681 -20.268  0.00  0.00    +0.018 C 
ATOM     23  C   UNL     1      33.036 -20.540 -20.127  0.00  0.00    +0.018 C 
ATOM     24  C   UNL     1      35.408 -19.482 -20.960  0.00  0.00    +0.099 C 
ATOM     25  C   UNL     1      33.119 -19.346 -20.825  0.00  0.00    +0.099 C 
ENDBRANCH  19  21
ENDBRANCH  17  19
ENDBRANCH   4  17
TORSDOF 4
ENDMDL
MODEL 4
REMARK VINA RESULT:     -10.2      4.915     10.046
REMARK  Name = 21066096
REMARK  4 active torsions:
REMARK  status: ('A' for Active; 'I' for Inactive)
REMARK    1  A    between atoms: C_4  and  N_17
REMARK    2  A    between atoms: C_6  and  C_11
REMARK    3  A    between atoms: N_17  and  C_19
REMARK    4  A    between atoms: C_19  and  C_21
REMARK                            x       y       z     vdW  Elec       q    Type
REMARK                         _______ _______ _______ _____ _____    ______ ____
ROOT
ATOM      1  N   UNL     1      31.924 -11.038 -21.096  0.00  0.00    -0.152 N 
ATOM      2  N   UNL     1      32.232  -8.674 -21.438  0.00  0.00    -0.389 NA
ATOM      3  N   UNL     1      31.580 -11.907 -20.104  0.00  0.00    -0.174 NA
ATOM      4  C   UNL     1      32.256 -11.340 -22.426  0.00  0.00    +0.126 C 
ATOM      5  C   UNL     1      31.921  -9.722 -20.629  0.00  0.00    +0.190 C 
ATOM      6  C   UNL     1      32.526  -8.951 -22.676  0.00  0.00    +0.137 C 
ATOM      7  C   UNL     1      32.568 -10.330 -23.256  0.00  0.00    +0.064 C 
ATOM      8  C   UNL     1      31.565  -9.777 -19.301  0.00  0.00    +0.125 C 
ATOM      9  C   UNL     1      31.368 -11.138 -19.038  0.00  0.00    +0.101 C 
ENDROOT
BRANCH   6  11
ATOM     10  F   UNL     1      30.601  -7.120 -23.639  0.00  0.00    -0.204 F 
ATOM     11  C   UNL     1      32.866  -7.835 -23.598  0.00  0.00    +0.057 C 
ATOM     12  C   UNL     1      31.871  -6.963 -24.039  0.00  0.00    +0.143 C 
ATOM     13  C   UNL     1      34.184  -7.661 -24.021  0.00  0.00    +0.005 C 
ATOM     14  C   UNL     1      32.193  -5.916 -24.902  0.00  0.00    +0.030 C 
ATOM     15  C   UNL     1      34.507  -6.614 -24.884  0.00  0.00    +0.000 C 
ATOM     16  C   UNL     1      33.511  -5.741 -25.325  0.00  0.00    +0.002 C 
ENDBRANCH   6  11
BRANCH   4  17
ATOM     17  N   UNL     1      32.250 -12.655 -22.795  0.00  0.00    -0.316 N 
ATOM     18  H   UNL     1      31.407 -13.044 -23.123  0.00  0.00    +0.148 HD
BRANCH  17  19
ATOM     19  C   UNL     1      33.412 -13.500 -22.727  0.00  0.00    +0.115 C 
BRANCH  19  21
ATOM     20  N   UNL     1      33.659 -16.001 -26.216  0.00  0.00    -0.242 NA
ATOM     21  C   UNL     1      33.499 -14.375 -23.947  0.00  0.00    +0.000 C 
ATOM     22  C   UNL     1      34.154 -15.600 -23.883  0.00  0.00    +0.018 C 
ATOM     23  C   UNL     1      32.924 -13.963 -25.144  0.00  0.00    +0.018 C 
ATOM     24  C   UNL     1      34.205 -16.369 -25.035  0.00  0.00    +0.099 C 
ATOM     25  C   UNL     1      33.031 -14.804 -26.240  0.00  0.00    +0.099 C 
ENDBRANCH  19  21
ENDBRANCH  17  19
ENDBRANCH   4  17
TORSDOF 4
ENDMDL
MODEL 5
REMARK VINA RESULT:     -10.1      5.044      8.551
REMARK  Name = 21066096
REMARK  4 active torsions:
REMARK  status: ('A' for Active; 'I' for Inactive)
REMARK    1  A    between atoms: C_4  and  N_17
REMARK    2  A    between atoms: C_6  and  C_11
REMARK    3  A    between atoms: N_17  and  C_19
REMARK    4  A    between atoms: C_19  and  C_21
REMARK                            x       y       z     vdW  Elec       q    Type
REMARK                         _______ _______ _______ _____ _____    ______ ____
ROOT
ATOM      1  N   UNL     1      35.083 -22.914 -16.525  0.00  0.00    -0.152 N 
ATOM      2  N   UNL     1      33.349 -23.564 -14.987  0.00  0.00    -0.389 NA
ATOM      3  N   UNL     1      36.431 -22.712 -16.545  0.00  0.00    -0.174 NA
ATOM      4  C   UNL     1      34.177 -22.767 -17.587  0.00  0.00    +0.126 C 
ATOM      5  C   UNL     1      34.656 -23.302 -15.254  0.00  0.00    +0.190 C 
ATOM      6  C   UNL     1      32.508 -23.442 -15.974  0.00  0.00    +0.137 C 
ATOM      7  C   UNL     1      32.876 -23.016 -17.361  0.00  0.00    +0.064 C 
ATOM      8  C   UNL     1      35.778 -23.342 -14.458  0.00  0.00    +0.125 C 
ATOM      9  C   UNL     1      36.831 -22.972 -15.302  0.00  0.00    +0.101 C 
ENDROOT
BRANCH   6  11
ATOM     10  F   UNL     1      31.623 -25.530 -14.288  0.00  0.00    -0.204 F 
ATOM     11  C   UNL     1      31.069 -23.723 -15.728  0.00  0.00    +0.057 C 
ATOM     12  C   UNL     1      30.694 -24.770 -14.884  0.00  0.00    +0.143 C 
ATOM     13  C   UNL     1      30.093 -22.938 -16.342  0.00  0.00    +0.005 C 
ATOM     14  C   UNL     1      29.344 -25.030 -14.654  0.00  0.00    +0.030 C 
ATOM     15  C   UNL     1      28.742 -23.199 -16.112  0.00  0.00    +0.000 C 
ATOM     16  C   UNL     1      28.368 -24.245 -15.268  0.00  0.00    +0.002 C 
ENDBRANCH   6  11
BRANCH   4  17
ATOM     17  N   UNL     1      34.678 -22.366 -18.793  0.00  0.00    -0.316 N 
ATOM     18  H   UNL     1      35.633 -22.518 -18.976  0.00  0.00    +0.148 HD
BRANCH  17  19
ATOM     19  C   UNL     1      33.879 -21.735 -19.810  0.00  0.00    +0.115 C 
BRANCH  19  21
ATOM     20  N   UNL     1      35.890 -18.268 -21.365  0.00  0.00    -0.242 NA
ATOM     21  C   UNL     1      34.582 -20.522 -20.354  0.00  0.00    +0.000 C 
ATOM     22  C   UNL     1      33.849 -19.483 -20.917  0.00  0.00    +0.018 C 
ATOM     23  C   UNL     1      35.969 -20.434 -20.296  0.00  0.00    +0.018 C 
ATOM     24  C   UNL     1      34.544 -18.388 -21.404  0.00  0.00    +0.099 C 
ATOM     25  C   UNL     1      36.569 -19.297 -20.811  0.00  0.00    +0.099 C 
ENDBRANCH  19  21
ENDBRANCH  17  19
ENDBRANCH   4  17
TORSDOF 4
ENDMDL
MODEL 6
REMARK VINA RESULT:     -10.0      4.246      9.972
REMARK  Name = 21066096
REMARK  4 active torsions:
REMARK  status: ('A' for Active; 'I' for Inactive)
REMARK    1  A    between atoms: C_4  and  N_17
REMARK    2  A    between atoms: C_6  and  C_11
REMARK    3  A    between atoms: N_17  and  C_19
REMARK    4  A    between atoms: C_19  and  C_21
REMARK                            x       y       z     vdW  Elec       q    Type
REMARK                         _______ _______ _______ _____ _____    ______ ____
ROOT
ATOM      1  N   UNL     1      31.941 -11.017 -21.054  0.00  0.00    -0.152 N 
ATOM      2  N   UNL     1      32.207  -8.652 -21.422  0.00  0.00    -0.389 NA
ATOM      3  N   UNL     1      31.595 -11.881 -20.057  0.00  0.00    -0.174 NA
ATOM      4  C   UNL     1      32.305 -11.330 -22.373  0.00  0.00    +0.126 C 
ATOM      5  C   UNL     1      31.902  -9.696 -20.604  0.00  0.00    +0.190 C 
ATOM      6  C   UNL     1      32.531  -8.939 -22.650  0.00  0.00    +0.137 C 
ATOM      7  C   UNL     1      32.613 -10.324 -23.210  0.00  0.00    +0.064 C 
ATOM      8  C   UNL     1      31.521  -9.741 -19.283  0.00  0.00    +0.125 C 
ATOM      9  C   UNL     1      31.347 -11.102 -19.006  0.00  0.00    +0.101 C 
ENDROOT
BRANCH   6  11
ATOM     10  F   UNL     1      30.591  -7.148 -23.657  0.00  0.00    -0.204 F 
ATOM     11  C   UNL     1      32.866  -7.829 -23.580  0.00  0.00    +0.057 C 
ATOM     12  C   UNL     1      31.863  -6.976 -24.043  0.00  0.00    +0.143 C 
ATOM     13  C   UNL     1      34.187  -7.639 -23.987  0.00  0.00    +0.005 C 
ATOM     14  C   UNL     1      32.182  -5.934 -24.914  0.00  0.00    +0.030 C 
ATOM     15  C   UNL     1      34.505  -6.597 -24.858  0.00  0.00    +0.000 C 
ATOM     16  C   UNL     1      33.502  -5.744 -25.322  0.00  0.00    +0.002 C 
ENDBRANCH   6  11
BRANCH   4  17
ATOM     17  N   UNL     1      32.333 -12.650 -22.724  0.00  0.00    -0.316 N 
ATOM     18  H   UNL     1      31.567 -13.216 -22.474  0.00  0.00    +0.148 HD
BRANCH  17  19
ATOM     19  C   UNL     1      33.424 -13.254 -23.442  0.00  0.00    +0.115 C 
BRANCH  19  21
ATOM     20  N   UNL     1      35.023 -16.576 -21.231  0.00  0.00    -0.242 NA
ATOM     21  C   UNL     1      33.983 -14.416 -22.669  0.00  0.00    +0.000 C 
ATOM     22  C   UNL     1      34.590 -15.473 -23.339  0.00  0.00    +0.018 C 
ATOM     23  C   UNL     1      33.897 -14.438 -21.281  0.00  0.00    +0.018 C 
ATOM     24  C   UNL     1      35.089 -16.519 -22.580  0.00  0.00    +0.099 C 
ATOM     25  C   UNL     1      34.427 -15.531 -20.615  0.00  0.00    +0.099 C 
ENDBRANCH  19  21
ENDBRANCH  17  19
ENDBRANCH   4  17
TORSDOF 4
ENDMDL
MODEL 7
REMARK VINA RESULT:      -9.9      5.136      9.233
REMARK  Name = 21066096
REMARK  4 active torsions:
REMARK  status: ('A' for Active; 'I' for Inactive)
REMARK    1  A    between atoms: C_4  and  N_17
REMARK    2  A    between atoms: C_6  and  C_11
REMARK    3  A    between atoms: N_17  and  C_19
REMARK    4  A    between atoms: C_19  and  C_21
REMARK                            x       y       z     vdW  Elec       q    Type
REMARK                         _______ _______ _______ _____ _____    ______ ____
ROOT
ATOM      1  N   UNL     1      35.338 -22.578 -17.418  0.00  0.00    -0.152 N 
ATOM      2  N   UNL     1      36.461 -20.970 -18.815  0.00  0.00    -0.389 NA
ATOM      3  N   UNL     1      35.571 -23.330 -16.305  0.00  0.00    -0.174 NA
ATOM      4  C   UNL     1      34.168 -22.533 -18.195  0.00  0.00    +0.126 C 
ATOM      5  C   UNL     1      36.455 -21.805 -17.741  0.00  0.00    +0.190 C 
ATOM      6  C   UNL     1      35.373 -20.916 -19.528  0.00  0.00    +0.137 C 
ATOM      7  C   UNL     1      34.138 -21.718 -19.263  0.00  0.00    +0.064 C 
ATOM      8  C   UNL     1      37.415 -22.088 -16.797  0.00  0.00    +0.125 C 
ATOM      9  C   UNL     1      36.816 -23.025 -15.946  0.00  0.00    +0.101 C 
ENDROOT
BRANCH   6  11
ATOM     10  F   UNL     1      37.625 -19.455 -20.411  0.00  0.00    -0.204 F 
ATOM     11  C   UNL     1      35.334 -20.011 -20.707  0.00  0.00    +0.057 C 
ATOM     12  C   UNL     1      36.481 -19.316 -21.095  0.00  0.00    +0.143 C 
ATOM     13  C   UNL     1      34.149 -19.859 -21.427  0.00  0.00    +0.005 C 
ATOM     14  C   UNL     1      36.441 -18.469 -22.202  0.00  0.00    +0.030 C 
ATOM     15  C   UNL     1      34.110 -19.012 -22.535  0.00  0.00    +0.000 C 
ATOM     16  C   UNL     1      35.256 -18.318 -22.922  0.00  0.00    +0.002 C 
ENDBRANCH   6  11
BRANCH   4  17
ATOM     17  N   UNL     1      33.129 -23.334 -17.817  0.00  0.00    -0.316 N 
ATOM     18  H   UNL     1      33.183 -24.296 -18.019  0.00  0.00    +0.148 HD
BRANCH  17  19
ATOM     19  C   UNL     1      31.959 -22.843 -17.137  0.00  0.00    +0.115 C 
BRANCH  19  21
ATOM     20  N   UNL     1      31.421 -24.890 -13.396  0.00  0.00    -0.242 NA
ATOM     21  C   UNL     1      31.771 -23.559 -15.829  0.00  0.00    +0.000 C 
ATOM     22  C   UNL     1      30.662 -24.375 -15.633  0.00  0.00    +0.018 C 
ATOM     23  C   UNL     1      32.705 -23.409 -14.810  0.00  0.00    +0.018 C 
ATOM     24  C   UNL     1      30.535 -25.013 -14.410  0.00  0.00    +0.099 C 
ATOM     25  C   UNL     1      32.486 -24.089 -13.623  0.00  0.00    +0.099 C 
ENDBRANCH  19  21
ENDBRANCH  17  19
ENDBRANCH   4  17
TORSDOF 4
ENDMDL
MODEL 8
REMARK VINA RESULT:      -9.9      3.529      8.488
REMARK  Name = 21066096
REMARK  4 active torsions:
REMARK  status: ('A' for Active; 'I' for Inactive)
REMARK    1  A    between atoms: C_4  and  N_17
REMARK    2  A    between atoms: C_6  and  C_11
REMARK    3  A    between atoms: N_17  and  C_19
REMARK    4  A    between atoms: C_19  and  C_21
REMARK                            x       y       z     vdW  Elec       q    Type
REMARK                         _______ _______ _______ _____ _____    ______ ____
ROOT
ATOM      1  N   UNL     1      33.314 -13.997 -24.817  0.00  0.00    -0.152 N 
ATOM      2  N   UNL     1      33.454 -11.675 -25.439  0.00  0.00    -0.389 NA
ATOM      3  N   UNL     1      33.216 -15.225 -25.402  0.00  0.00    -0.174 NA
ATOM      4  C   UNL     1      33.365 -13.701 -23.445  0.00  0.00    +0.126 C 
ATOM      5  C   UNL     1      33.355 -12.987 -25.781  0.00  0.00    +0.190 C 
ATOM      6  C   UNL     1      33.516 -11.399 -24.168  0.00  0.00    +0.137 C 
ATOM      7  C   UNL     1      33.463 -12.414 -23.070  0.00  0.00    +0.064 C 
ATOM      8  C   UNL     1      33.278 -13.610 -27.005  0.00  0.00    +0.125 C 
ATOM      9  C   UNL     1      33.196 -14.976 -26.709  0.00  0.00    +0.101 C 
ENDROOT
BRANCH   6  11
ATOM     10  F   UNL     1      35.742  -9.785 -24.822  0.00  0.00    -0.204 F 
ATOM     11  C   UNL     1      33.631  -9.977 -23.749  0.00  0.00    +0.057 C 
ATOM     12  C   UNL     1      34.756  -9.231 -24.104  0.00  0.00    +0.143 C 
ATOM     13  C   UNL     1      32.610  -9.388 -23.002  0.00  0.00    +0.005 C 
ATOM     14  C   UNL     1      34.859  -7.896 -23.711  0.00  0.00    +0.030 C 
ATOM     15  C   UNL     1      32.714  -8.054 -22.609  0.00  0.00    +0.000 C 
ATOM     16  C   UNL     1      33.839  -7.308 -22.964  0.00  0.00    +0.002 C 
ENDBRANCH   6  11
BRANCH   4  17
ATOM     17  N   UNL     1      33.302 -14.748 -22.571  0.00  0.00    -0.316 N 
ATOM     18  H   UNL     1      32.427 -15.165 -22.404  0.00  0.00    +0.148 HD
BRANCH  17  19
ATOM     19  C   UNL     1      34.452 -15.272 -21.882  0.00  0.00    +0.115 C 
BRANCH  19  21
ATOM     20  N   UNL     1      34.887 -19.477 -22.661  0.00  0.00    -0.242 NA
ATOM     21  C   UNL     1      34.604 -16.742 -22.154  0.00  0.00    +0.000 C 
ATOM     22  C   UNL     1      34.123 -17.675 -21.242  0.00  0.00    +0.018 C 
ATOM     23  C   UNL     1      35.225 -17.176 -23.321  0.00  0.00    +0.018 C 
ATOM     24  C   UNL     1      34.287 -19.018 -21.540  0.00  0.00    +0.099 C 
ATOM     25  C   UNL     1      35.341 -18.542 -23.525  0.00  0.00    +0.099 C 
ENDBRANCH  19  21
ENDBRANCH  17  19
ENDBRANCH   4  17
TORSDOF 4
ENDMDL
MODEL 9
REMARK VINA RESULT:      -9.9      3.425      8.431
REMARK  Name = 21066096
REMARK  4 active torsions:
REMARK  status: ('A' for Active; 'I' for Inactive)
REMARK    1  A    between atoms: C_4  and  N_17
REMARK    2  A    between atoms: C_6  and  C_11
REMARK    3  A    between atoms: N_17  and  C_19
REMARK    4  A    between atoms: C_19  and  C_21
REMARK                            x       y       z     vdW  Elec       q    Type
REMARK                         _______ _______ _______ _____ _____    ______ ____
ROOT
ATOM      1  N   UNL     1      33.339 -13.855 -25.031  0.00  0.00    -0.152 N 
ATOM      2  N   UNL     1      33.471 -11.509 -25.557  0.00  0.00    -0.389 NA
ATOM      3  N   UNL     1      33.250 -15.058 -25.665  0.00  0.00    -0.174 NA
ATOM      4  C   UNL     1      33.383 -13.614 -23.648  0.00  0.00    +0.126 C 
ATOM      5  C   UNL     1      33.380 -12.807 -25.953  0.00  0.00    +0.190 C 
ATOM      6  C   UNL     1      33.526 -11.284 -24.276  0.00  0.00    +0.137 C 
ATOM      7  C   UNL     1      33.473 -12.343 -23.220  0.00  0.00    +0.064 C 
ATOM      8  C   UNL     1      33.312 -13.379 -27.202  0.00  0.00    +0.125 C 
ATOM      9  C   UNL     1      33.235 -14.757 -26.962  0.00  0.00    +0.101 C 
ENDROOT
BRANCH   6  11
ATOM     10  F   UNL     1      31.472 -10.003 -22.817  0.00  0.00    -0.204 F 
ATOM     11  C   UNL     1      33.632  -9.880 -23.799  0.00  0.00    +0.057 C 
ATOM     12  C   UNL     1      32.583  -9.302 -23.082  0.00  0.00    +0.143 C 
ATOM     13  C   UNL     1      34.784  -9.140 -24.069  0.00  0.00    +0.005 C 
ATOM     14  C   UNL     1      32.687  -7.985 -22.636  0.00  0.00    +0.030 C 
ATOM     15  C   UNL     1      34.887  -7.823 -23.622  0.00  0.00    +0.000 C 
ATOM     16  C   UNL     1      33.838  -7.245 -22.905  0.00  0.00    +0.002 C 
ENDBRANCH   6  11
BRANCH   4  17
ATOM     17  N   UNL     1      33.321 -14.696 -22.817  0.00  0.00    -0.316 N 
ATOM     18  H   UNL     1      32.462 -15.168 -22.729  0.00  0.00    +0.148 HD
BRANCH  17  19
ATOM     19  C   UNL     1      34.449 -15.180 -22.066  0.00  0.00    +0.115 C 
BRANCH  19  21
ATOM     20  N   UNL     1      34.924 -19.416 -22.626  0.00  0.00    -0.242 NA
ATOM     21  C   UNL     1      34.615 -16.661 -22.261  0.00  0.00    +0.000 C 
ATOM     22  C   UNL     1      34.403 -17.535 -21.199  0.00  0.00    +0.018 C 
ATOM     23  C   UNL     1      34.981 -17.165 -23.505  0.00  0.00    +0.018 C 
ATOM     24  C   UNL     1      34.569 -18.890 -21.432  0.00  0.00    +0.099 C 
ATOM     25  C   UNL     1      35.121 -18.537 -23.634  0.00  0.00    +0.099 C 
ENDBRANCH  19  21
ENDBRANCH  17  19
ENDBRANCH   4  17
TORSDOF 4
ENDMDL
