MODEL 1
REMARK VINA RESULT:      -8.7      0.000      0.000
REMARK  Name = 4630702
REMARK  8 active torsions:
REMARK  status: ('A' for Active; 'I' for Inactive)
REMARK    1  A    between atoms: C_1  and  C_15
REMARK    2  A    between atoms: C_2  and  O_13
REMARK    3  A    between atoms: C_4  and  N_9
REMARK    4  A    between atoms: C_5  and  N_12
REMARK    5  A    between atoms: C_15  and  C_17
REMARK    6  A    between atoms: C_17  and  C_18
REMARK    7  A    between atoms: C_18  and  C_19
REMARK    8  A    between atoms: C_19  and  C_20
REMARK                            x       y       z     vdW  Elec       q    Type
REMARK                         _______ _______ _______ _____ _____    ______ ____
ROOT
ATOM      1  C   UNL     1      34.536 -24.285 -14.350  0.00  0.00    +0.015 C 
ATOM      2  C   UNL     1      34.738 -24.103 -12.995  0.00  0.00    +0.152 C 
ATOM      3  C   UNL     1      35.342 -25.120 -15.102  0.00  0.00    +0.023 C 
ATOM      4  C   UNL     1      35.784 -24.782 -12.368  0.00  0.00    +0.178 C 
ATOM      5  C   UNL     1      36.388 -25.798 -14.476  0.00  0.00    +0.144 C 
ATOM      6  C   UNL     1      36.608 -25.629 -13.108  0.00  0.00    +0.051 C 
ENDROOT
BRANCH   4   9
ATOM      7  O   UNL     1      37.035 -23.977 -10.607  0.00  0.00    -0.126 OA
ATOM      8  O   UNL     1      35.222 -25.132 -10.159  0.00  0.00    -0.126 OA
ATOM      9  N   UNL     1      36.025 -24.622 -10.976  0.00  0.00    +0.061 N 
ENDBRANCH   4   9
BRANCH   5  12
ATOM     10  O   UNL     1      36.745 -27.263 -16.220  0.00  0.00    -0.126 OA
ATOM     11  O   UNL     1      38.423 -26.801 -14.882  0.00  0.00    -0.126 OA
ATOM     12  N   UNL     1      37.225 -26.662 -15.229  0.00  0.00    +0.058 N 
ENDBRANCH   5  12
BRANCH   2  13
ATOM     13  O   UNL     1      33.927 -23.274 -12.277  0.00  0.00    -0.504 OA
ATOM     14  H   UNL     1      33.019 -23.199 -12.498  0.00  0.00    +0.292 HD
ENDBRANCH   2  13
BRANCH   1  15
ATOM     15  C   UNL     1      33.403 -23.555 -15.051  0.00  0.00    +0.025 C 
ATOM     16  C   UNL     1      33.698 -23.418 -16.550  0.00  0.00    +0.005 C 
BRANCH  15  17
ATOM     17  C   UNL     1      32.027 -24.221 -14.834  0.00  0.00    +0.004 C 
BRANCH  17  18
ATOM     18  C   UNL     1      30.992 -23.267 -14.224  0.00  0.00    +0.000 C 
BRANCH  18  19
ATOM     19  C   UNL     1      29.942 -22.856 -15.260  0.00  0.00    +0.000 C 
BRANCH  19  20
ATOM     20  C   UNL     1      29.181 -24.041 -15.855  0.00  0.00    +0.000 C 
ATOM     21  C   UNL     1      28.195 -23.646 -16.945  0.00  0.00    +0.000 C 
ENDBRANCH  19  20
ENDBRANCH  18  19
ENDBRANCH  17  18
ENDBRANCH  15  17
ENDBRANCH   1  15
TORSDOF 8
ENDMDL
MODEL 2
REMARK VINA RESULT:      -8.4     11.247     13.400
REMARK  Name = 4630702
REMARK  8 active torsions:
REMARK  status: ('A' for Active; 'I' for Inactive)
REMARK    1  A    between atoms: C_1  and  C_15
REMARK    2  A    between atoms: C_2  and  O_13
REMARK    3  A    between atoms: C_4  and  N_9
REMARK    4  A    between atoms: C_5  and  N_12
REMARK    5  A    between atoms: C_15  and  C_17
REMARK    6  A    between atoms: C_17  and  C_18
REMARK    7  A    between atoms: C_18  and  C_19
REMARK    8  A    between atoms: C_19  and  C_20
REMARK                            x       y       z     vdW  Elec       q    Type
REMARK                         _______ _______ _______ _____ _____    ______ ____
ROOT
ATOM      1  C   UNL     1      34.564 -16.823 -23.389  0.00  0.00    +0.015 C 
ATOM      2  C   UNL     1      34.333 -16.298 -24.646  0.00  0.00    +0.152 C 
ATOM      3  C   UNL     1      34.073 -16.220 -22.245  0.00  0.00    +0.023 C 
ATOM      4  C   UNL     1      33.582 -15.128 -24.765  0.00  0.00    +0.178 C 
ATOM      5  C   UNL     1      33.323 -15.050 -22.364  0.00  0.00    +0.144 C 
ATOM      6  C   UNL     1      33.077 -14.504 -23.624  0.00  0.00    +0.051 C 
ENDROOT
BRANCH   4   9
ATOM      7  O   UNL     1      33.373 -13.310 -26.166  0.00  0.00    -0.126 OA
ATOM      8  O   UNL     1      33.049 -15.314 -27.001  0.00  0.00    -0.126 OA
ATOM      9  N   UNL     1      33.322 -14.556 -26.041  0.00  0.00    +0.061 N 
ENDBRANCH   4   9
BRANCH   5  12
ATOM     10  O   UNL     1      32.381 -13.239 -21.291  0.00  0.00    -0.126 OA
ATOM     11  O   UNL     1      32.790 -15.052 -20.121  0.00  0.00    -0.126 OA
ATOM     12  N   UNL     1      32.807 -14.416 -21.203  0.00  0.00    +0.058 N 
ENDBRANCH   5  12
BRANCH   2  13
ATOM     13  O   UNL     1      34.828 -16.914 -25.758  0.00  0.00    -0.504 OA
ATOM     14  H   UNL     1      34.252 -17.380 -26.332  0.00  0.00    +0.292 HD
ENDBRANCH   2  13
BRANCH   1  15
ATOM     15  C   UNL     1      35.379 -18.096 -23.238  0.00  0.00    +0.025 C 
ATOM     16  C   UNL     1      36.442 -17.928 -22.145  0.00  0.00    +0.005 C 
BRANCH  15  17
ATOM     17  C   UNL     1      34.511 -19.341 -22.953  0.00  0.00    +0.004 C 
BRANCH  17  18
ATOM     18  C   UNL     1      34.599 -19.810 -21.495  0.00  0.00    +0.000 C 
BRANCH  18  19
ATOM     19  C   UNL     1      33.223 -19.788 -20.824  0.00  0.00    +0.000 C 
BRANCH  19  20
ATOM     20  C   UNL     1      33.049 -20.875 -19.762  0.00  0.00    +0.000 C 
ATOM     21  C   UNL     1      34.329 -21.639 -19.458  0.00  0.00    +0.000 C 
ENDBRANCH  19  20
ENDBRANCH  18  19
ENDBRANCH  17  18
ENDBRANCH  15  17
ENDBRANCH   1  15
TORSDOF 8
ENDMDL
MODEL 3
REMARK VINA RESULT:      -8.4      2.039      4.495
REMARK  Name = 4630702
REMARK  8 active torsions:
REMARK  status: ('A' for Active; 'I' for Inactive)
REMARK    1  A    between atoms: C_1  and  C_15
REMARK    2  A    between atoms: C_2  and  O_13
REMARK    3  A    between atoms: C_4  and  N_9
REMARK    4  A    between atoms: C_5  and  N_12
REMARK    5  A    between atoms: C_15  and  C_17
REMARK    6  A    between atoms: C_17  and  C_18
REMARK    7  A    between atoms: C_18  and  C_19
REMARK    8  A    between atoms: C_19  and  C_20
REMARK                            x       y       z     vdW  Elec       q    Type
REMARK                         _______ _______ _______ _____ _____    ______ ____
ROOT
ATOM      1  C   UNL     1      35.216 -24.573 -14.081  0.00  0.00    +0.015 C 
ATOM      2  C   UNL     1      36.289 -25.320 -14.529  0.00  0.00    +0.152 C 
ATOM      3  C   UNL     1      35.144 -24.105 -12.782  0.00  0.00    +0.023 C 
ATOM      4  C   UNL     1      37.330 -25.609 -13.645  0.00  0.00    +0.178 C 
ATOM      5  C   UNL     1      36.184 -24.395 -11.898  0.00  0.00    +0.144 C 
ATOM      6  C   UNL     1      37.277 -25.146 -12.330  0.00  0.00    +0.051 C 
ENDROOT
BRANCH   4   9
ATOM      7  O   UNL     1      38.259 -27.391 -14.775  0.00  0.00    -0.126 OA
ATOM      8  O   UNL     1      39.599 -26.012 -13.715  0.00  0.00    -0.126 OA
ATOM      9  N   UNL     1      38.451 -26.375 -14.066  0.00  0.00    +0.061 N 
ENDBRANCH   4   9
BRANCH   5  12
ATOM     10  O   UNL     1      35.373 -24.494  -9.742  0.00  0.00    -0.126 OA
ATOM     11  O   UNL     1      36.847 -22.944 -10.234  0.00  0.00    -0.126 OA
ATOM     12  N   UNL     1      36.132 -23.922 -10.561  0.00  0.00    +0.058 N 
ENDBRANCH   5  12
BRANCH   2  13
ATOM     13  O   UNL     1      36.334 -25.768 -15.816  0.00  0.00    -0.504 OA
ATOM     14  H   UNL     1      35.611 -26.247 -16.172  0.00  0.00    +0.292 HD
ENDBRANCH   2  13
BRANCH   1  15
ATOM     15  C   UNL     1      34.073 -24.248 -15.027  0.00  0.00    +0.025 C 
ATOM     16  C   UNL     1      32.805 -23.898 -14.239  0.00  0.00    +0.005 C 
BRANCH  15  17
ATOM     17  C   UNL     1      34.413 -23.117 -16.023  0.00  0.00    +0.004 C 
BRANCH  17  18
ATOM     18  C   UNL     1      33.585 -23.189 -17.312  0.00  0.00    +0.000 C 
BRANCH  18  19
ATOM     19  C   UNL     1      34.267 -22.423 -18.449  0.00  0.00    +0.000 C 
BRANCH  19  20
ATOM     20  C   UNL     1      33.292 -21.616 -19.308  0.00  0.00    +0.000 C 
ATOM     21  C   UNL     1      33.973 -20.587 -20.198  0.00  0.00    +0.000 C 
ENDBRANCH  19  20
ENDBRANCH  18  19
ENDBRANCH  17  18
ENDBRANCH  15  17
ENDBRANCH   1  15
TORSDOF 8
ENDMDL
MODEL 4
REMARK VINA RESULT:      -8.2      9.303     11.541
REMARK  Name = 4630702
REMARK  8 active torsions:
REMARK  status: ('A' for Active; 'I' for Inactive)
REMARK    1  A    between atoms: C_1  and  C_15
REMARK    2  A    between atoms: C_2  and  O_13
REMARK    3  A    between atoms: C_4  and  N_9
REMARK    4  A    between atoms: C_5  and  N_12
REMARK    5  A    between atoms: C_15  and  C_17
REMARK    6  A    between atoms: C_17  and  C_18
REMARK    7  A    between atoms: C_18  and  C_19
REMARK    8  A    between atoms: C_19  and  C_20
REMARK                            x       y       z     vdW  Elec       q    Type
REMARK                         _______ _______ _______ _____ _____    ______ ____
ROOT
ATOM      1  C   UNL     1      34.985 -18.627 -21.835  0.00  0.00    +0.015 C 
ATOM      2  C   UNL     1      34.859 -18.550 -23.209  0.00  0.00    +0.152 C 
ATOM      3  C   UNL     1      34.766 -17.530 -21.020  0.00  0.00    +0.023 C 
ATOM      4  C   UNL     1      34.500 -17.334 -23.791  0.00  0.00    +0.178 C 
ATOM      5  C   UNL     1      34.408 -16.314 -21.602  0.00  0.00    +0.144 C 
ATOM      6  C   UNL     1      34.274 -16.216 -22.988  0.00  0.00    +0.051 C 
ENDROOT
BRANCH   4   9
ATOM      7  O   UNL     1      33.525 -17.939 -25.790  0.00  0.00    -0.126 OA
ATOM      8  O   UNL     1      35.079 -16.388 -25.813  0.00  0.00    -0.126 OA
ATOM      9  N   UNL     1      34.361 -17.214 -25.201  0.00  0.00    +0.061 N 
ENDBRANCH   4   9
BRANCH   5  12
ATOM     10  O   UNL     1      35.157 -14.584 -20.275  0.00  0.00    -0.126 OA
ATOM     11  O   UNL     1      32.994 -14.796 -20.596  0.00  0.00    -0.126 OA
ATOM     12  N   UNL     1      34.175 -15.177 -20.785  0.00  0.00    +0.058 N 
ENDBRANCH   5  12
BRANCH   2  13
ATOM     13  O   UNL     1      35.080 -19.648 -23.988  0.00  0.00    -0.504 OA
ATOM     14  H   UNL     1      35.168 -19.554 -24.917  0.00  0.00    +0.292 HD
ENDBRANCH   2  13
BRANCH   1  15
ATOM     15  C   UNL     1      35.374 -19.941 -21.182  0.00  0.00    +0.025 C 
ATOM     16  C   UNL     1      36.705 -19.796 -20.433  0.00  0.00    +0.005 C 
BRANCH  15  17
ATOM     17  C   UNL     1      34.286 -20.495 -20.236  0.00  0.00    +0.004 C 
BRANCH  17  18
ATOM     18  C   UNL     1      34.813 -21.585 -19.294  0.00  0.00    +0.000 C 
BRANCH  18  19
ATOM     19  C   UNL     1      33.727 -22.621 -18.988  0.00  0.00    +0.000 C 
BRANCH  19  20
ATOM     20  C   UNL     1      33.715 -23.073 -17.527  0.00  0.00    +0.000 C 
ATOM     21  C   UNL     1      32.325 -23.105 -16.911  0.00  0.00    +0.000 C 
ENDBRANCH  19  20
ENDBRANCH  18  19
ENDBRANCH  17  18
ENDBRANCH  15  17
ENDBRANCH   1  15
TORSDOF 8
ENDMDL
MODEL 5
REMARK VINA RESULT:      -8.2      1.826      2.307
REMARK  Name = 4630702
REMARK  8 active torsions:
REMARK  status: ('A' for Active; 'I' for Inactive)
REMARK    1  A    between atoms: C_1  and  C_15
REMARK    2  A    between atoms: C_2  and  O_13
REMARK    3  A    between atoms: C_4  and  N_9
REMARK    4  A    between atoms: C_5  and  N_12
REMARK    5  A    between atoms: C_15  and  C_17
REMARK    6  A    between atoms: C_17  and  C_18
REMARK    7  A    between atoms: C_18  and  C_19
REMARK    8  A    between atoms: C_19  and  C_20
REMARK                            x       y       z     vdW  Elec       q    Type
REMARK                         _______ _______ _______ _____ _____    ______ ____
ROOT
ATOM      1  C   UNL     1      36.250 -23.715 -14.390  0.00  0.00    +0.015 C 
ATOM      2  C   UNL     1      35.778 -23.776 -13.093  0.00  0.00    +0.152 C 
ATOM      3  C   UNL     1      37.474 -24.252 -14.746  0.00  0.00    +0.023 C 
ATOM      4  C   UNL     1      36.556 -24.399 -12.115  0.00  0.00    +0.178 C 
ATOM      5  C   UNL     1      38.253 -24.873 -13.769  0.00  0.00    +0.144 C 
ATOM      6  C   UNL     1      37.793 -24.947 -12.454  0.00  0.00    +0.051 C 
ENDROOT
BRANCH   4   9
ATOM      7  O   UNL     1      36.613 -23.722  -9.913  0.00  0.00    -0.126 OA
ATOM      8  O   UNL     1      35.214 -25.316 -10.480  0.00  0.00    -0.126 OA
ATOM      9  N   UNL     1      36.105 -24.483 -10.769  0.00  0.00    +0.061 N 
ENDBRANCH   4   9
BRANCH   5  12
ATOM     10  O   UNL     1      39.555 -26.613 -14.539  0.00  0.00    -0.126 OA
ATOM     11  O   UNL     1      40.544 -24.732 -13.986  0.00  0.00    -0.126 OA
ATOM     12  N   UNL     1      39.511 -25.433 -14.114  0.00  0.00    +0.058 N 
ENDBRANCH   5  12
BRANCH   2  13
ATOM     13  O   UNL     1      34.566 -23.240 -12.769  0.00  0.00    -0.504 OA
ATOM     14  H   UNL     1      34.307 -23.174 -11.870  0.00  0.00    +0.292 HD
ENDBRANCH   2  13
BRANCH   1  15
ATOM     15  C   UNL     1      35.419 -23.042 -15.467  0.00  0.00    +0.025 C 
ATOM     16  C   UNL     1      36.322 -22.477 -16.570  0.00  0.00    +0.005 C 
BRANCH  15  17
ATOM     17  C   UNL     1      34.348 -23.973 -16.077  0.00  0.00    +0.004 C 
BRANCH  17  18
ATOM     18  C   UNL     1      33.046 -23.239 -16.425  0.00  0.00    +0.000 C 
BRANCH  18  19
ATOM     19  C   UNL     1      32.100 -23.194 -15.222  0.00  0.00    +0.000 C 
BRANCH  19  20
ATOM     20  C   UNL     1      32.016 -24.522 -14.467  0.00  0.00    +0.000 C 
ATOM     21  C   UNL     1      30.590 -24.976 -14.193  0.00  0.00    +0.000 C 
ENDBRANCH  19  20
ENDBRANCH  18  19
ENDBRANCH  17  18
ENDBRANCH  15  17
ENDBRANCH   1  15
TORSDOF 8
ENDMDL
MODEL 6
REMARK VINA RESULT:      -8.1      1.989      3.664
REMARK  Name = 4630702
REMARK  8 active torsions:
REMARK  status: ('A' for Active; 'I' for Inactive)
REMARK    1  A    between atoms: C_1  and  C_15
REMARK    2  A    between atoms: C_2  and  O_13
REMARK    3  A    between atoms: C_4  and  N_9
REMARK    4  A    between atoms: C_5  and  N_12
REMARK    5  A    between atoms: C_15  and  C_17
REMARK    6  A    between atoms: C_17  and  C_18
REMARK    7  A    between atoms: C_18  and  C_19
REMARK    8  A    between atoms: C_19  and  C_20
REMARK                            x       y       z     vdW  Elec       q    Type
REMARK                         _______ _______ _______ _____ _____    ______ ____
ROOT
ATOM      1  C   UNL     1      34.136 -24.008 -14.197  0.00  0.00    +0.015 C 
ATOM      2  C   UNL     1      35.150 -23.671 -15.074  0.00  0.00    +0.152 C 
ATOM      3  C   UNL     1      34.374 -24.209 -12.849  0.00  0.00    +0.023 C 
ATOM      4  C   UNL     1      36.449 -23.528 -14.586  0.00  0.00    +0.178 C 
ATOM      5  C   UNL     1      35.673 -24.067 -12.361  0.00  0.00    +0.144 C 
ATOM      6  C   UNL     1      36.711 -23.726 -13.230  0.00  0.00    +0.051 C 
ENDROOT
BRANCH   4   9
ATOM      7  O   UNL     1      38.617 -23.778 -15.330  0.00  0.00    -0.126 OA
ATOM      8  O   UNL     1      37.336 -22.293 -16.319  0.00  0.00    -0.126 OA
ATOM      9  N   UNL     1      37.521 -23.183 -15.455  0.00  0.00    +0.061 N 
ENDBRANCH   4   9
BRANCH   5  12
ATOM     10  O   UNL     1      35.241 -25.088 -10.340  0.00  0.00    -0.126 OA
ATOM     11  O   UNL     1      36.865 -23.613 -10.441  0.00  0.00    -0.126 OA
ATOM     12  N   UNL     1      35.939 -24.265 -10.981  0.00  0.00    +0.058 N 
ENDBRANCH   5  12
BRANCH   2  13
ATOM     13  O   UNL     1      34.887 -23.478 -16.398  0.00  0.00    -0.504 OA
ATOM     14  H   UNL     1      34.348 -24.088 -16.864  0.00  0.00    +0.292 HD
ENDBRANCH   2  13
BRANCH   1  15
ATOM     15  C   UNL     1      32.715 -24.168 -14.708  0.00  0.00    +0.025 C 
ATOM     16  C   UNL     1      31.925 -25.128 -13.811  0.00  0.00    +0.005 C 
BRANCH  15  17
ATOM     17  C   UNL     1      31.965 -22.825 -14.846  0.00  0.00    +0.004 C 
BRANCH  17  18
ATOM     18  C   UNL     1      30.887 -22.853 -15.937  0.00  0.00    +0.000 C 
BRANCH  18  19
ATOM     19  C   UNL     1      29.484 -22.771 -15.328  0.00  0.00    +0.000 C 
BRANCH  19  20
ATOM     20  C   UNL     1      28.464 -23.667 -16.032  0.00  0.00    +0.000 C 
ATOM     21  C   UNL     1      27.838 -23.027 -17.262  0.00  0.00    +0.000 C 
ENDBRANCH  19  20
ENDBRANCH  18  19
ENDBRANCH  17  18
ENDBRANCH  15  17
ENDBRANCH   1  15
TORSDOF 8
ENDMDL
MODEL 7
REMARK VINA RESULT:      -7.9      1.332      3.789
REMARK  Name = 4630702
REMARK  8 active torsions:
REMARK  status: ('A' for Active; 'I' for Inactive)
REMARK    1  A    between atoms: C_1  and  C_15
REMARK    2  A    between atoms: C_2  and  O_13
REMARK    3  A    between atoms: C_4  and  N_9
REMARK    4  A    between atoms: C_5  and  N_12
REMARK    5  A    between atoms: C_15  and  C_17
REMARK    6  A    between atoms: C_17  and  C_18
REMARK    7  A    between atoms: C_18  and  C_19
REMARK    8  A    between atoms: C_19  and  C_20
REMARK                            x       y       z     vdW  Elec       q    Type
REMARK                         _______ _______ _______ _____ _____    ______ ____
ROOT
ATOM      1  C   UNL     1      34.544 -24.537 -13.855  0.00  0.00    +0.015 C 
ATOM      2  C   UNL     1      35.647 -24.876 -14.614  0.00  0.00    +0.152 C 
ATOM      3  C   UNL     1      34.654 -24.204 -12.516  0.00  0.00    +0.023 C 
ATOM      4  C   UNL     1      36.908 -24.882 -14.016  0.00  0.00    +0.178 C 
ATOM      5  C   UNL     1      35.914 -24.210 -11.917  0.00  0.00    +0.144 C 
ATOM      6  C   UNL     1      37.041 -24.549 -12.668  0.00  0.00    +0.051 C 
ENDROOT
BRANCH   4   9
ATOM      7  O   UNL     1      38.217 -26.412 -15.136  0.00  0.00    -0.126 OA
ATOM      8  O   UNL     1      38.907 -24.331 -15.024  0.00  0.00    -0.126 OA
ATOM      9  N   UNL     1      38.068 -25.225 -14.763  0.00  0.00    +0.061 N 
ENDBRANCH   4   9
BRANCH   5  12
ATOM     10  O   UNL     1      36.851 -22.959 -10.223  0.00  0.00    -0.126 OA
ATOM     11  O   UNL     1      35.364 -24.487  -9.696  0.00  0.00    -0.126 OA
ATOM     12  N   UNL     1      36.050 -23.869 -10.546  0.00  0.00    +0.058 N 
ENDBRANCH   5  12
BRANCH   2  13
ATOM     13  O   UNL     1      35.510 -25.199 -15.933  0.00  0.00    -0.504 OA
ATOM     14  H   UNL     1      34.668 -25.430 -16.274  0.00  0.00    +0.292 HD
ENDBRANCH   2  13
BRANCH   1  15
ATOM     15  C   UNL     1      33.164 -24.524 -14.488  0.00  0.00    +0.025 C 
ATOM     16  C   UNL     1      32.104 -24.983 -13.478  0.00  0.00    +0.005 C 
BRANCH  15  17
ATOM     17  C   UNL     1      32.780 -23.150 -15.079  0.00  0.00    +0.004 C 
BRANCH  17  18
ATOM     18  C   UNL     1      31.822 -23.260 -16.272  0.00  0.00    +0.000 C 
BRANCH  18  19
ATOM     19  C   UNL     1      30.407 -22.820 -15.886  0.00  0.00    +0.000 C 
BRANCH  19  20
ATOM     20  C   UNL     1      29.332 -23.846 -16.252  0.00  0.00    +0.000 C 
ATOM     21  C   UNL     1      28.961 -24.773 -15.105  0.00  0.00    +0.000 C 
ENDBRANCH  19  20
ENDBRANCH  18  19
ENDBRANCH  17  18
ENDBRANCH  15  17
ENDBRANCH   1  15
TORSDOF 8
ENDMDL
MODEL 8
REMARK VINA RESULT:      -7.9     13.467     15.287
REMARK  Name = 4630702
REMARK  8 active torsions:
REMARK  status: ('A' for Active; 'I' for Inactive)
REMARK    1  A    between atoms: C_1  and  C_15
REMARK    2  A    between atoms: C_2  and  O_13
REMARK    3  A    between atoms: C_4  and  N_9
REMARK    4  A    between atoms: C_5  and  N_12
REMARK    5  A    between atoms: C_15  and  C_17
REMARK    6  A    between atoms: C_17  and  C_18
REMARK    7  A    between atoms: C_18  and  C_19
REMARK    8  A    between atoms: C_19  and  C_20
REMARK                            x       y       z     vdW  Elec       q    Type
REMARK                         _______ _______ _______ _____ _____    ______ ____
ROOT
ATOM      1  C   UNL     1      33.286 -13.706 -23.267  0.00  0.00    +0.015 C 
ATOM      2  C   UNL     1      33.314 -14.431 -24.443  0.00  0.00    +0.152 C 
ATOM      3  C   UNL     1      33.787 -14.216 -22.083  0.00  0.00    +0.023 C 
ATOM      4  C   UNL     1      33.863 -15.714 -24.436  0.00  0.00    +0.178 C 
ATOM      5  C   UNL     1      34.335 -15.499 -22.075  0.00  0.00    +0.144 C 
ATOM      6  C   UNL     1      34.374 -16.247 -23.252  0.00  0.00    +0.051 C 
ENDROOT
BRANCH   4   9
ATOM      7  O   UNL     1      34.942 -17.161 -25.869  0.00  0.00    -0.126 OA
ATOM      8  O   UNL     1      32.919 -16.488 -26.392  0.00  0.00    -0.126 OA
ATOM      9  N   UNL     1      33.910 -16.493 -25.624  0.00  0.00    +0.061 N 
ENDBRANCH   4   9
BRANCH   5  12
ATOM     10  O   UNL     1      35.192 -17.250 -20.844  0.00  0.00    -0.126 OA
ATOM     11  O   UNL     1      34.969 -15.295 -19.868  0.00  0.00    -0.126 OA
ATOM     12  N   UNL     1      34.857 -16.041 -20.871  0.00  0.00    +0.058 N 
ENDBRANCH   5  12
BRANCH   2  13
ATOM     13  O   UNL     1      32.815 -13.902 -25.597  0.00  0.00    -0.504 OA
ATOM     14  H   UNL     1      32.993 -14.318 -26.418  0.00  0.00    +0.292 HD
ENDBRANCH   2  13
BRANCH   1  15
ATOM     15  C   UNL     1      32.693 -12.308 -23.254  0.00  0.00    +0.025 C 
ATOM     16  C   UNL     1      31.788 -12.119 -22.030  0.00  0.00    +0.005 C 
BRANCH  15  17
ATOM     17  C   UNL     1      33.762 -11.194 -23.306  0.00  0.00    +0.004 C 
BRANCH  17  18
ATOM     18  C   UNL     1      34.237 -10.889 -24.732  0.00  0.00    +0.000 C 
BRANCH  18  19
ATOM     19  C   UNL     1      35.027  -9.578 -24.782  0.00  0.00    +0.000 C 
BRANCH  19  20
ATOM     20  C   UNL     1      34.549  -8.543 -23.763  0.00  0.00    +0.000 C 
ATOM     21  C   UNL     1      34.562  -7.117 -24.292  0.00  0.00    +0.000 C 
ENDBRANCH  19  20
ENDBRANCH  18  19
ENDBRANCH  17  18
ENDBRANCH  15  17
ENDBRANCH   1  15
TORSDOF 8
ENDMDL
MODEL 9
REMARK VINA RESULT:      -7.8     11.877     14.028
REMARK  Name = 4630702
REMARK  8 active torsions:
REMARK  status: ('A' for Active; 'I' for Inactive)
REMARK    1  A    between atoms: C_1  and  C_15
REMARK    2  A    between atoms: C_2  and  O_13
REMARK    3  A    between atoms: C_4  and  N_9
REMARK    4  A    between atoms: C_5  and  N_12
REMARK    5  A    between atoms: C_15  and  C_17
REMARK    6  A    between atoms: C_17  and  C_18
REMARK    7  A    between atoms: C_18  and  C_19
REMARK    8  A    between atoms: C_19  and  C_20
REMARK                            x       y       z     vdW  Elec       q    Type
REMARK                         _______ _______ _______ _____ _____    ______ ____
ROOT
ATOM      1  C   UNL     1      34.147 -15.649 -22.864  0.00  0.00    +0.015 C 
ATOM      2  C   UNL     1      34.046 -15.671 -24.242  0.00  0.00    +0.152 C 
ATOM      3  C   UNL     1      33.550 -14.659 -22.104  0.00  0.00    +0.023 C 
ATOM      4  C   UNL     1      33.321 -14.668 -24.885  0.00  0.00    +0.178 C 
ATOM      5  C   UNL     1      32.825 -13.656 -22.748  0.00  0.00    +0.144 C 
ATOM      6  C   UNL     1      32.710 -13.661 -24.138  0.00  0.00    +0.051 C 
ENDROOT
BRANCH   4   9
ATOM      7  O   UNL     1      33.336 -13.569 -26.912  0.00  0.00    -0.126 OA
ATOM      8  O   UNL     1      32.942 -15.729 -26.897  0.00  0.00    -0.126 OA
ATOM      9  N   UNL     1      33.194 -14.655 -26.302  0.00  0.00    +0.061 N 
ENDBRANCH   4   9
BRANCH   5  12
ATOM     10  O   UNL     1      31.943 -11.535 -22.541  0.00  0.00    -0.126 OA
ATOM     11  O   UNL     1      31.926 -12.852 -20.783  0.00  0.00    -0.126 OA
ATOM     12  N   UNL     1      32.202 -12.632 -21.987  0.00  0.00    +0.058 N 
ENDBRANCH   5  12
BRANCH   2  13
ATOM     13  O   UNL     1      34.644 -16.661 -24.966  0.00  0.00    -0.504 OA
ATOM     14  H   UNL     1      35.191 -17.290 -24.538  0.00  0.00    +0.292 HD
ENDBRANCH   2  13
BRANCH   1  15
ATOM     15  C   UNL     1      34.931 -16.732 -22.145  0.00  0.00    +0.025 C 
ATOM     16  C   UNL     1      34.942 -16.475 -20.632  0.00  0.00    +0.005 C 
BRANCH  15  17
ATOM     17  C   UNL     1      34.413 -18.156 -22.442  0.00  0.00    +0.004 C 
BRANCH  17  18
ATOM     18  C   UNL     1      34.544 -19.102 -21.241  0.00  0.00    +0.000 C 
BRANCH  18  19
ATOM     19  C   UNL     1      33.219 -19.815 -20.953  0.00  0.00    +0.000 C 
BRANCH  19  20
ATOM     20  C   UNL     1      33.328 -20.876 -19.857  0.00  0.00    +0.000 C 
ATOM     21  C   UNL     1      34.748 -21.368 -19.625  0.00  0.00    +0.000 C 
ENDBRANCH  19  20
ENDBRANCH  18  19
ENDBRANCH  17  18
ENDBRANCH  15  17
ENDBRANCH   1  15
TORSDOF 8
ENDMDL
