MODEL 1
REMARK VINA RESULT:      -8.4      0.000      0.000
REMARK  Name = 4369425
REMARK  11 active torsions:
REMARK  status: ('A' for Active; 'I' for Inactive)
REMARK    1  A    between atoms: O_1  and  P_2
REMARK    2  A    between atoms: O_1  and  C_12
REMARK    3  A    between atoms: P_2  and  O_4
REMARK    4  A    between atoms: P_2  and  C_6
REMARK    5  A    between atoms: C_6  and  C_7
REMARK    6  A    between atoms: C_7  and  C_8
REMARK    7  A    between atoms: C_8  and  C_9
REMARK    8  A    between atoms: C_9  and  C_10
REMARK    9  A    between atoms: C_12  and  C_13
REMARK   10  A    between atoms: C_13  and  C_15
REMARK   11  A    between atoms: C_15  and  C_16
REMARK                            x       y       z     vdW  Elec       q    Type
REMARK                         _______ _______ _______ _____ _____    ______ ____
ROOT
ATOM      1  O   UNL     1      34.795 -14.791 -23.069  0.00  0.00    -0.294 OA
ENDROOT
BRANCH   1   2
ATOM      2  P   UNL     1      33.592 -13.906 -23.671  0.00  0.00    +0.340 P 
ATOM      3  O   UNL     1      33.019 -14.401 -24.955  0.00  0.00    -0.258 OA
BRANCH   2   4
ATOM      4  O   UNL     1      34.167 -12.402 -23.718  0.00  0.00    -0.323 OA
ATOM      5  H   UNL     1      33.662 -11.882 -24.364  0.00  0.00    +0.220 HD
ENDBRANCH   2   4
BRANCH   2   6
ATOM      6  C   UNL     1      32.369 -13.827 -22.342  0.00  0.00    +0.116 C 
BRANCH   6   7
ATOM      7  C   UNL     1      31.987 -12.407 -21.947  0.00  0.00    +0.013 C 
BRANCH   7   8
ATOM      8  C   UNL     1      31.892 -12.235 -20.430  0.00  0.00    +0.001 C 
BRANCH   8   9
ATOM      9  C   UNL     1      30.972 -11.070 -20.061  0.00  0.00    +0.000 C 
BRANCH   9  10
ATOM     10  C   UNL     1      31.723  -9.997 -19.273  0.00  0.00    +0.000 C 
ATOM     11  C   UNL     1      32.165  -8.853 -20.172  0.00  0.00    +0.000 C 
ENDBRANCH   9  10
ENDBRANCH   8   9
ENDBRANCH   7   8
ENDBRANCH   6   7
ENDBRANCH   2   6
ENDBRANCH   1   2
BRANCH   1  12
ATOM     12  C   UNL     1      34.956 -16.155 -23.415  0.00  0.00    +0.152 C 
BRANCH  12  13
ATOM     13  C   UNL     1      34.606 -17.066 -22.229  0.00  0.00    +0.035 C 
ATOM     14  C   UNL     1      34.870 -16.340 -20.906  0.00  0.00    +0.003 C 
BRANCH  13  15
ATOM     15  C   UNL     1      35.385 -18.399 -22.242  0.00  0.00    +0.029 C 
BRANCH  15  16
ATOM     16  C   UNL     1      34.831 -19.439 -21.299  0.00  0.00    -0.022 C 
ATOM     17  C   UNL     1      33.452 -19.575 -21.144  0.00  0.00    -0.004 C 
ATOM     18  C   UNL     1      35.699 -20.263 -20.582  0.00  0.00    -0.004 C 
ATOM     19  C   UNL     1      32.940 -20.536 -20.271  0.00  0.00    -0.000 C 
ATOM     20  C   UNL     1      35.187 -21.224 -19.710  0.00  0.00    -0.000 C 
ATOM     21  C   UNL     1      33.807 -21.361 -19.555  0.00  0.00    -0.000 C 
ENDBRANCH  15  16
ENDBRANCH  13  15
ENDBRANCH  12  13
ENDBRANCH   1  12
TORSDOF 11
ENDMDL
MODEL 2
REMARK VINA RESULT:      -8.3      1.110      1.969
REMARK  Name = 4369425
REMARK  11 active torsions:
REMARK  status: ('A' for Active; 'I' for Inactive)
REMARK    1  A    between atoms: O_1  and  P_2
REMARK    2  A    between atoms: O_1  and  C_12
REMARK    3  A    between atoms: P_2  and  O_4
REMARK    4  A    between atoms: P_2  and  C_6
REMARK    5  A    between atoms: C_6  and  C_7
REMARK    6  A    between atoms: C_7  and  C_8
REMARK    7  A    between atoms: C_8  and  C_9
REMARK    8  A    between atoms: C_9  and  C_10
REMARK    9  A    between atoms: C_12  and  C_13
REMARK   10  A    between atoms: C_13  and  C_15
REMARK   11  A    between atoms: C_15  and  C_16
REMARK                            x       y       z     vdW  Elec       q    Type
REMARK                         _______ _______ _______ _____ _____    ______ ____
ROOT
ATOM      1  O   UNL     1      34.115 -16.327 -23.659  0.00  0.00    -0.294 OA
ENDROOT
BRANCH   1   2
ATOM      2  P   UNL     1      33.614 -14.809 -23.461  0.00  0.00    +0.340 P 
ATOM      3  O   UNL     1      32.982 -14.187 -24.658  0.00  0.00    -0.258 OA
BRANCH   2   4
ATOM      4  O   UNL     1      34.895 -14.022 -22.881  0.00  0.00    -0.323 OA
ATOM      5  H   UNL     1      35.694 -14.554 -23.025  0.00  0.00    +0.220 HD
ENDBRANCH   2   4
BRANCH   2   6
ATOM      6  C   UNL     1      32.503 -14.873 -22.036  0.00  0.00    +0.116 C 
BRANCH   6   7
ATOM      7  C   UNL     1      33.121 -14.329 -20.755  0.00  0.00    +0.013 C 
BRANCH   7   8
ATOM      8  C   UNL     1      32.316 -13.163 -20.176  0.00  0.00    +0.001 C 
BRANCH   8   9
ATOM      9  C   UNL     1      31.714 -12.301 -21.287  0.00  0.00    +0.000 C 
BRANCH   9  10
ATOM     10  C   UNL     1      31.275 -10.936 -20.755  0.00  0.00    +0.000 C 
ATOM     11  C   UNL     1      31.339 -10.883 -19.237  0.00  0.00    +0.000 C 
ENDBRANCH   9  10
ENDBRANCH   8   9
ENDBRANCH   7   8
ENDBRANCH   6   7
ENDBRANCH   2   6
ENDBRANCH   1   2
BRANCH   1  12
ATOM     12  C   UNL     1      35.304 -16.799 -23.052  0.00  0.00    +0.152 C 
BRANCH  12  13
ATOM     13  C   UNL     1      35.179 -18.286 -22.685  0.00  0.00    +0.035 C 
ATOM     14  C   UNL     1      34.869 -19.116 -23.936  0.00  0.00    +0.003 C 
BRANCH  13  15
ATOM     15  C   UNL     1      34.099 -18.554 -21.615  0.00  0.00    +0.029 C 
BRANCH  15  16
ATOM     16  C   UNL     1      34.369 -19.774 -20.769  0.00  0.00    -0.022 C 
ATOM     17  C   UNL     1      35.681 -20.192 -20.548  0.00  0.00    -0.004 C 
ATOM     18  C   UNL     1      33.307 -20.482 -20.207  0.00  0.00    -0.004 C 
ATOM     19  C   UNL     1      35.931 -21.320 -19.765  0.00  0.00    -0.000 C 
ATOM     20  C   UNL     1      33.557 -21.609 -19.424  0.00  0.00    -0.000 C 
ATOM     21  C   UNL     1      34.869 -22.028 -19.202  0.00  0.00    -0.000 C 
ENDBRANCH  15  16
ENDBRANCH  13  15
ENDBRANCH  12  13
ENDBRANCH   1  12
TORSDOF 11
ENDMDL
MODEL 3
REMARK VINA RESULT:      -8.3      1.696      2.564
REMARK  Name = 4369425
REMARK  11 active torsions:
REMARK  status: ('A' for Active; 'I' for Inactive)
REMARK    1  A    between atoms: O_1  and  P_2
REMARK    2  A    between atoms: O_1  and  C_12
REMARK    3  A    between atoms: P_2  and  O_4
REMARK    4  A    between atoms: P_2  and  C_6
REMARK    5  A    between atoms: C_6  and  C_7
REMARK    6  A    between atoms: C_7  and  C_8
REMARK    7  A    between atoms: C_8  and  C_9
REMARK    8  A    between atoms: C_9  and  C_10
REMARK    9  A    between atoms: C_12  and  C_13
REMARK   10  A    between atoms: C_13  and  C_15
REMARK   11  A    between atoms: C_15  and  C_16
REMARK                            x       y       z     vdW  Elec       q    Type
REMARK                         _______ _______ _______ _____ _____    ______ ____
ROOT
ATOM      1  O   UNL     1      34.190 -16.486 -22.492  0.00  0.00    -0.294 OA
ENDROOT
BRANCH   1   2
ATOM      2  P   UNL     1      33.826 -15.567 -21.220  0.00  0.00    +0.340 P 
ATOM      3  O   UNL     1      34.887 -15.478 -20.177  0.00  0.00    -0.258 OA
BRANCH   2   4
ATOM      4  O   UNL     1      32.406 -16.122 -20.701  0.00  0.00    -0.323 OA
ATOM      5  H   UNL     1      31.770 -15.391 -20.655  0.00  0.00    +0.220 HD
ENDBRANCH   2   4
BRANCH   2   6
ATOM      6  C   UNL     1      33.396 -13.958 -21.922  0.00  0.00    +0.116 C 
BRANCH   6   7
ATOM      7  C   UNL     1      32.243 -13.268 -21.206  0.00  0.00    +0.013 C 
BRANCH   7   8
ATOM      8  C   UNL     1      31.726 -12.053 -21.981  0.00  0.00    +0.001 C 
BRANCH   8   9
ATOM      9  C   UNL     1      30.769 -11.219 -21.128  0.00  0.00    +0.000 C 
BRANCH   9  10
ATOM     10  C   UNL     1      31.281 -11.078 -19.694  0.00  0.00    +0.000 C 
ATOM     11  C   UNL     1      31.986  -9.748 -19.483  0.00  0.00    +0.000 C 
ENDBRANCH   9  10
ENDBRANCH   8   9
ENDBRANCH   7   8
ENDBRANCH   6   7
ENDBRANCH   2   6
ENDBRANCH   1   2
BRANCH   1  12
ATOM     12  C   UNL     1      35.403 -17.213 -22.557  0.00  0.00    +0.152 C 
BRANCH  12  13
ATOM     13  C   UNL     1      35.135 -18.726 -22.567  0.00  0.00    +0.035 C 
ATOM     14  C   UNL     1      34.875 -19.210 -23.997  0.00  0.00    +0.003 C 
BRANCH  13  15
ATOM     15  C   UNL     1      33.947 -19.134 -21.668  0.00  0.00    +0.029 C 
BRANCH  15  16
ATOM     16  C   UNL     1      34.282 -20.209 -20.664  0.00  0.00    -0.022 C 
ATOM     17  C   UNL     1      35.615 -20.514 -20.389  0.00  0.00    -0.004 C 
ATOM     18  C   UNL     1      33.260 -20.897 -20.011  0.00  0.00    -0.004 C 
ATOM     19  C   UNL     1      35.925 -21.508 -19.460  0.00  0.00    -0.000 C 
ATOM     20  C   UNL     1      33.570 -21.890 -19.082  0.00  0.00    -0.000 C 
ATOM     21  C   UNL     1      34.903 -22.196 -18.806  0.00  0.00    -0.000 C 
ENDBRANCH  15  16
ENDBRANCH  13  15
ENDBRANCH  12  13
ENDBRANCH   1  12
TORSDOF 11
ENDMDL
MODEL 4
REMARK VINA RESULT:      -8.3      2.624      3.320
REMARK  Name = 4369425
REMARK  11 active torsions:
REMARK  status: ('A' for Active; 'I' for Inactive)
REMARK    1  A    between atoms: O_1  and  P_2
REMARK    2  A    between atoms: O_1  and  C_12
REMARK    3  A    between atoms: P_2  and  O_4
REMARK    4  A    between atoms: P_2  and  C_6
REMARK    5  A    between atoms: C_6  and  C_7
REMARK    6  A    between atoms: C_7  and  C_8
REMARK    7  A    between atoms: C_8  and  C_9
REMARK    8  A    between atoms: C_9  and  C_10
REMARK    9  A    between atoms: C_12  and  C_13
REMARK   10  A    between atoms: C_13  and  C_15
REMARK   11  A    between atoms: C_15  and  C_16
REMARK                            x       y       z     vdW  Elec       q    Type
REMARK                         _______ _______ _______ _____ _____    ______ ____
ROOT
ATOM      1  O   UNL     1      34.231 -16.375 -22.673  0.00  0.00    -0.294 OA
ENDROOT
BRANCH   1   2
ATOM      2  P   UNL     1      33.868 -15.207 -21.624  0.00  0.00    +0.340 P 
ATOM      3  O   UNL     1      34.702 -15.180 -20.390  0.00  0.00    -0.258 OA
BRANCH   2   4
ATOM      4  O   UNL     1      32.284 -15.356 -21.371  0.00  0.00    -0.323 OA
ATOM      5  H   UNL     1      32.132 -15.889 -20.574  0.00  0.00    +0.220 HD
ENDBRANCH   2   4
BRANCH   2   6
ATOM      6  C   UNL     1      33.980 -13.677 -22.580  0.00  0.00    +0.116 C 
BRANCH   6   7
ATOM      7  C   UNL     1      33.594 -13.842 -24.043  0.00  0.00    +0.013 C 
BRANCH   7   8
ATOM      8  C   UNL     1      33.769 -12.545 -24.837  0.00  0.00    +0.001 C 
BRANCH   8   9
ATOM      9  C   UNL     1      33.645 -11.320 -23.929  0.00  0.00    +0.000 C 
BRANCH   9  10
ATOM     10  C   UNL     1      34.557 -10.186 -24.398  0.00  0.00    +0.000 C 
ATOM     11  C   UNL     1      35.225 -10.520 -25.722  0.00  0.00    +0.000 C 
ENDBRANCH   9  10
ENDBRANCH   8   9
ENDBRANCH   7   8
ENDBRANCH   6   7
ENDBRANCH   2   6
ENDBRANCH   1   2
BRANCH   1  12
ATOM     12  C   UNL     1      35.419 -17.135 -22.552  0.00  0.00    +0.152 C 
BRANCH  12  13
ATOM     13  C   UNL     1      35.113 -18.640 -22.597  0.00  0.00    +0.035 C 
ATOM     14  C   UNL     1      34.808 -19.076 -24.034  0.00  0.00    +0.003 C 
BRANCH  13  15
ATOM     15  C   UNL     1      33.938 -19.044 -21.681  0.00  0.00    +0.029 C 
BRANCH  15  16
ATOM     16  C   UNL     1      34.280 -20.133 -20.694  0.00  0.00    -0.022 C 
ATOM     17  C   UNL     1      33.262 -20.824 -20.037  0.00  0.00    -0.004 C 
ATOM     18  C   UNL     1      35.615 -20.449 -20.439  0.00  0.00    -0.004 C 
ATOM     19  C   UNL     1      33.579 -21.830 -19.124  0.00  0.00    -0.000 C 
ATOM     20  C   UNL     1      35.931 -21.455 -19.527  0.00  0.00    -0.000 C 
ATOM     21  C   UNL     1      34.913 -22.147 -18.869  0.00  0.00    -0.000 C 
ENDBRANCH  15  16
ENDBRANCH  13  15
ENDBRANCH  12  13
ENDBRANCH   1  12
TORSDOF 11
ENDMDL
MODEL 5
REMARK VINA RESULT:      -8.0      2.267      2.924
REMARK  Name = 4369425
REMARK  11 active torsions:
REMARK  status: ('A' for Active; 'I' for Inactive)
REMARK    1  A    between atoms: O_1  and  P_2
REMARK    2  A    between atoms: O_1  and  C_12
REMARK    3  A    between atoms: P_2  and  O_4
REMARK    4  A    between atoms: P_2  and  C_6
REMARK    5  A    between atoms: C_6  and  C_7
REMARK    6  A    between atoms: C_7  and  C_8
REMARK    7  A    between atoms: C_8  and  C_9
REMARK    8  A    between atoms: C_9  and  C_10
REMARK    9  A    between atoms: C_12  and  C_13
REMARK   10  A    between atoms: C_13  and  C_15
REMARK   11  A    between atoms: C_15  and  C_16
REMARK                            x       y       z     vdW  Elec       q    Type
REMARK                         _______ _______ _______ _____ _____    ______ ____
ROOT
ATOM      1  O   UNL     1      34.788 -14.826 -23.138  0.00  0.00    -0.294 OA
ENDROOT
BRANCH   1   2
ATOM      2  P   UNL     1      33.363 -14.191 -23.536  0.00  0.00    +0.340 P 
ATOM      3  O   UNL     1      32.241 -14.516 -22.610  0.00  0.00    -0.258 OA
BRANCH   2   4
ATOM      4  O   UNL     1      33.128 -14.628 -25.069  0.00  0.00    -0.323 OA
ATOM      5  H   UNL     1      32.475 -15.345 -25.105  0.00  0.00    +0.220 HD
ENDBRANCH   2   4
BRANCH   2   6
ATOM      6  C   UNL     1      33.670 -12.415 -23.668  0.00  0.00    +0.116 C 
BRANCH   6   7
ATOM      7  C   UNL     1      33.903 -11.940 -25.096  0.00  0.00    +0.013 C 
BRANCH   7   8
ATOM      8  C   UNL     1      34.710 -10.640 -25.148  0.00  0.00    +0.001 C 
BRANCH   8   9
ATOM      9  C   UNL     1      34.492  -9.803 -23.886  0.00  0.00    +0.000 C 
BRANCH   9  10
ATOM     10  C   UNL     1      34.880  -8.342 -24.115  0.00  0.00    +0.000 C 
ATOM     11  C   UNL     1      33.807  -7.394 -23.606  0.00  0.00    +0.000 C 
ENDBRANCH   9  10
ENDBRANCH   8   9
ENDBRANCH   7   8
ENDBRANCH   6   7
ENDBRANCH   2   6
ENDBRANCH   1   2
BRANCH   1  12
ATOM     12  C   UNL     1      35.107 -16.173 -23.435  0.00  0.00    +0.152 C 
BRANCH  12  13
ATOM     13  C   UNL     1      34.674 -17.104 -22.291  0.00  0.00    +0.035 C 
ATOM     14  C   UNL     1      35.006 -16.469 -20.936  0.00  0.00    +0.003 C 
BRANCH  13  15
ATOM     15  C   UNL     1      35.326 -18.501 -22.371  0.00  0.00    +0.029 C 
BRANCH  15  16
ATOM     16  C   UNL     1      34.783 -19.486 -21.365  0.00  0.00    -0.022 C 
ATOM     17  C   UNL     1      35.657 -20.282 -20.627  0.00  0.00    -0.004 C 
ATOM     18  C   UNL     1      33.406 -19.599 -21.172  0.00  0.00    -0.004 C 
ATOM     19  C   UNL     1      35.155 -21.193 -19.696  0.00  0.00    -0.000 C 
ATOM     20  C   UNL     1      32.903 -20.508 -20.242  0.00  0.00    -0.000 C 
ATOM     21  C   UNL     1      33.779 -21.305 -19.503  0.00  0.00    -0.000 C 
ENDBRANCH  15  16
ENDBRANCH  13  15
ENDBRANCH  12  13
ENDBRANCH   1  12
TORSDOF 11
ENDMDL
MODEL 6
REMARK VINA RESULT:      -7.8      5.553      9.565
REMARK  Name = 4369425
REMARK  11 active torsions:
REMARK  status: ('A' for Active; 'I' for Inactive)
REMARK    1  A    between atoms: O_1  and  P_2
REMARK    2  A    between atoms: O_1  and  C_12
REMARK    3  A    between atoms: P_2  and  O_4
REMARK    4  A    between atoms: P_2  and  C_6
REMARK    5  A    between atoms: C_6  and  C_7
REMARK    6  A    between atoms: C_7  and  C_8
REMARK    7  A    between atoms: C_8  and  C_9
REMARK    8  A    between atoms: C_9  and  C_10
REMARK    9  A    between atoms: C_12  and  C_13
REMARK   10  A    between atoms: C_13  and  C_15
REMARK   11  A    between atoms: C_15  and  C_16
REMARK                            x       y       z     vdW  Elec       q    Type
REMARK                         _______ _______ _______ _____ _____    ______ ____
ROOT
ATOM      1  O   UNL     1      33.748 -21.509 -19.088  0.00  0.00    -0.294 OA
ENDROOT
BRANCH   1   2
ATOM      2  P   UNL     1      33.939 -22.826 -18.181  0.00  0.00    +0.340 P 
ATOM      3  O   UNL     1      35.132 -22.816 -17.289  0.00  0.00    -0.258 OA
BRANCH   2   4
ATOM      4  O   UNL     1      33.875 -24.057 -19.219  0.00  0.00    -0.323 OA
ATOM      5  H   UNL     1      33.533 -24.844 -18.766  0.00  0.00    +0.220 HD
ENDBRANCH   2   4
BRANCH   2   6
ATOM      6  C   UNL     1      32.385 -22.987 -17.272  0.00  0.00    +0.116 C 
BRANCH   6   7
ATOM      7  C   UNL     1      32.567 -23.411 -15.821  0.00  0.00    +0.013 C 
BRANCH   7   8
ATOM      8  C   UNL     1      31.348 -23.068 -14.961  0.00  0.00    +0.001 C 
BRANCH   8   9
ATOM      9  C   UNL     1      31.006 -24.213 -14.005  0.00  0.00    +0.000 C 
BRANCH   9  10
ATOM     10  C   UNL     1      29.990 -25.171 -14.628  0.00  0.00    +0.000 C 
ATOM     11  C   UNL     1      29.013 -24.437 -15.532  0.00  0.00    +0.000 C 
ENDBRANCH   9  10
ENDBRANCH   8   9
ENDBRANCH   7   8
ENDBRANCH   6   7
ENDBRANCH   2   6
ENDBRANCH   1   2
BRANCH   1  12
ATOM     12  C   UNL     1      34.827 -20.949 -19.815  0.00  0.00    +0.152 C 
BRANCH  12  13
ATOM     13  C   UNL     1      34.343 -19.806 -20.720  0.00  0.00    +0.035 C 
ATOM     14  C   UNL     1      32.815 -19.829 -20.833  0.00  0.00    +0.003 C 
BRANCH  13  15
ATOM     15  C   UNL     1      34.959 -19.855 -22.135  0.00  0.00    +0.029 C 
BRANCH  15  16
ATOM     16  C   UNL     1      34.877 -18.546 -22.882  0.00  0.00    -0.022 C 
ATOM     17  C   UNL     1      34.640 -18.541 -24.256  0.00  0.00    -0.004 C 
ATOM     18  C   UNL     1      35.038 -17.341 -22.198  0.00  0.00    -0.004 C 
ATOM     19  C   UNL     1      34.564 -17.331 -24.947  0.00  0.00    -0.000 C 
ATOM     20  C   UNL     1      34.962 -16.132 -22.888  0.00  0.00    -0.000 C 
ATOM     21  C   UNL     1      34.724 -16.127 -24.263  0.00  0.00    -0.000 C 
ENDBRANCH  15  16
ENDBRANCH  13  15
ENDBRANCH  12  13
ENDBRANCH   1  12
TORSDOF 11
ENDMDL
MODEL 7
REMARK VINA RESULT:      -7.8      7.444     11.586
REMARK  Name = 4369425
REMARK  11 active torsions:
REMARK  status: ('A' for Active; 'I' for Inactive)
REMARK    1  A    between atoms: O_1  and  P_2
REMARK    2  A    between atoms: O_1  and  C_12
REMARK    3  A    between atoms: P_2  and  O_4
REMARK    4  A    between atoms: P_2  and  C_6
REMARK    5  A    between atoms: C_6  and  C_7
REMARK    6  A    between atoms: C_7  and  C_8
REMARK    7  A    between atoms: C_8  and  C_9
REMARK    8  A    between atoms: C_9  and  C_10
REMARK    9  A    between atoms: C_12  and  C_13
REMARK   10  A    between atoms: C_13  and  C_15
REMARK   11  A    between atoms: C_15  and  C_16
REMARK                            x       y       z     vdW  Elec       q    Type
REMARK                         _______ _______ _______ _____ _____    ______ ____
ROOT
ATOM      1  O   UNL     1      35.483 -22.997 -16.366  0.00  0.00    -0.294 OA
ENDROOT
BRANCH   1   2
ATOM      2  P   UNL     1      36.639 -23.557 -15.394  0.00  0.00    +0.340 P 
ATOM      3  O   UNL     1      37.975 -22.919 -15.562  0.00  0.00    -0.258 OA
BRANCH   2   4
ATOM      4  O   UNL     1      36.616 -25.154 -15.600  0.00  0.00    -0.323 OA
ATOM      5  H   UNL     1      35.994 -25.553 -14.971  0.00  0.00    +0.220 HD
ENDBRANCH   2   4
BRANCH   2   6
ATOM      6  C   UNL     1      35.972 -23.358 -13.725  0.00  0.00    +0.116 C 
BRANCH   6   7
ATOM      7  C   UNL     1      36.124 -24.598 -12.856  0.00  0.00    +0.013 C 
BRANCH   7   8
ATOM      8  C   UNL     1      37.140 -24.394 -11.730  0.00  0.00    +0.001 C 
BRANCH   8   9
ATOM      9  C   UNL     1      38.573 -24.428 -12.265  0.00  0.00    +0.000 C 
BRANCH   9  10
ATOM     10  C   UNL     1      38.838 -25.704 -13.063  0.00  0.00    +0.000 C 
ATOM     11  C   UNL     1      39.967 -25.512 -14.062  0.00  0.00    +0.000 C 
ENDBRANCH   9  10
ENDBRANCH   8   9
ENDBRANCH   7   8
ENDBRANCH   6   7
ENDBRANCH   2   6
ENDBRANCH   1   2
BRANCH   1  12
ATOM     12  C   UNL     1      34.165 -23.513 -16.322  0.00  0.00    +0.152 C 
BRANCH  12  13
ATOM     13  C   UNL     1      33.238 -22.729 -17.263  0.00  0.00    +0.035 C 
ATOM     14  C   UNL     1      31.772 -23.071 -16.972  0.00  0.00    +0.003 C 
BRANCH  13  15
ATOM     15  C   UNL     1      33.534 -22.989 -18.756  0.00  0.00    +0.029 C 
BRANCH  15  16
ATOM     16  C   UNL     1      34.043 -21.777 -19.497  0.00  0.00    -0.022 C 
ATOM     17  C   UNL     1      33.141 -20.876 -20.062  0.00  0.00    -0.004 C 
ATOM     18  C   UNL     1      35.415 -21.559 -19.617  0.00  0.00    -0.004 C 
ATOM     19  C   UNL     1      33.612 -19.756 -20.748  0.00  0.00    -0.000 C 
ATOM     20  C   UNL     1      35.886 -20.439 -20.302  0.00  0.00    -0.000 C 
ATOM     21  C   UNL     1      34.984 -19.536 -20.867  0.00  0.00    -0.000 C 
ENDBRANCH  15  16
ENDBRANCH  13  15
ENDBRANCH  12  13
ENDBRANCH   1  12
TORSDOF 11
ENDMDL
MODEL 8
REMARK VINA RESULT:      -7.8      1.658      2.241
REMARK  Name = 4369425
REMARK  11 active torsions:
REMARK  status: ('A' for Active; 'I' for Inactive)
REMARK    1  A    between atoms: O_1  and  P_2
REMARK    2  A    between atoms: O_1  and  C_12
REMARK    3  A    between atoms: P_2  and  O_4
REMARK    4  A    between atoms: P_2  and  C_6
REMARK    5  A    between atoms: C_6  and  C_7
REMARK    6  A    between atoms: C_7  and  C_8
REMARK    7  A    between atoms: C_8  and  C_9
REMARK    8  A    between atoms: C_9  and  C_10
REMARK    9  A    between atoms: C_12  and  C_13
REMARK   10  A    between atoms: C_13  and  C_15
REMARK   11  A    between atoms: C_15  and  C_16
REMARK                            x       y       z     vdW  Elec       q    Type
REMARK                         _______ _______ _______ _____ _____    ______ ____
ROOT
ATOM      1  O   UNL     1      33.857 -17.310 -23.585  0.00  0.00    -0.294 OA
ENDROOT
BRANCH   1   2
ATOM      2  P   UNL     1      34.355 -16.142 -24.575  0.00  0.00    +0.340 P 
ATOM      3  O   UNL     1      34.264 -16.459 -26.029  0.00  0.00    -0.258 OA
BRANCH   2   4
ATOM      4  O   UNL     1      35.830 -15.758 -24.054  0.00  0.00    -0.323 OA
ATOM      5  H   UNL     1      36.483 -15.976 -24.738  0.00  0.00    +0.220 HD
ENDBRANCH   2   4
BRANCH   2   6
ATOM      6  C   UNL     1      33.376 -14.695 -24.111  0.00  0.00    +0.116 C 
BRANCH   6   7
ATOM      7  C   UNL     1      33.650 -14.201 -22.697  0.00  0.00    +0.013 C 
BRANCH   7   8
ATOM      8  C   UNL     1      32.425 -14.336 -21.790  0.00  0.00    +0.001 C 
BRANCH   8   9
ATOM      9  C   UNL     1      32.435 -13.278 -20.685  0.00  0.00    +0.000 C 
BRANCH   9  10
ATOM     10  C   UNL     1      31.601 -12.058 -21.077  0.00  0.00    +0.000 C 
ATOM     11  C   UNL     1      31.313 -11.171 -19.876  0.00  0.00    +0.000 C 
ENDBRANCH   9  10
ENDBRANCH   8   9
ENDBRANCH   7   8
ENDBRANCH   6   7
ENDBRANCH   2   6
ENDBRANCH   1   2
BRANCH   1  12
ATOM     12  C   UNL     1      34.722 -18.355 -23.178  0.00  0.00    +0.152 C 
BRANCH  12  13
ATOM     13  C   UNL     1      34.710 -18.513 -21.650  0.00  0.00    +0.035 C 
ATOM     14  C   UNL     1      34.971 -17.162 -20.975  0.00  0.00    +0.003 C 
BRANCH  13  15
ATOM     15  C   UNL     1      35.741 -19.544 -21.142  0.00  0.00    +0.029 C 
BRANCH  15  16
ATOM     16  C   UNL     1      35.170 -20.554 -20.178  0.00  0.00    -0.022 C 
ATOM     17  C   UNL     1      33.794 -20.779 -20.139  0.00  0.00    -0.004 C 
ATOM     18  C   UNL     1      36.017 -21.264 -19.327  0.00  0.00    -0.004 C 
ATOM     19  C   UNL     1      33.265 -21.714 -19.247  0.00  0.00    -0.000 C 
ATOM     20  C   UNL     1      35.489 -22.198 -18.436  0.00  0.00    -0.000 C 
ATOM     21  C   UNL     1      34.113 -22.423 -18.397  0.00  0.00    -0.000 C 
ENDBRANCH  15  16
ENDBRANCH  13  15
ENDBRANCH  12  13
ENDBRANCH   1  12
TORSDOF 11
ENDMDL
MODEL 9
REMARK VINA RESULT:      -7.8      7.521     10.854
REMARK  Name = 4369425
REMARK  11 active torsions:
REMARK  status: ('A' for Active; 'I' for Inactive)
REMARK    1  A    between atoms: O_1  and  P_2
REMARK    2  A    between atoms: O_1  and  C_12
REMARK    3  A    between atoms: P_2  and  O_4
REMARK    4  A    between atoms: P_2  and  C_6
REMARK    5  A    between atoms: C_6  and  C_7
REMARK    6  A    between atoms: C_7  and  C_8
REMARK    7  A    between atoms: C_8  and  C_9
REMARK    8  A    between atoms: C_9  and  C_10
REMARK    9  A    between atoms: C_12  and  C_13
REMARK   10  A    between atoms: C_13  and  C_15
REMARK   11  A    between atoms: C_15  and  C_16
REMARK                            x       y       z     vdW  Elec       q    Type
REMARK                         _______ _______ _______ _____ _____    ______ ____
ROOT
ATOM      1  O   UNL     1      34.946 -24.210 -16.103  0.00  0.00    -0.294 OA
ENDROOT
BRANCH   1   2
ATOM      2  P   UNL     1      35.773 -24.791 -14.849  0.00  0.00    +0.340 P 
ATOM      3  O   UNL     1      37.169 -24.286 -14.719  0.00  0.00    -0.258 OA
BRANCH   2   4
ATOM      4  O   UNL     1      35.637 -26.392 -14.969  0.00  0.00    -0.323 OA
ATOM      5  H   UNL     1      35.369 -26.760 -14.112  0.00  0.00    +0.220 HD
ENDBRANCH   2   4
BRANCH   2   6
ATOM      6  C   UNL     1      34.752 -24.409 -13.407  0.00  0.00    +0.116 C 
BRANCH   6   7
ATOM      7  C   UNL     1      33.371 -23.876 -13.760  0.00  0.00    +0.013 C 
BRANCH   7   8
ATOM      8  C   UNL     1      32.321 -24.988 -13.824  0.00  0.00    +0.001 C 
BRANCH   8   9
ATOM      9  C   UNL     1      30.905 -24.420 -13.718  0.00  0.00    +0.000 C 
BRANCH   9  10
ATOM     10  C   UNL     1      30.822 -23.019 -14.324  0.00  0.00    +0.000 C 
ATOM     11  C   UNL     1      29.783 -22.952 -15.432  0.00  0.00    +0.000 C 
ENDBRANCH   9  10
ENDBRANCH   8   9
ENDBRANCH   7   8
ENDBRANCH   6   7
ENDBRANCH   2   6
ENDBRANCH   1   2
BRANCH   1  12
ATOM     12  C   UNL     1      35.300 -22.985 -16.718  0.00  0.00    +0.152 C 
BRANCH  12  13
ATOM     13  C   UNL     1      34.179 -22.495 -17.648  0.00  0.00    +0.035 C 
ATOM     14  C   UNL     1      32.903 -23.312 -17.417  0.00  0.00    +0.003 C 
BRANCH  13  15
ATOM     15  C   UNL     1      34.562 -22.563 -19.142  0.00  0.00    +0.029 C 
BRANCH  15  16
ATOM     16  C   UNL     1      34.402 -21.253 -19.873  0.00  0.00    -0.022 C 
ATOM     17  C   UNL     1      35.526 -20.572 -20.337  0.00  0.00    -0.004 C 
ATOM     18  C   UNL     1      33.129 -20.724 -20.085  0.00  0.00    -0.004 C 
ATOM     19  C   UNL     1      35.378 -19.360 -21.013  0.00  0.00    -0.000 C 
ATOM     20  C   UNL     1      32.980 -19.513 -20.761  0.00  0.00    -0.000 C 
ATOM     21  C   UNL     1      34.105 -18.831 -21.226  0.00  0.00    -0.000 C 
ENDBRANCH  15  16
ENDBRANCH  13  15
ENDBRANCH  12  13
ENDBRANCH   1  12
TORSDOF 11
ENDMDL
