MODEL 1
REMARK VINA RESULT:     -11.0      0.000      0.000
REMARK  Name = 10174090
REMARK  8 active torsions:
REMARK  status: ('A' for Active; 'I' for Inactive)
REMARK    1  A    between atoms: C_1  and  C_5
REMARK    2  A    between atoms: C_1  and  O_20
REMARK    3  A    between atoms: C_1  and  C_22
REMARK    4  A    between atoms: N_4  and  C_7
REMARK    5  A    between atoms: C_9  and  C_16
REMARK    6  A    between atoms: C_11  and  N_19
REMARK    7  A    between atoms: C_22  and  O_23
REMARK    8  A    between atoms: O_23  and  C_29
REMARK                            x       y       z     vdW  Elec       q    Type
REMARK                         _______ _______ _______ _____ _____    ______ ____
ROOT
ATOM      1  C   UNL     1      34.854 -17.165 -22.506  0.00  0.00    +0.197 C 
ATOM      2  C   UNL     1      34.363 -17.424 -23.932  0.00  0.00    +0.043 C 
ENDROOT
BRANCH   1   5
ATOM      3  O   UNL     1      35.014 -15.273 -21.020  0.00  0.00    -0.272 OA
ATOM      4  N   UNL     1      33.852 -15.002 -23.034  0.00  0.00    -0.282 N 
ATOM      5  C   UNL     1      34.590 -15.706 -22.089  0.00  0.00    +0.254 C 
ATOM      6  H   UNL     1      33.590 -15.501 -23.841  0.00  0.00    +0.155 HD
BRANCH   4   7
ATOM      7  C   UNL     1      33.435 -13.649 -22.972  0.00  0.00    +0.050 C 
ATOM      8  C   UNL     1      32.655 -13.230 -21.908  0.00  0.00    +0.020 C 
ATOM      9  C   UNL     1      32.243 -11.898 -21.848  0.00  0.00    +0.095 C 
ATOM     10  C   UNL     1      33.817 -12.777 -23.977  0.00  0.00    +0.016 C 
ATOM     11  C   UNL     1      32.619 -11.006 -22.852  0.00  0.00    +0.147 C 
ATOM     12  C   UNL     1      33.406 -11.446 -23.917  0.00  0.00    +0.025 C 
BRANCH   9  16
ATOM     13  F   UNL     1      31.716 -10.217 -20.229  0.00  0.00    -0.166 F 
ATOM     14  F   UNL     1      30.068 -11.408 -20.982  0.00  0.00    -0.166 F 
ATOM     15  F   UNL     1      31.513 -12.293 -19.620  0.00  0.00    -0.166 F 
ATOM     16  C   UNL     1      31.400 -11.460 -20.693  0.00  0.00    +0.420 C 
ENDBRANCH   9  16
BRANCH  11  19
ATOM     17  O   UNL     1      31.042  -9.352 -23.158  0.00  0.00    -0.126 OA
ATOM     18  O   UNL     1      33.031  -8.778 -22.427  0.00  0.00    -0.126 OA
ATOM     19  N   UNL     1      32.210  -9.644 -22.811  0.00  0.00    +0.058 N 
ENDBRANCH  11  19
ENDBRANCH   4   7
ENDBRANCH   1   5
BRANCH   1  20
ATOM     20  O   UNL     1      36.268 -17.368 -22.489  0.00  0.00    -0.375 OA
ATOM     21  H   UNL     1      36.480 -18.115 -21.907  0.00  0.00    +0.211 HD
ENDBRANCH   1  20
BRANCH   1  22
ATOM     22  C   UNL     1      34.239 -18.177 -21.530  0.00  0.00    +0.241 C 
BRANCH  22  23
ATOM     23  O   UNL     1      34.765 -19.482 -21.750  0.00  0.00    -0.468 OA
BRANCH  23  29
ATOM     24  F   UNL     1      32.425 -20.503 -20.726  0.00  0.00    -0.198 F 
ATOM     25  F   UNL     1      37.155 -20.178 -20.578  0.00  0.00    -0.198 F 
ATOM     26  F   UNL     1      37.200 -21.859 -18.429  0.00  0.00    -0.199 F 
ATOM     27  F   UNL     1      32.478 -22.183 -18.575  0.00  0.00    -0.199 F 
ATOM     28  F   UNL     1      34.863 -22.863 -17.425  0.00  0.00    -0.199 F 
ATOM     29  C   UNL     1      34.790 -20.325 -20.672  0.00  0.00    +0.198 A 
ATOM     30  C   UNL     1      33.597 -20.832 -20.166  0.00  0.00    +0.206 A 
ATOM     31  C   UNL     1      36.007 -20.667 -20.091  0.00  0.00    +0.206 A 
ATOM     32  C   UNL     1      36.031 -21.525 -18.992  0.00  0.00    +0.200 A 
ATOM     33  C   UNL     1      33.622 -21.691 -19.067  0.00  0.00    +0.200 A 
ATOM     34  C   UNL     1      34.839 -22.037 -18.480  0.00  0.00    +0.199 A 
ENDBRANCH  23  29
ENDBRANCH  22  23
ENDBRANCH   1  22
TORSDOF 8
ENDMDL
MODEL 2
REMARK VINA RESULT:     -10.9      0.090      1.883
REMARK  Name = 10174090
REMARK  8 active torsions:
REMARK  status: ('A' for Active; 'I' for Inactive)
REMARK    1  A    between atoms: C_1  and  C_5
REMARK    2  A    between atoms: C_1  and  O_20
REMARK    3  A    between atoms: C_1  and  C_22
REMARK    4  A    between atoms: N_4  and  C_7
REMARK    5  A    between atoms: C_9  and  C_16
REMARK    6  A    between atoms: C_11  and  N_19
REMARK    7  A    between atoms: C_22  and  O_23
REMARK    8  A    between atoms: O_23  and  C_29
REMARK                            x       y       z     vdW  Elec       q    Type
REMARK                         _______ _______ _______ _____ _____    ______ ____
ROOT
ATOM      1  C   UNL     1      34.841 -17.174 -22.586  0.00  0.00    +0.197 C 
ATOM      2  C   UNL     1      34.423 -17.404 -24.040  0.00  0.00    +0.043 C 
ENDROOT
BRANCH   1   5
ATOM      3  O   UNL     1      34.945 -15.307 -21.064  0.00  0.00    -0.272 OA
ATOM      4  N   UNL     1      33.873 -14.997 -23.123  0.00  0.00    -0.282 N 
ATOM      5  C   UNL     1      34.566 -15.720 -22.158  0.00  0.00    +0.254 C 
ATOM      6  H   UNL     1      33.644 -15.482 -23.948  0.00  0.00    +0.155 HD
BRANCH   4   7
ATOM      7  C   UNL     1      33.460 -13.644 -23.057  0.00  0.00    +0.050 C 
ATOM      8  C   UNL     1      32.689 -13.223 -21.987  0.00  0.00    +0.020 C 
ATOM      9  C   UNL     1      32.281 -11.890 -21.923  0.00  0.00    +0.095 C 
ATOM     10  C   UNL     1      33.837 -12.772 -24.064  0.00  0.00    +0.016 C 
ATOM     11  C   UNL     1      32.652 -10.998 -22.930  0.00  0.00    +0.147 C 
ATOM     12  C   UNL     1      33.430 -11.440 -24.000  0.00  0.00    +0.025 C 
BRANCH   9  16
ATOM     13  F   UNL     1      31.766 -10.206 -20.304  0.00  0.00    -0.166 F 
ATOM     14  F   UNL     1      30.112 -11.400 -21.040  0.00  0.00    -0.166 F 
ATOM     15  F   UNL     1      31.570 -12.282 -19.688  0.00  0.00    -0.166 F 
ATOM     16  C   UNL     1      31.447 -11.451 -20.762  0.00  0.00    +0.420 C 
ENDBRANCH   9  16
BRANCH  11  19
ATOM     17  O   UNL     1      31.082  -9.338 -23.240  0.00  0.00    -0.126 OA
ATOM     18  O   UNL     1      33.067  -8.774 -22.490  0.00  0.00    -0.126 OA
ATOM     19  N   UNL     1      32.247  -9.636 -22.885  0.00  0.00    +0.058 N 
ENDBRANCH  11  19
ENDBRANCH   4   7
ENDBRANCH   1   5
BRANCH   1  20
ATOM     20  O   UNL     1      36.250 -17.388 -22.499  0.00  0.00    -0.375 OA
ATOM     21  H   UNL     1      36.549 -17.209 -21.594  0.00  0.00    +0.211 HD
ENDBRANCH   1  20
BRANCH   1  22
ATOM     22  C   UNL     1      34.169 -18.198 -21.663  0.00  0.00    +0.241 C 
BRANCH  22  23
ATOM     23  O   UNL     1      34.721 -19.497 -21.854  0.00  0.00    -0.468 OA
BRANCH  23  29
ATOM     24  F   UNL     1      37.122 -20.123 -20.665  0.00  0.00    -0.198 F 
ATOM     25  F   UNL     1      32.398 -20.539 -20.810  0.00  0.00    -0.198 F 
ATOM     26  F   UNL     1      32.478 -22.171 -18.624  0.00  0.00    -0.199 F 
ATOM     27  F   UNL     1      37.194 -21.757 -18.480  0.00  0.00    -0.199 F 
ATOM     28  F   UNL     1      34.874 -22.782 -17.457  0.00  0.00    -0.199 F 
ATOM     29  C   UNL     1      34.759 -20.316 -20.758  0.00  0.00    +0.198 A 
ATOM     30  C   UNL     1      35.981 -20.623 -20.169  0.00  0.00    +0.206 A 
ATOM     31  C   UNL     1      33.576 -20.835 -20.242  0.00  0.00    +0.206 A 
ATOM     32  C   UNL     1      33.615 -21.669 -19.126  0.00  0.00    +0.200 A 
ATOM     33  C   UNL     1      36.021 -21.457 -19.052  0.00  0.00    +0.200 A 
ATOM     34  C   UNL     1      34.837 -21.981 -18.531  0.00  0.00    +0.199 A 
ENDBRANCH  23  29
ENDBRANCH  22  23
ENDBRANCH   1  22
TORSDOF 8
ENDMDL
MODEL 3
REMARK VINA RESULT:     -10.8      1.664      2.216
REMARK  Name = 10174090
REMARK  8 active torsions:
REMARK  status: ('A' for Active; 'I' for Inactive)
REMARK    1  A    between atoms: C_1  and  C_5
REMARK    2  A    between atoms: C_1  and  O_20
REMARK    3  A    between atoms: C_1  and  C_22
REMARK    4  A    between atoms: N_4  and  C_7
REMARK    5  A    between atoms: C_9  and  C_16
REMARK    6  A    between atoms: C_11  and  N_19
REMARK    7  A    between atoms: C_22  and  O_23
REMARK    8  A    between atoms: O_23  and  C_29
REMARK                            x       y       z     vdW  Elec       q    Type
REMARK                         _______ _______ _______ _____ _____    ______ ____
ROOT
ATOM      1  C   UNL     1      34.934 -17.553 -22.550  0.00  0.00    +0.197 C 
ATOM      2  C   UNL     1      34.541 -17.706 -24.021  0.00  0.00    +0.043 C 
ENDROOT
BRANCH   1   5
ATOM      3  O   UNL     1      35.075 -15.736 -20.972  0.00  0.00    -0.272 OA
ATOM      4  N   UNL     1      33.803 -15.419 -22.912  0.00  0.00    -0.282 N 
ATOM      5  C   UNL     1      34.620 -16.133 -22.042  0.00  0.00    +0.254 C 
ATOM      6  H   UNL     1      33.526 -15.887 -23.731  0.00  0.00    +0.155 HD
BRANCH   4   7
ATOM      7  C   UNL     1      33.325 -14.095 -22.756  0.00  0.00    +0.050 C 
ATOM      8  C   UNL     1      33.837 -13.092 -23.562  0.00  0.00    +0.020 C 
ATOM      9  C   UNL     1      33.368 -11.787 -23.408  0.00  0.00    +0.095 C 
ATOM     10  C   UNL     1      32.356 -13.832 -21.803  0.00  0.00    +0.016 C 
ATOM     11  C   UNL     1      32.392 -11.505 -22.452  0.00  0.00    +0.147 C 
ATOM     12  C   UNL     1      31.886 -12.528 -21.649  0.00  0.00    +0.025 C 
BRANCH   9  16
ATOM     13  F   UNL     1      32.977  -9.978 -24.925  0.00  0.00    -0.166 F 
ATOM     14  F   UNL     1      34.693  -9.805 -23.610  0.00  0.00    -0.166 F 
ATOM     15  F   UNL     1      34.734 -11.212 -25.267  0.00  0.00    -0.166 F 
ATOM     16  C   UNL     1      33.931 -10.714 -24.284  0.00  0.00    +0.420 C 
ENDBRANCH   9  16
BRANCH  11  19
ATOM     17  O   UNL     1      32.494  -9.413 -21.488  0.00  0.00    -0.126 OA
ATOM     18  O   UNL     1      30.883  -9.826 -22.921  0.00  0.00    -0.126 OA
ATOM     19  N   UNL     1      31.898 -10.183 -22.278  0.00  0.00    +0.058 N 
ENDBRANCH  11  19
ENDBRANCH   4   7
ENDBRANCH   1   5
BRANCH   1  20
ATOM     20  O   UNL     1      36.346 -17.742 -22.455  0.00  0.00    -0.375 OA
ATOM     21  H   UNL     1      36.670 -18.169 -23.263  0.00  0.00    +0.211 HD
ENDBRANCH   1  20
BRANCH   1  22
ATOM     22  C   UNL     1      34.272 -18.643 -21.698  0.00  0.00    +0.241 C 
BRANCH  22  23
ATOM     23  O   UNL     1      35.054 -19.834 -21.696  0.00  0.00    -0.468 OA
BRANCH  23  29
ATOM     24  F   UNL     1      32.653 -20.764 -20.726  0.00  0.00    -0.198 F 
ATOM     25  F   UNL     1      37.372 -20.453 -20.349  0.00  0.00    -0.198 F 
ATOM     26  F   UNL     1      37.288 -21.969 -18.082  0.00  0.00    -0.199 F 
ATOM     27  F   UNL     1      32.577 -22.280 -18.457  0.00  0.00    -0.199 F 
ATOM     28  F   UNL     1      34.892 -22.884 -17.133  0.00  0.00    -0.199 F 
ATOM     29  C   UNL     1      35.014 -20.594 -20.558  0.00  0.00    +0.198 A 
ATOM     30  C   UNL     1      33.792 -21.057 -20.081  0.00  0.00    +0.206 A 
ATOM     31  C   UNL     1      36.195 -20.898 -19.889  0.00  0.00    +0.206 A 
ATOM     32  C   UNL     1      36.153 -21.673 -18.730  0.00  0.00    +0.200 A 
ATOM     33  C   UNL     1      33.750 -21.831 -18.922  0.00  0.00    +0.200 A 
ATOM     34  C   UNL     1      34.931 -22.139 -18.246  0.00  0.00    +0.199 A 
ENDBRANCH  23  29
ENDBRANCH  22  23
ENDBRANCH   1  22
TORSDOF 8
ENDMDL
MODEL 4
REMARK VINA RESULT:     -10.8      1.716      2.866
REMARK  Name = 10174090
REMARK  8 active torsions:
REMARK  status: ('A' for Active; 'I' for Inactive)
REMARK    1  A    between atoms: C_1  and  C_5
REMARK    2  A    between atoms: C_1  and  O_20
REMARK    3  A    between atoms: C_1  and  C_22
REMARK    4  A    between atoms: N_4  and  C_7
REMARK    5  A    between atoms: C_9  and  C_16
REMARK    6  A    between atoms: C_11  and  N_19
REMARK    7  A    between atoms: C_22  and  O_23
REMARK    8  A    between atoms: O_23  and  C_29
REMARK                            x       y       z     vdW  Elec       q    Type
REMARK                         _______ _______ _______ _____ _____    ______ ____
ROOT
ATOM      1  C   UNL     1      34.883 -17.593 -22.265  0.00  0.00    +0.197 C 
ATOM      2  C   UNL     1      34.569 -17.791 -23.750  0.00  0.00    +0.043 C 
ENDROOT
BRANCH   1   5
ATOM      3  O   UNL     1      34.945 -15.732 -20.734  0.00  0.00    -0.272 OA
ATOM      4  N   UNL     1      33.811 -15.456 -22.764  0.00  0.00    -0.282 N 
ATOM      5  C   UNL     1      34.557 -16.155 -21.821  0.00  0.00    +0.254 C 
ATOM      6  H   UNL     1      33.583 -15.945 -23.587  0.00  0.00    +0.155 HD
BRANCH   4   7
ATOM      7  C   UNL     1      33.344 -14.122 -22.680  0.00  0.00    +0.050 C 
ATOM      8  C   UNL     1      33.839 -13.175 -23.560  0.00  0.00    +0.020 C 
ATOM      9  C   UNL     1      33.380 -11.860 -23.477  0.00  0.00    +0.095 C 
ATOM     10  C   UNL     1      32.403 -13.794 -21.719  0.00  0.00    +0.016 C 
ATOM     11  C   UNL     1      32.432 -11.512 -22.514  0.00  0.00    +0.147 C 
ATOM     12  C   UNL     1      31.943 -12.480 -21.636  0.00  0.00    +0.025 C 
BRANCH   9  16
ATOM     13  F   UNL     1      34.532 -11.401 -25.523  0.00  0.00    -0.166 F 
ATOM     14  F   UNL     1      32.972 -10.012 -24.941  0.00  0.00    -0.166 F 
ATOM     15  F   UNL     1      34.859 -10.038 -23.861  0.00  0.00    -0.166 F 
ATOM     16  C   UNL     1      33.924 -10.848 -24.434  0.00  0.00    +0.420 C 
ENDBRANCH   9  16
BRANCH  11  19
ATOM     17  O   UNL     1      30.817  -9.906 -22.875  0.00  0.00    -0.126 OA
ATOM     18  O   UNL     1      32.671  -9.315 -21.859  0.00  0.00    -0.126 OA
ATOM     19  N   UNL     1      31.949 -10.178 -22.411  0.00  0.00    +0.058 N 
ENDBRANCH  11  19
ENDBRANCH   4   7
ENDBRANCH   1   5
BRANCH   1  20
ATOM     20  O   UNL     1      36.286 -17.791 -22.087  0.00  0.00    -0.375 OA
ATOM     21  H   UNL     1      36.766 -17.014 -22.415  0.00  0.00    +0.211 HD
ENDBRANCH   1  20
BRANCH   1  22
ATOM     22  C   UNL     1      34.165 -18.649 -21.416  0.00  0.00    +0.241 C 
BRANCH  22  23
ATOM     23  O   UNL     1      34.801 -19.917 -21.534  0.00  0.00    -0.468 OA
BRANCH  23  29
ATOM     24  F   UNL     1      37.195 -20.357 -20.249  0.00  0.00    -0.198 F 
ATOM     25  F   UNL     1      32.509 -21.047 -20.515  0.00  0.00    -0.198 F 
ATOM     26  F   UNL     1      32.611 -22.582 -18.260  0.00  0.00    -0.199 F 
ATOM     27  F   UNL     1      37.289 -21.893 -17.996  0.00  0.00    -0.199 F 
ATOM     28  F   UNL     1      34.999 -23.007 -16.999  0.00  0.00    -0.199 F 
ATOM     29  C   UNL     1      34.850 -20.688 -20.403  0.00  0.00    +0.198 A 
ATOM     30  C   UNL     1      36.069 -20.900 -19.766  0.00  0.00    +0.206 A 
ATOM     31  C   UNL     1      33.682 -21.252 -19.901  0.00  0.00    +0.206 A 
ATOM     32  C   UNL     1      33.733 -22.037 -18.749  0.00  0.00    +0.200 A 
ATOM     33  C   UNL     1      36.120 -21.685 -18.614  0.00  0.00    +0.200 A 
ATOM     34  C   UNL     1      34.951 -22.254 -18.106  0.00  0.00    +0.199 A 
ENDBRANCH  23  29
ENDBRANCH  22  23
ENDBRANCH   1  22
TORSDOF 8
ENDMDL
MODEL 5
REMARK VINA RESULT:     -10.7      2.787     10.042
REMARK  Name = 10174090
REMARK  8 active torsions:
REMARK  status: ('A' for Active; 'I' for Inactive)
REMARK    1  A    between atoms: C_1  and  C_5
REMARK    2  A    between atoms: C_1  and  O_20
REMARK    3  A    between atoms: C_1  and  C_22
REMARK    4  A    between atoms: N_4  and  C_7
REMARK    5  A    between atoms: C_9  and  C_16
REMARK    6  A    between atoms: C_11  and  N_19
REMARK    7  A    between atoms: C_22  and  O_23
REMARK    8  A    between atoms: O_23  and  C_29
REMARK                            x       y       z     vdW  Elec       q    Type
REMARK                         _______ _______ _______ _____ _____    ______ ____
ROOT
ATOM      1  C   UNL     1      33.456 -14.393 -23.370  0.00  0.00    +0.197 C 
ATOM      2  C   UNL     1      33.451 -15.070 -24.743  0.00  0.00    +0.043 C 
ENDROOT
BRANCH   1   5
ATOM      3  O   UNL     1      34.447 -14.864 -21.224  0.00  0.00    -0.272 OA
ATOM      4  N   UNL     1      34.148 -16.642 -22.717  0.00  0.00    -0.282 N 
ATOM      5  C   UNL     1      34.076 -15.316 -22.304  0.00  0.00    +0.254 C 
ATOM      6  H   UNL     1      33.804 -16.836 -23.618  0.00  0.00    +0.155 HD
BRANCH   4   7
ATOM      7  C   UNL     1      34.658 -17.746 -21.991  0.00  0.00    +0.050 C 
ATOM      8  C   UNL     1      33.775 -18.607 -21.362  0.00  0.00    +0.020 C 
ATOM      9  C   UNL     1      34.277 -19.695 -20.646  0.00  0.00    +0.095 C 
ATOM     10  C   UNL     1      36.027 -17.940 -21.926  0.00  0.00    +0.016 C 
ATOM     11  C   UNL     1      35.654 -19.904 -20.570  0.00  0.00    +0.147 C 
ATOM     12  C   UNL     1      36.528 -19.027 -21.211  0.00  0.00    +0.025 C 
BRANCH   9  16
ATOM     13  F   UNL     1      32.978 -21.703 -20.726  0.00  0.00    -0.166 F 
ATOM     14  F   UNL     1      33.778 -21.125 -18.795  0.00  0.00    -0.166 F 
ATOM     15  F   UNL     1      32.132 -20.003 -19.667  0.00  0.00    -0.166 F 
ATOM     16  C   UNL     1      33.311 -20.616 -19.971  0.00  0.00    +0.420 C 
ENDBRANCH   9  16
BRANCH  11  19
ATOM     17  O   UNL     1      36.663 -20.806 -18.703  0.00  0.00    -0.126 OA
ATOM     18  O   UNL     1      36.165 -22.144 -20.371  0.00  0.00    -0.126 OA
ATOM     19  N   UNL     1      36.187 -21.006 -19.846  0.00  0.00    +0.058 N 
ENDBRANCH  11  19
ENDBRANCH   4   7
ENDBRANCH   1   5
BRANCH   1  20
ATOM     20  O   UNL     1      32.098 -14.156 -22.997  0.00  0.00    -0.375 OA
ATOM     21  H   UNL     1      31.842 -13.258 -23.261  0.00  0.00    +0.211 HD
ENDBRANCH   1  20
BRANCH   1  22
ATOM     22  C   UNL     1      34.151 -13.028 -23.444  0.00  0.00    +0.241 C 
BRANCH  22  23
ATOM     23  O   UNL     1      33.350 -12.085 -24.150  0.00  0.00    -0.468 OA
BRANCH  23  29
ATOM     24  F   UNL     1      31.491 -11.313 -22.273  0.00  0.00    -0.198 F 
ATOM     25  F   UNL     1      35.191 -10.247 -25.045  0.00  0.00    -0.198 F 
ATOM     26  F   UNL     1      35.170  -7.692 -24.083  0.00  0.00    -0.199 F 
ATOM     27  F   UNL     1      31.477  -8.757 -21.317  0.00  0.00    -0.199 F 
ATOM     28  F   UNL     1      33.315  -6.945 -22.219  0.00  0.00    -0.199 F 
ATOM     29  C   UNL     1      33.341 -10.803 -23.669  0.00  0.00    +0.198 A 
ATOM     30  C   UNL     1      32.394 -10.429 -22.720  0.00  0.00    +0.206 A 
ATOM     31  C   UNL     1      34.279  -9.886 -24.132  0.00  0.00    +0.206 A 
ATOM     32  C   UNL     1      34.269  -8.581 -23.641  0.00  0.00    +0.200 A 
ATOM     33  C   UNL     1      32.385  -9.124 -22.230  0.00  0.00    +0.200 A 
ATOM     34  C   UNL     1      33.323  -8.199 -22.691  0.00  0.00    +0.199 A 
ENDBRANCH  23  29
ENDBRANCH  22  23
ENDBRANCH   1  22
TORSDOF 8
ENDMDL
MODEL 6
REMARK VINA RESULT:     -10.7      2.798     10.200
REMARK  Name = 10174090
REMARK  8 active torsions:
REMARK  status: ('A' for Active; 'I' for Inactive)
REMARK    1  A    between atoms: C_1  and  C_5
REMARK    2  A    between atoms: C_1  and  O_20
REMARK    3  A    between atoms: C_1  and  C_22
REMARK    4  A    between atoms: N_4  and  C_7
REMARK    5  A    between atoms: C_9  and  C_16
REMARK    6  A    between atoms: C_11  and  N_19
REMARK    7  A    between atoms: C_22  and  O_23
REMARK    8  A    between atoms: O_23  and  C_29
REMARK                            x       y       z     vdW  Elec       q    Type
REMARK                         _______ _______ _______ _____ _____    ______ ____
ROOT
ATOM      1  C   UNL     1      33.442 -14.409 -23.304  0.00  0.00    +0.197 C 
ATOM      2  C   UNL     1      33.462 -15.068 -24.685  0.00  0.00    +0.043 C 
ENDROOT
BRANCH   1   5
ATOM      3  O   UNL     1      34.415 -14.894 -21.153  0.00  0.00    -0.272 OA
ATOM      4  N   UNL     1      34.149 -16.659 -22.669  0.00  0.00    -0.282 N 
ATOM      5  C   UNL     1      34.059 -15.338 -22.242  0.00  0.00    +0.254 C 
ATOM      6  H   UNL     1      33.816 -16.846 -23.576  0.00  0.00    +0.155 HD
BRANCH   4   7
ATOM      7  C   UNL     1      34.661 -17.766 -21.950  0.00  0.00    +0.050 C 
ATOM      8  C   UNL     1      33.780 -18.636 -21.330  0.00  0.00    +0.020 C 
ATOM      9  C   UNL     1      34.285 -19.726 -20.620  0.00  0.00    +0.095 C 
ATOM     10  C   UNL     1      36.031 -17.954 -21.883  0.00  0.00    +0.016 C 
ATOM     11  C   UNL     1      35.662 -19.931 -20.543  0.00  0.00    +0.147 C 
ATOM     12  C   UNL     1      36.535 -19.044 -21.175  0.00  0.00    +0.025 C 
BRANCH   9  16
ATOM     13  F   UNL     1      32.944 -21.704 -20.743  0.00  0.00    -0.166 F 
ATOM     14  F   UNL     1      33.813 -21.224 -18.815  0.00  0.00    -0.166 F 
ATOM     15  F   UNL     1      32.165 -20.035 -19.589  0.00  0.00    -0.166 F 
ATOM     16  C   UNL     1      33.321 -20.656 -19.955  0.00  0.00    +0.420 C 
ENDBRANCH   9  16
BRANCH  11  19
ATOM     17  O   UNL     1      36.664 -20.843 -18.677  0.00  0.00    -0.126 OA
ATOM     18  O   UNL     1      36.189 -22.168 -20.362  0.00  0.00    -0.126 OA
ATOM     19  N   UNL     1      36.199 -21.035 -19.825  0.00  0.00    +0.058 N 
ENDBRANCH  11  19
ENDBRANCH   4   7
ENDBRANCH   1   5
BRANCH   1  20
ATOM     20  O   UNL     1      32.077 -14.193 -22.945  0.00  0.00    -0.375 OA
ATOM     21  H   UNL     1      31.989 -14.216 -21.979  0.00  0.00    +0.211 HD
ENDBRANCH   1  20
BRANCH   1  22
ATOM     22  C   UNL     1      34.121 -13.034 -23.351  0.00  0.00    +0.241 C 
BRANCH  22  23
ATOM     23  O   UNL     1      33.346 -12.108 -24.106  0.00  0.00    -0.468 OA
BRANCH  23  29
ATOM     24  F   UNL     1      35.185 -10.295 -25.054  0.00  0.00    -0.198 F 
ATOM     25  F   UNL     1      31.482 -11.282 -22.257  0.00  0.00    -0.198 F 
ATOM     26  F   UNL     1      31.462  -8.698 -21.378  0.00  0.00    -0.199 F 
ATOM     27  F   UNL     1      35.159  -7.713 -24.170  0.00  0.00    -0.199 F 
ATOM     28  F   UNL     1      33.299  -6.911 -22.333  0.00  0.00    -0.199 F 
ATOM     29  C   UNL     1      33.334 -10.813 -23.663  0.00  0.00    +0.198 A 
ATOM     30  C   UNL     1      34.271  -9.908 -24.153  0.00  0.00    +0.206 A 
ATOM     31  C   UNL     1      32.385 -10.411 -22.729  0.00  0.00    +0.206 A 
ATOM     32  C   UNL     1      32.374  -9.091 -22.278  0.00  0.00    +0.200 A 
ATOM     33  C   UNL     1      34.260  -8.588 -23.703  0.00  0.00    +0.200 A 
ATOM     34  C   UNL     1      33.311  -8.180 -22.765  0.00  0.00    +0.199 A 
ENDBRANCH  23  29
ENDBRANCH  22  23
ENDBRANCH   1  22
TORSDOF 8
ENDMDL
MODEL 7
REMARK VINA RESULT:     -10.7      5.377     10.495
REMARK  Name = 10174090
REMARK  8 active torsions:
REMARK  status: ('A' for Active; 'I' for Inactive)
REMARK    1  A    between atoms: C_1  and  C_5
REMARK    2  A    between atoms: C_1  and  O_20
REMARK    3  A    between atoms: C_1  and  C_22
REMARK    4  A    between atoms: N_4  and  C_7
REMARK    5  A    between atoms: C_9  and  C_16
REMARK    6  A    between atoms: C_11  and  N_19
REMARK    7  A    between atoms: C_22  and  O_23
REMARK    8  A    between atoms: O_23  and  C_29
REMARK                            x       y       z     vdW  Elec       q    Type
REMARK                         _______ _______ _______ _____ _____    ______ ____
ROOT
ATOM      1  C   UNL     1      35.193 -21.395 -19.831  0.00  0.00    +0.197 C 
ATOM      2  C   UNL     1      36.370 -21.152 -18.884  0.00  0.00    +0.043 C 
ENDROOT
BRANCH   1   5
ATOM      3  O   UNL     1      33.016 -22.424 -19.705  0.00  0.00    -0.272 OA
ATOM      4  N   UNL     1      34.310 -22.333 -17.756  0.00  0.00    -0.282 N 
ATOM      5  C   UNL     1      34.039 -22.111 -19.102  0.00  0.00    +0.254 C 
ATOM      6  H   UNL     1      35.183 -22.017 -17.430  0.00  0.00    +0.155 HD
BRANCH   4   7
ATOM      7  C   UNL     1      33.475 -22.961 -16.799  0.00  0.00    +0.050 C 
ATOM      8  C   UNL     1      32.102 -22.815 -16.900  0.00  0.00    +0.020 C 
ATOM      9  C   UNL     1      31.280 -23.433 -15.957  0.00  0.00    +0.095 C 
ATOM     10  C   UNL     1      34.051 -23.708 -15.785  0.00  0.00    +0.016 C 
ATOM     11  C   UNL     1      31.843 -24.189 -14.929  0.00  0.00    +0.147 C 
ATOM     12  C   UNL     1      33.229 -24.326 -14.843  0.00  0.00    +0.025 C 
BRANCH   9  16
ATOM     13  F   UNL     1      29.152 -24.405 -16.458  0.00  0.00    -0.166 F 
ATOM     14  F   UNL     1      29.198 -22.884 -14.914  0.00  0.00    -0.166 F 
ATOM     15  F   UNL     1      29.454 -22.322 -16.999  0.00  0.00    -0.166 F 
ATOM     16  C   UNL     1      29.799 -23.266 -16.078  0.00  0.00    +0.420 C 
ENDBRANCH   9  16
BRANCH  11  19
ATOM     17  O   UNL     1      30.924 -24.314 -12.818  0.00  0.00    -0.126 OA
ATOM     18  O   UNL     1      30.427 -25.884 -14.269  0.00  0.00    -0.126 OA
ATOM     19  N   UNL     1      31.025 -24.827 -13.957  0.00  0.00    +0.058 N 
ENDBRANCH  11  19
ENDBRANCH   4   7
ENDBRANCH   1   5
BRANCH   1  20
ATOM     20  O   UNL     1      35.644 -22.260 -20.874  0.00  0.00    -0.375 OA
ATOM     21  H   UNL     1      36.611 -22.328 -20.841  0.00  0.00    +0.211 HD
ENDBRANCH   1  20
BRANCH   1  22
ATOM     22  C   UNL     1      34.749 -20.083 -20.490  0.00  0.00    +0.241 C 
BRANCH  22  23
ATOM     23  O   UNL     1      35.702 -19.649 -21.454  0.00  0.00    -0.468 OA
BRANCH  23  29
ATOM     24  F   UNL     1      35.495 -17.107 -20.420  0.00  0.00    -0.198 F 
ATOM     25  F   UNL     1      35.159 -20.058 -24.120  0.00  0.00    -0.198 F 
ATOM     26  F   UNL     1      34.424 -17.968 -25.715  0.00  0.00    -0.199 F 
ATOM     27  F   UNL     1      34.758 -15.023 -22.021  0.00  0.00    -0.199 F 
ATOM     28  F   UNL     1      34.223 -15.450 -24.668  0.00  0.00    -0.199 F 
ATOM     29  C   UNL     1      35.333 -18.602 -22.256  0.00  0.00    +0.198 A 
ATOM     30  C   UNL     1      35.233 -17.323 -21.717  0.00  0.00    +0.206 A 
ATOM     31  C   UNL     1      35.062 -18.826 -23.602  0.00  0.00    +0.206 A 
ATOM     32  C   UNL     1      34.686 -17.759 -24.418  0.00  0.00    +0.200 A 
ATOM     33  C   UNL     1      34.857 -16.257 -22.533  0.00  0.00    +0.200 A 
ATOM     34  C   UNL     1      34.583 -16.475 -23.884  0.00  0.00    +0.199 A 
ENDBRANCH  23  29
ENDBRANCH  22  23
ENDBRANCH   1  22
TORSDOF 8
ENDMDL
MODEL 8
REMARK VINA RESULT:     -10.7      5.391     10.446
REMARK  Name = 10174090
REMARK  8 active torsions:
REMARK  status: ('A' for Active; 'I' for Inactive)
REMARK    1  A    between atoms: C_1  and  C_5
REMARK    2  A    between atoms: C_1  and  O_20
REMARK    3  A    between atoms: C_1  and  C_22
REMARK    4  A    between atoms: N_4  and  C_7
REMARK    5  A    between atoms: C_9  and  C_16
REMARK    6  A    between atoms: C_11  and  N_19
REMARK    7  A    between atoms: C_22  and  O_23
REMARK    8  A    between atoms: O_23  and  C_29
REMARK                            x       y       z     vdW  Elec       q    Type
REMARK                         _______ _______ _______ _____ _____    ______ ____
ROOT
ATOM      1  C   UNL     1      35.195 -21.405 -19.819  0.00  0.00    +0.197 C 
ATOM      2  C   UNL     1      36.377 -21.181 -18.873  0.00  0.00    +0.043 C 
ENDROOT
BRANCH   1   5
ATOM      3  O   UNL     1      33.003 -22.401 -19.693  0.00  0.00    -0.272 OA
ATOM      4  N   UNL     1      34.308 -22.353 -17.750  0.00  0.00    -0.282 N 
ATOM      5  C   UNL     1      34.034 -22.111 -19.092  0.00  0.00    +0.254 C 
ATOM      6  H   UNL     1      35.188 -22.055 -17.425  0.00  0.00    +0.155 HD
BRANCH   4   7
ATOM      7  C   UNL     1      33.470 -22.980 -16.797  0.00  0.00    +0.050 C 
ATOM      8  C   UNL     1      32.098 -22.812 -16.888  0.00  0.00    +0.020 C 
ATOM      9  C   UNL     1      31.271 -23.428 -15.948  0.00  0.00    +0.095 C 
ATOM     10  C   UNL     1      34.039 -23.746 -15.794  0.00  0.00    +0.016 C 
ATOM     11  C   UNL     1      31.829 -24.204 -14.931  0.00  0.00    +0.147 C 
ATOM     12  C   UNL     1      33.213 -24.362 -14.855  0.00  0.00    +0.025 C 
BRANCH   9  16
ATOM     13  F   UNL     1      29.432 -22.313 -16.995  0.00  0.00    -0.166 F 
ATOM     14  F   UNL     1      29.122 -24.375 -16.401  0.00  0.00    -0.166 F 
ATOM     15  F   UNL     1      29.232 -22.816 -14.890  0.00  0.00    -0.166 F 
ATOM     16  C   UNL     1      29.792 -23.237 -16.059  0.00  0.00    +0.420 C 
ENDBRANCH   9  16
BRANCH  11  19
ATOM     17  O   UNL     1      30.417 -25.904 -14.273  0.00  0.00    -0.126 OA
ATOM     18  O   UNL     1      30.893 -24.322 -12.828  0.00  0.00    -0.126 OA
ATOM     19  N   UNL     1      31.005 -24.841 -13.963  0.00  0.00    +0.058 N 
ENDBRANCH  11  19
ENDBRANCH   4   7
ENDBRANCH   1   5
BRANCH   1  20
ATOM     20  O   UNL     1      35.634 -22.269 -20.868  0.00  0.00    -0.375 OA
ATOM     21  H   UNL     1      34.888 -22.471 -21.454  0.00  0.00    +0.211 HD
ENDBRANCH   1  20
BRANCH   1  22
ATOM     22  C   UNL     1      34.765 -20.084 -20.470  0.00  0.00    +0.241 C 
BRANCH  22  23
ATOM     23  O   UNL     1      35.708 -19.670 -21.453  0.00  0.00    -0.468 OA
BRANCH  23  29
ATOM     24  F   UNL     1      35.147 -20.085 -24.115  0.00  0.00    -0.198 F 
ATOM     25  F   UNL     1      35.517 -17.124 -20.427  0.00  0.00    -0.198 F 
ATOM     26  F   UNL     1      34.781 -15.042 -22.030  0.00  0.00    -0.199 F 
ATOM     27  F   UNL     1      34.412 -17.997 -25.712  0.00  0.00    -0.199 F 
ATOM     28  F   UNL     1      34.228 -15.475 -24.673  0.00  0.00    -0.199 F 
ATOM     29  C   UNL     1      35.339 -18.624 -22.256  0.00  0.00    +0.198 A 
ATOM     30  C   UNL     1      35.059 -18.851 -23.600  0.00  0.00    +0.206 A 
ATOM     31  C   UNL     1      35.247 -17.343 -21.722  0.00  0.00    +0.206 A 
ATOM     32  C   UNL     1      34.872 -16.278 -22.540  0.00  0.00    +0.200 A 
ATOM     33  C   UNL     1      34.683 -17.786 -24.418  0.00  0.00    +0.200 A 
ATOM     34  C   UNL     1      34.590 -16.498 -23.887  0.00  0.00    +0.199 A 
ENDBRANCH  23  29
ENDBRANCH  22  23
ENDBRANCH   1  22
TORSDOF 8
ENDMDL
MODEL 9
REMARK VINA RESULT:     -10.6      4.230     10.432
REMARK  Name = 10174090
REMARK  8 active torsions:
REMARK  status: ('A' for Active; 'I' for Inactive)
REMARK    1  A    between atoms: C_1  and  C_5
REMARK    2  A    between atoms: C_1  and  O_20
REMARK    3  A    between atoms: C_1  and  C_22
REMARK    4  A    between atoms: N_4  and  C_7
REMARK    5  A    between atoms: C_9  and  C_16
REMARK    6  A    between atoms: C_11  and  N_19
REMARK    7  A    between atoms: C_22  and  O_23
REMARK    8  A    between atoms: O_23  and  C_29
REMARK                            x       y       z     vdW  Elec       q    Type
REMARK                         _______ _______ _______ _____ _____    ______ ____
ROOT
ATOM      1  C   UNL     1      35.154 -19.021 -21.749  0.00  0.00    +0.197 C 
ATOM      2  C   UNL     1      36.671 -18.913 -21.578  0.00  0.00    +0.043 C 
ENDROOT
BRANCH   1   5
ATOM      3  O   UNL     1      33.323 -19.859 -20.424  0.00  0.00    -0.272 OA
ATOM      4  N   UNL     1      35.481 -20.621 -19.933  0.00  0.00    -0.282 N 
ATOM      5  C   UNL     1      34.534 -19.878 -20.629  0.00  0.00    +0.254 C 
ATOM      6  H   UNL     1      36.415 -20.520 -20.227  0.00  0.00    +0.155 HD
BRANCH   4   7
ATOM      7  C   UNL     1      35.259 -21.509 -18.852  0.00  0.00    +0.050 C 
ATOM      8  C   UNL     1      36.226 -21.632 -17.869  0.00  0.00    +0.020 C 
ATOM      9  C   UNL     1      36.008 -22.508 -16.804  0.00  0.00    +0.095 C 
ATOM     10  C   UNL     1      34.081 -22.234 -18.803  0.00  0.00    +0.016 C 
ATOM     11  C   UNL     1      34.826 -23.246 -16.739  0.00  0.00    +0.147 C 
ATOM     12  C   UNL     1      33.863 -23.109 -17.739  0.00  0.00    +0.025 C 
BRANCH   9  16
ATOM     13  F   UNL     1      36.564 -22.618 -14.480  0.00  0.00    -0.166 F 
ATOM     14  F   UNL     1      37.787 -23.783 -15.839  0.00  0.00    -0.166 F 
ATOM     15  F   UNL     1      37.971 -21.617 -15.801  0.00  0.00    -0.166 F 
ATOM     16  C   UNL     1      37.061 -22.631 -15.750  0.00  0.00    +0.420 C 
ENDBRANCH   9  16
BRANCH  11  19
ATOM     17  O   UNL     1      33.769 -23.812 -14.770  0.00  0.00    -0.126 OA
ATOM     18  O   UNL     1      35.189 -25.241 -15.643  0.00  0.00    -0.126 OA
ATOM     19  N   UNL     1      34.583 -24.144 -15.664  0.00  0.00    +0.058 N 
ENDBRANCH  11  19
ENDBRANCH   4   7
ENDBRANCH   1   5
BRANCH   1  20
ATOM     20  O   UNL     1      34.902 -19.684 -22.987  0.00  0.00    -0.375 OA
ATOM     21  H   UNL     1      34.804 -20.637 -22.830  0.00  0.00    +0.211 HD
ENDBRANCH   1  20
BRANCH   1  22
ATOM     22  C   UNL     1      34.521 -17.627 -21.843  0.00  0.00    +0.241 C 
BRANCH  22  23
ATOM     23  O   UNL     1      35.323 -16.755 -22.633  0.00  0.00    -0.468 OA
BRANCH  23  29
ATOM     24  F   UNL     1      34.822 -14.195 -21.756  0.00  0.00    -0.198 F 
ATOM     25  F   UNL     1      34.471 -17.501 -25.141  0.00  0.00    -0.198 F 
ATOM     26  F   UNL     1      33.148 -15.724 -26.734  0.00  0.00    -0.199 F 
ATOM     27  F   UNL     1      33.497 -12.424 -23.356  0.00  0.00    -0.199 F 
ATOM     28  F   UNL     1      32.659 -13.185 -25.845  0.00  0.00    -0.199 F 
ATOM     29  C   UNL     1      34.658 -15.865 -23.434  0.00  0.00    +0.198 A 
ATOM     30  C   UNL     1      34.413 -14.575 -22.975  0.00  0.00    +0.206 A 
ATOM     31  C   UNL     1      34.235 -16.258 -24.699  0.00  0.00    +0.206 A 
ATOM     32  C   UNL     1      33.558 -15.351 -25.514  0.00  0.00    +0.200 A 
ATOM     33  C   UNL     1      33.736 -13.668 -23.791  0.00  0.00    +0.200 A 
ATOM     34  C   UNL     1      33.308 -14.057 -25.061  0.00  0.00    +0.199 A 
ENDBRANCH  23  29
ENDBRANCH  22  23
ENDBRANCH   1  22
TORSDOF 8
ENDMDL
