MODEL 1
REMARK VINA RESULT:      -8.5      0.000      0.000
REMARK  Name = 794323
REMARK  5 active torsions:
REMARK  status: ('A' for Active; 'I' for Inactive)
REMARK    1  A    between atoms: C_4  and  C_11
REMARK    2  A    between atoms: C_5  and  C_20
REMARK    3  A    between atoms: C_14  and  O_17
REMARK    4  A    between atoms: C_20  and  O_21
REMARK    5  A    between atoms: O_21  and  C_22
REMARK                            x       y       z     vdW  Elec       q    Type
REMARK                         _______ _______ _______ _____ _____    ______ ____
ROOT
ATOM      1  S   UNL     1      31.088 -24.670 -13.505  0.00  0.00    -0.019 S 
ATOM      2  N   UNL     1      33.639 -23.927 -13.643  0.00  0.00    -0.310 N 
ATOM      3  N   UNL     1      32.405 -23.746 -15.627  0.00  0.00    -0.299 N 
ATOM      4  C   UNL     1      34.895 -23.548 -14.292  0.00  0.00    +0.123 C 
ATOM      5  C   UNL     1      34.657 -23.074 -15.709  0.00  0.00    +0.085 C 
ATOM      6  C   UNL     1      33.468 -23.208 -16.325  0.00  0.00    +0.031 C 
ATOM      7  C   UNL     1      32.443 -24.094 -14.298  0.00  0.00    +0.135 C 
ATOM      8  C   UNL     1      33.137 -22.829 -17.742  0.00  0.00    +0.047 C 
ATOM      9  H   UNL     1      33.653 -24.074 -12.670  0.00  0.00    +0.149 HD
ATOM     10  H   UNL     1      31.562 -23.892 -16.114  0.00  0.00    +0.154 HD
ENDROOT
BRANCH   4  11
ATOM     11  C   UNL     1      35.836 -24.708 -14.248  0.00  0.00    +0.003 C 
ATOM     12  C   UNL     1      35.921 -25.574 -15.336  0.00  0.00    +0.034 C 
ATOM     13  C   UNL     1      36.624 -24.919 -13.120  0.00  0.00    -0.002 C 
ATOM     14  C   UNL     1      36.800 -26.656 -15.296  0.00  0.00    +0.133 C 
ATOM     15  C   UNL     1      37.504 -26.002 -13.079  0.00  0.00    +0.003 C 
ATOM     16  C   UNL     1      37.592 -26.870 -14.168  0.00  0.00    +0.037 C 
BRANCH  14  17
ATOM     17  O   UNL     1      36.886 -27.503 -16.358  0.00  0.00    -0.506 OA
ATOM     18  H   UNL     1      37.578 -28.133 -16.399  0.00  0.00    +0.292 HD
ENDBRANCH  14  17
ENDBRANCH   4  11
BRANCH   5  20
ATOM     19  O   UNL     1      36.712 -21.893 -15.761  0.00  0.00    -0.245 OA
ATOM     20  C   UNL     1      35.799 -22.420 -16.369  0.00  0.00    +0.340 C 
BRANCH  20  21
ATOM     21  O   UNL     1      35.632 -22.521 -17.710  0.00  0.00    -0.446 OA
BRANCH  21  22
ATOM     22  C   UNL     1      36.498 -21.692 -18.493  0.00  0.00    +0.209 C 
ATOM     23  C   UNL     1      35.809 -21.355 -19.798  0.00  0.00    +0.051 C 
ENDBRANCH  21  22
ENDBRANCH  20  21
ENDBRANCH   5  20
TORSDOF 5
ENDMDL
MODEL 2
REMARK VINA RESULT:      -8.3      2.911      4.883
REMARK  Name = 794323
REMARK  5 active torsions:
REMARK  status: ('A' for Active; 'I' for Inactive)
REMARK    1  A    between atoms: C_4  and  C_11
REMARK    2  A    between atoms: C_5  and  C_20
REMARK    3  A    between atoms: C_14  and  O_17
REMARK    4  A    between atoms: C_20  and  O_21
REMARK    5  A    between atoms: O_21  and  C_22
REMARK                            x       y       z     vdW  Elec       q    Type
REMARK                         _______ _______ _______ _____ _____    ______ ____
ROOT
ATOM      1  S   UNL     1      37.121 -23.910 -13.772  0.00  0.00    -0.019 S 
ATOM      2  N   UNL     1      35.072 -24.270 -15.432  0.00  0.00    -0.310 N 
ATOM      3  N   UNL     1      36.596 -22.592 -16.026  0.00  0.00    -0.299 N 
ATOM      4  C   UNL     1      34.165 -23.952 -16.534  0.00  0.00    +0.123 C 
ATOM      5  C   UNL     1      34.787 -22.953 -17.484  0.00  0.00    +0.085 C 
ATOM      6  C   UNL     1      35.931 -22.302 -17.201  0.00  0.00    +0.031 C 
ATOM      7  C   UNL     1      36.216 -23.570 -15.137  0.00  0.00    +0.135 C 
ATOM      8  C   UNL     1      36.604 -21.253 -18.040  0.00  0.00    +0.047 C 
ATOM      9  H   UNL     1      34.846 -25.039 -14.861  0.00  0.00    +0.149 HD
ATOM     10  H   UNL     1      37.396 -22.062 -15.809  0.00  0.00    +0.154 HD
ENDROOT
BRANCH   4  11
ATOM     11  C   UNL     1      32.873 -23.450 -15.973  0.00  0.00    +0.003 C 
ATOM     12  C   UNL     1      31.796 -23.207 -16.823  0.00  0.00    +0.034 C 
ATOM     13  C   UNL     1      32.752 -23.226 -14.604  0.00  0.00    -0.002 C 
ATOM     14  C   UNL     1      30.591 -22.738 -16.300  0.00  0.00    +0.133 C 
ATOM     15  C   UNL     1      31.547 -22.757 -14.081  0.00  0.00    +0.003 C 
ATOM     16  C   UNL     1      30.466 -22.515 -14.928  0.00  0.00    +0.037 C 
BRANCH  14  17
ATOM     17  O   UNL     1      29.536 -22.502 -17.126  0.00  0.00    -0.506 OA
ATOM     18  H   UNL     1      28.877 -23.158 -17.245  0.00  0.00    +0.292 HD
ENDBRANCH  14  17
ENDBRANCH   4  11
BRANCH   5  20
ATOM     19  O   UNL     1      33.964 -23.631 -19.602  0.00  0.00    -0.245 OA
ATOM     20  C   UNL     1      34.085 -22.757 -18.764  0.00  0.00    +0.340 C 
BRANCH  20  21
ATOM     21  O   UNL     1      33.629 -21.482 -18.811  0.00  0.00    -0.446 OA
BRANCH  21  22
ATOM     22  C   UNL     1      33.220 -21.031 -20.106  0.00  0.00    +0.209 C 
ATOM     23  C   UNL     1      34.266 -20.081 -20.650  0.00  0.00    +0.051 C 
ENDBRANCH  21  22
ENDBRANCH  20  21
ENDBRANCH   5  20
TORSDOF 5
ENDMDL
MODEL 3
REMARK VINA RESULT:      -8.2     11.266     14.360
REMARK  Name = 794323
REMARK  5 active torsions:
REMARK  status: ('A' for Active; 'I' for Inactive)
REMARK    1  A    between atoms: C_4  and  C_11
REMARK    2  A    between atoms: C_5  and  C_20
REMARK    3  A    between atoms: C_14  and  O_17
REMARK    4  A    between atoms: C_20  and  O_21
REMARK    5  A    between atoms: O_21  and  C_22
REMARK                            x       y       z     vdW  Elec       q    Type
REMARK                         _______ _______ _______ _____ _____    ______ ____
ROOT
ATOM      1  S   UNL     1      30.764 -11.438 -20.552  0.00  0.00    -0.019 S 
ATOM      2  N   UNL     1      31.728 -12.489 -22.799  0.00  0.00    -0.310 N 
ATOM      3  N   UNL     1      32.676 -13.275 -20.805  0.00  0.00    -0.299 N 
ATOM      4  C   UNL     1      32.659 -13.245 -23.637  0.00  0.00    +0.123 C 
ATOM      5  C   UNL     1      33.489 -14.201 -22.808  0.00  0.00    +0.085 C 
ATOM      6  C   UNL     1      33.495 -14.172 -21.462  0.00  0.00    +0.031 C 
ATOM      7  C   UNL     1      31.776 -12.443 -21.427  0.00  0.00    +0.135 C 
ATOM      8  C   UNL     1      34.320 -15.030 -20.544  0.00  0.00    +0.047 C 
ATOM      9  H   UNL     1      31.019 -11.977 -23.250  0.00  0.00    +0.149 HD
ATOM     10  H   UNL     1      32.741 -13.227 -19.824  0.00  0.00    +0.154 HD
ENDROOT
BRANCH   4  11
ATOM     11  C   UNL     1      33.518 -12.288 -24.399  0.00  0.00    +0.003 C 
ATOM     12  C   UNL     1      34.008 -11.145 -23.771  0.00  0.00    +0.034 C 
ATOM     13  C   UNL     1      33.824 -12.542 -25.733  0.00  0.00    -0.002 C 
ATOM     14  C   UNL     1      34.810 -10.252 -24.482  0.00  0.00    +0.133 C 
ATOM     15  C   UNL     1      34.627 -11.649 -26.444  0.00  0.00    +0.003 C 
ATOM     16  C   UNL     1      35.120 -10.505 -25.818  0.00  0.00    +0.037 C 
BRANCH  14  17
ATOM     17  O   UNL     1      35.292  -9.135 -23.871  0.00  0.00    -0.506 OA
ATOM     18  H   UNL     1      36.216  -8.986 -23.830  0.00  0.00    +0.292 HD
ENDBRANCH  14  17
ENDBRANCH   4  11
BRANCH   5  20
ATOM     19  O   UNL     1      35.442 -15.433 -23.346  0.00  0.00    -0.245 OA
ATOM     20  C   UNL     1      34.267 -15.199 -23.561  0.00  0.00    +0.340 C 
BRANCH  20  21
ATOM     21  O   UNL     1      33.454 -15.766 -24.485  0.00  0.00    -0.446 OA
BRANCH  21  22
ATOM     22  C   UNL     1      34.127 -16.482 -25.526  0.00  0.00    +0.209 C 
ATOM     23  C   UNL     1      34.228 -17.941 -25.134  0.00  0.00    +0.051 C 
ENDBRANCH  21  22
ENDBRANCH  20  21
ENDBRANCH   5  20
TORSDOF 5
ENDMDL
MODEL 4
REMARK VINA RESULT:      -8.0      1.164      1.587
REMARK  Name = 794323
REMARK  5 active torsions:
REMARK  status: ('A' for Active; 'I' for Inactive)
REMARK    1  A    between atoms: C_4  and  C_11
REMARK    2  A    between atoms: C_5  and  C_20
REMARK    3  A    between atoms: C_14  and  O_17
REMARK    4  A    between atoms: C_20  and  O_21
REMARK    5  A    between atoms: O_21  and  C_22
REMARK                            x       y       z     vdW  Elec       q    Type
REMARK                         _______ _______ _______ _____ _____    ______ ____
ROOT
ATOM      1  S   UNL     1      30.946 -24.190 -13.837  0.00  0.00    -0.019 S 
ATOM      2  N   UNL     1      33.542 -23.606 -13.865  0.00  0.00    -0.310 N 
ATOM      3  N   UNL     1      32.446 -23.526 -15.935  0.00  0.00    -0.299 N 
ATOM      4  C   UNL     1      34.856 -23.354 -14.458  0.00  0.00    +0.123 C 
ATOM      5  C   UNL     1      34.735 -22.990 -15.921  0.00  0.00    +0.085 C 
ATOM      6  C   UNL     1      33.581 -23.109 -16.603  0.00  0.00    +0.031 C 
ATOM      7  C   UNL     1      32.380 -23.761 -14.583  0.00  0.00    +0.135 C 
ATOM      8  C   UNL     1      33.362 -22.834 -18.064  0.00  0.00    +0.047 C 
ATOM      9  H   UNL     1      33.486 -23.669 -12.885  0.00  0.00    +0.149 HD
ATOM     10  H   UNL     1      31.627 -23.665 -16.465  0.00  0.00    +0.154 HD
ENDROOT
BRANCH   4  11
ATOM     11  C   UNL     1      35.720 -24.557 -14.257  0.00  0.00    +0.003 C 
ATOM     12  C   UNL     1      36.417 -24.719 -13.062  0.00  0.00    +0.034 C 
ATOM     13  C   UNL     1      35.825 -25.510 -15.267  0.00  0.00    -0.002 C 
ATOM     14  C   UNL     1      37.223 -25.842 -12.875  0.00  0.00    +0.133 C 
ATOM     15  C   UNL     1      36.632 -26.634 -15.080  0.00  0.00    +0.003 C 
ATOM     16  C   UNL     1      37.330 -26.800 -13.884  0.00  0.00    +0.037 C 
BRANCH  14  17
ATOM     17  O   UNL     1      37.904 -26.004 -11.708  0.00  0.00    -0.506 OA
ATOM     18  H   UNL     1      37.452 -26.283 -10.937  0.00  0.00    +0.292 HD
ENDBRANCH  14  17
ENDBRANCH   4  11
BRANCH   5  20
ATOM     19  O   UNL     1      36.940 -22.119 -15.929  0.00  0.00    -0.245 OA
ATOM     20  C   UNL     1      35.954 -22.460 -16.556  0.00  0.00    +0.340 C 
BRANCH  20  21
ATOM     21  O   UNL     1      35.761 -22.432 -17.896  0.00  0.00    -0.446 OA
BRANCH  21  22
ATOM     22  C   UNL     1      36.576 -21.494 -18.607  0.00  0.00    +0.209 C 
ATOM     23  C   UNL     1      36.085 -21.400 -20.036  0.00  0.00    +0.051 C 
ENDBRANCH  21  22
ENDBRANCH  20  21
ENDBRANCH   5  20
TORSDOF 5
ENDMDL
MODEL 5
REMARK VINA RESULT:      -8.0     12.590     15.034
REMARK  Name = 794323
REMARK  5 active torsions:
REMARK  status: ('A' for Active; 'I' for Inactive)
REMARK    1  A    between atoms: C_4  and  C_11
REMARK    2  A    between atoms: C_5  and  C_20
REMARK    3  A    between atoms: C_14  and  O_17
REMARK    4  A    between atoms: C_20  and  O_21
REMARK    5  A    between atoms: O_21  and  C_22
REMARK                            x       y       z     vdW  Elec       q    Type
REMARK                         _______ _______ _______ _____ _____    ______ ____
ROOT
ATOM      1  S   UNL     1      32.785 -15.541 -20.804  0.00  0.00    -0.019 S 
ATOM      2  N   UNL     1      33.810 -13.807 -22.543  0.00  0.00    -0.310 N 
ATOM      3  N   UNL     1      31.914 -13.089 -21.369  0.00  0.00    -0.299 N 
ATOM      4  C   UNL     1      33.849 -12.607 -23.379  0.00  0.00    +0.123 C 
ATOM      5  C   UNL     1      32.860 -11.570 -22.895  0.00  0.00    +0.085 C 
ATOM      6  C   UNL     1      31.933 -11.839 -21.956  0.00  0.00    +0.031 C 
ATOM      7  C   UNL     1      32.834 -14.079 -21.615  0.00  0.00    +0.135 C 
ATOM      8  C   UNL     1      30.869 -10.908 -21.445  0.00  0.00    +0.047 C 
ATOM      9  H   UNL     1      34.534 -14.465 -22.653  0.00  0.00    +0.149 HD
ATOM     10  H   UNL     1      31.191 -13.284 -20.730  0.00  0.00    +0.154 HD
ENDROOT
BRANCH   4  11
ATOM     11  C   UNL     1      33.592 -12.994 -24.800  0.00  0.00    +0.003 C 
ATOM     12  C   UNL     1      33.105 -14.265 -25.095  0.00  0.00    +0.034 C 
ATOM     13  C   UNL     1      33.840 -12.082 -25.823  0.00  0.00    -0.002 C 
ATOM     14  C   UNL     1      32.865 -14.626 -26.421  0.00  0.00    +0.133 C 
ATOM     15  C   UNL     1      33.599 -12.443 -27.149  0.00  0.00    +0.003 C 
ATOM     16  C   UNL     1      33.111 -13.714 -27.448  0.00  0.00    +0.037 C 
BRANCH  14  17
ATOM     17  O   UNL     1      32.387 -15.867 -26.713  0.00  0.00    -0.506 OA
ATOM     18  H   UNL     1      32.210 -16.475 -26.023  0.00  0.00    +0.292 HD
ENDBRANCH  14  17
ENDBRANCH   4  11
BRANCH   5  20
ATOM     19  O   UNL     1      32.061  -9.624 -23.990  0.00  0.00    -0.245 OA
ATOM     20  C   UNL     1      32.991 -10.228 -23.487  0.00  0.00    +0.340 C 
BRANCH  20  21
ATOM     21  O   UNL     1      34.280  -9.831 -23.363  0.00  0.00    -0.446 OA
BRANCH  21  22
ATOM     22  C   UNL     1      34.683  -8.790 -24.259  0.00  0.00    +0.209 C 
ATOM     23  C   UNL     1      34.794  -7.492 -23.488  0.00  0.00    +0.051 C 
ENDBRANCH  21  22
ENDBRANCH  20  21
ENDBRANCH   5  20
TORSDOF 5
ENDMDL
MODEL 6
REMARK VINA RESULT:      -7.9     14.925     17.475
REMARK  Name = 794323
REMARK  5 active torsions:
REMARK  status: ('A' for Active; 'I' for Inactive)
REMARK    1  A    between atoms: C_4  and  C_11
REMARK    2  A    between atoms: C_5  and  C_20
REMARK    3  A    between atoms: C_14  and  O_17
REMARK    4  A    between atoms: C_20  and  O_21
REMARK    5  A    between atoms: O_21  and  C_22
REMARK                            x       y       z     vdW  Elec       q    Type
REMARK                         _______ _______ _______ _____ _____    ______ ____
ROOT
ATOM      1  S   UNL     1      31.125  -4.849 -24.566  0.00  0.00    -0.019 S 
ATOM      2  N   UNL     1      31.277  -7.415 -23.878  0.00  0.00    -0.310 N 
ATOM      3  N   UNL     1      31.789  -5.866 -22.196  0.00  0.00    -0.299 N 
ATOM      4  C   UNL     1      31.632  -8.564 -23.044  0.00  0.00    +0.123 C 
ATOM      5  C   UNL     1      31.890  -8.142 -21.614  0.00  0.00    +0.085 C 
ATOM      6  C   UNL     1      31.986  -6.850 -21.247  0.00  0.00    +0.031 C 
ATOM      7  C   UNL     1      31.418  -6.103 -23.498  0.00  0.00    +0.135 C 
ATOM      8  C   UNL     1      32.296  -6.322 -19.875  0.00  0.00    +0.047 C 
ATOM      9  H   UNL     1      30.913  -7.596 -24.774  0.00  0.00    +0.149 HD
ATOM     10  H   UNL     1      31.925  -4.931 -21.921  0.00  0.00    +0.154 HD
ENDROOT
BRANCH   4  11
ATOM     11  C   UNL     1      32.819  -9.251 -23.639  0.00  0.00    +0.003 C 
ATOM     12  C   UNL     1      32.741 -10.599 -23.980  0.00  0.00    +0.034 C 
ATOM     13  C   UNL     1      33.998  -8.540 -23.849  0.00  0.00    -0.002 C 
ATOM     14  C   UNL     1      33.848 -11.240 -24.536  0.00  0.00    +0.133 C 
ATOM     15  C   UNL     1      35.106  -9.181 -24.405  0.00  0.00    +0.003 C 
ATOM     16  C   UNL     1      35.030 -10.531 -24.749  0.00  0.00    +0.037 C 
BRANCH  14  17
ATOM     17  O   UNL     1      33.774 -12.557 -24.873  0.00  0.00    -0.506 OA
ATOM     18  H   UNL     1      34.155 -12.857 -25.674  0.00  0.00    +0.292 HD
ENDBRANCH  14  17
ENDBRANCH   4  11
BRANCH   5  20
ATOM     19  O   UNL     1      32.721  -9.187 -19.655  0.00  0.00    -0.245 OA
ATOM     20  C   UNL     1      31.994  -9.233 -20.630  0.00  0.00    +0.340 C 
BRANCH  20  21
ATOM     21  O   UNL     1      31.165 -10.234 -21.012  0.00  0.00    -0.446 OA
BRANCH  21  22
ATOM     22  C   UNL     1      31.223 -11.412 -20.201  0.00  0.00    +0.209 C 
ATOM     23  C   UNL     1      31.897 -12.517 -20.986  0.00  0.00    +0.051 C 
ENDBRANCH  21  22
ENDBRANCH  20  21
ENDBRANCH   5  20
TORSDOF 5
ENDMDL
MODEL 7
REMARK VINA RESULT:      -7.8     14.504     16.285
REMARK  Name = 794323
REMARK  5 active torsions:
REMARK  status: ('A' for Active; 'I' for Inactive)
REMARK    1  A    between atoms: C_4  and  C_11
REMARK    2  A    between atoms: C_5  and  C_20
REMARK    3  A    between atoms: C_14  and  O_17
REMARK    4  A    between atoms: C_20  and  O_21
REMARK    5  A    between atoms: O_21  and  C_22
REMARK                            x       y       z     vdW  Elec       q    Type
REMARK                         _______ _______ _______ _____ _____    ______ ____
ROOT
ATOM      1  S   UNL     1      33.362 -14.590 -23.832  0.00  0.00    -0.019 S 
ATOM      2  N   UNL     1      32.051 -12.357 -23.220  0.00  0.00    -0.310 N 
ATOM      3  N   UNL     1      34.176 -12.077 -24.167  0.00  0.00    -0.299 N 
ATOM      4  C   UNL     1      31.876 -10.924 -22.984  0.00  0.00    +0.123 C 
ATOM      5  C   UNL     1      32.979 -10.122 -23.639  0.00  0.00    +0.085 C 
ATOM      6  C   UNL     1      34.074 -10.699 -24.169  0.00  0.00    +0.031 C 
ATOM      7  C   UNL     1      33.191 -12.929 -23.729  0.00  0.00    +0.135 C 
ATOM      8  C   UNL     1      35.253 -10.001 -24.787  0.00  0.00    +0.047 C 
ATOM      9  H   UNL     1      31.299 -12.952 -23.000  0.00  0.00    +0.149 HD
ATOM     10  H   UNL     1      35.011 -12.475 -24.503  0.00  0.00    +0.154 HD
ENDROOT
BRANCH   4  11
ATOM     11  C   UNL     1      31.813 -10.676 -21.511  0.00  0.00    +0.003 C 
ATOM     12  C   UNL     1      31.941  -9.379 -21.020  0.00  0.00    +0.034 C 
ATOM     13  C   UNL     1      31.628 -11.744 -20.636  0.00  0.00    -0.002 C 
ATOM     14  C   UNL     1      31.883  -9.148 -19.645  0.00  0.00    +0.133 C 
ATOM     15  C   UNL     1      31.569 -11.513 -19.261  0.00  0.00    +0.003 C 
ATOM     16  C   UNL     1      31.696 -10.215 -18.766  0.00  0.00    +0.037 C 
BRANCH  14  17
ATOM     17  O   UNL     1      32.005  -7.882 -19.162  0.00  0.00    -0.506 OA
ATOM     18  H   UNL     1      31.457  -7.199 -19.494  0.00  0.00    +0.292 HD
ENDBRANCH  14  17
ENDBRANCH   4  11
BRANCH   5  20
ATOM     19  O   UNL     1      33.644  -7.854 -23.453  0.00  0.00    -0.245 OA
ATOM     20  C   UNL     1      32.770  -8.666 -23.697  0.00  0.00    +0.340 C 
BRANCH  20  21
ATOM     21  O   UNL     1      31.485  -8.433 -24.056  0.00  0.00    -0.446 OA
BRANCH  21  22
ATOM     22  C   UNL     1      31.150  -7.054 -24.247  0.00  0.00    +0.209 C 
ATOM     23  C   UNL     1      30.744  -6.457 -22.916  0.00  0.00    +0.051 C 
ENDBRANCH  21  22
ENDBRANCH  20  21
ENDBRANCH   5  20
TORSDOF 5
ENDMDL
MODEL 8
REMARK VINA RESULT:      -7.8      1.396      4.794
REMARK  Name = 794323
REMARK  5 active torsions:
REMARK  status: ('A' for Active; 'I' for Inactive)
REMARK    1  A    between atoms: C_4  and  C_11
REMARK    2  A    between atoms: C_5  and  C_20
REMARK    3  A    between atoms: C_14  and  O_17
REMARK    4  A    between atoms: C_20  and  O_21
REMARK    5  A    between atoms: O_21  and  C_22
REMARK                            x       y       z     vdW  Elec       q    Type
REMARK                         _______ _______ _______ _____ _____    ______ ____
ROOT
ATOM      1  S   UNL     1      30.863 -22.470 -14.341  0.00  0.00    -0.019 S 
ATOM      2  N   UNL     1      32.731 -23.606 -15.858  0.00  0.00    -0.310 N 
ATOM      3  N   UNL     1      33.198 -23.489 -13.565  0.00  0.00    -0.299 N 
ATOM      4  C   UNL     1      34.050 -24.150 -16.183  0.00  0.00    +0.123 C 
ATOM      5  C   UNL     1      34.818 -24.509 -14.930  0.00  0.00    +0.085 C 
ATOM      6  C   UNL     1      34.399 -24.156 -13.700  0.00  0.00    +0.031 C 
ATOM      7  C   UNL     1      32.337 -23.217 -14.601  0.00  0.00    +0.135 C 
ATOM      8  C   UNL     1      35.107 -24.407 -12.398  0.00  0.00    +0.047 C 
ATOM      9  H   UNL     1      32.082 -23.511 -16.591  0.00  0.00    +0.149 HD
ATOM     10  H   UNL     1      32.940 -23.186 -12.664  0.00  0.00    +0.154 HD
ENDROOT
BRANCH   4  11
ATOM     11  C   UNL     1      34.794 -23.159 -17.021  0.00  0.00    +0.003 C 
ATOM     12  C   UNL     1      35.892 -22.488 -16.489  0.00  0.00    +0.034 C 
ATOM     13  C   UNL     1      34.384 -22.912 -18.328  0.00  0.00    -0.002 C 
ATOM     14  C   UNL     1      36.586 -21.564 -17.270  0.00  0.00    +0.133 C 
ATOM     15  C   UNL     1      35.078 -21.988 -19.111  0.00  0.00    +0.003 C 
ATOM     16  C   UNL     1      36.180 -21.315 -18.582  0.00  0.00    +0.037 C 
BRANCH  14  17
ATOM     17  O   UNL     1      37.661 -20.907 -16.755  0.00  0.00    -0.506 OA
ATOM     18  H   UNL     1      37.810 -20.907 -15.831  0.00  0.00    +0.292 HD
ENDBRANCH  14  17
ENDBRANCH   4  11
BRANCH   5  20
ATOM     19  O   UNL     1      36.040 -26.423 -15.610  0.00  0.00    -0.245 OA
ATOM     20  C   UNL     1      36.041 -25.305 -15.129  0.00  0.00    +0.340 C 
BRANCH  20  21
ATOM     21  O   UNL     1      37.099 -24.580 -14.694  0.00  0.00    -0.446 OA
BRANCH  21  22
ATOM     22  C   UNL     1      38.328 -25.305 -14.585  0.00  0.00    +0.209 C 
ATOM     23  C   UNL     1      38.603 -25.591 -13.124  0.00  0.00    +0.051 C 
ENDBRANCH  21  22
ENDBRANCH  20  21
ENDBRANCH   5  20
TORSDOF 5
ENDMDL
MODEL 9
REMARK VINA RESULT:      -7.7      1.506      4.746
REMARK  Name = 794323
REMARK  5 active torsions:
REMARK  status: ('A' for Active; 'I' for Inactive)
REMARK    1  A    between atoms: C_4  and  C_11
REMARK    2  A    between atoms: C_5  and  C_20
REMARK    3  A    between atoms: C_14  and  O_17
REMARK    4  A    between atoms: C_20  and  O_21
REMARK    5  A    between atoms: O_21  and  C_22
REMARK                            x       y       z     vdW  Elec       q    Type
REMARK                         _______ _______ _______ _____ _____    ______ ____
ROOT
ATOM      1  S   UNL     1      31.116 -22.401 -14.252  0.00  0.00    -0.019 S 
ATOM      2  N   UNL     1      32.962 -23.520 -15.808  0.00  0.00    -0.310 N 
ATOM      3  N   UNL     1      33.389 -23.569 -13.504  0.00  0.00    -0.299 N 
ATOM      4  C   UNL     1      34.262 -24.101 -16.145  0.00  0.00    +0.123 C 
ATOM      5  C   UNL     1      34.989 -24.573 -14.905  0.00  0.00    +0.085 C 
ATOM      6  C   UNL     1      34.563 -24.280 -13.662  0.00  0.00    +0.031 C 
ATOM      7  C   UNL     1      32.561 -23.195 -14.535  0.00  0.00    +0.135 C 
ATOM      8  C   UNL     1      35.234 -24.645 -12.368  0.00  0.00    +0.047 C 
ATOM      9  H   UNL     1      32.331 -23.350 -16.544  0.00  0.00    +0.149 HD
ATOM     10  H   UNL     1      33.128 -23.313 -12.590  0.00  0.00    +0.154 HD
ENDROOT
BRANCH   4  11
ATOM     11  C   UNL     1      35.064 -23.093 -16.905  0.00  0.00    +0.003 C 
ATOM     12  C   UNL     1      34.637 -22.674 -18.164  0.00  0.00    +0.034 C 
ATOM     13  C   UNL     1      36.233 -22.579 -16.353  0.00  0.00    -0.002 C 
ATOM     14  C   UNL     1      35.385 -21.734 -18.873  0.00  0.00    +0.133 C 
ATOM     15  C   UNL     1      36.982 -21.638 -17.062  0.00  0.00    +0.003 C 
ATOM     16  C   UNL     1      36.557 -21.215 -18.321  0.00  0.00    +0.037 C 
BRANCH  14  17
ATOM     17  O   UNL     1      34.970 -21.321 -20.101  0.00  0.00    -0.506 OA
ATOM     18  H   UNL     1      35.454 -20.664 -20.562  0.00  0.00    +0.292 HD
ENDBRANCH  14  17
ENDBRANCH   4  11
BRANCH   5  20
ATOM     19  O   UNL     1      36.136 -26.505 -15.661  0.00  0.00    -0.245 OA
ATOM     20  C   UNL     1      36.180 -25.408 -15.136  0.00  0.00    +0.340 C 
BRANCH  20  21
ATOM     21  O   UNL     1      37.265 -24.743 -14.671  0.00  0.00    -0.446 OA
BRANCH  21  22
ATOM     22  C   UNL     1      38.442 -25.541 -14.509  0.00  0.00    +0.209 C 
ATOM     23  C   UNL     1      38.911 -25.442 -13.073  0.00  0.00    +0.051 C 
ENDBRANCH  21  22
ENDBRANCH  20  21
ENDBRANCH   5  20
TORSDOF 5
ENDMDL
