MODEL 1
REMARK VINA RESULT:      -7.3      0.000      0.000
REMARK  Name = 9837656
REMARK  5 active torsions:
REMARK  status: ('A' for Active; 'I' for Inactive)
REMARK    1  A    between atoms: C_3  and  C_16
REMARK    2  A    between atoms: C_7  and  C_9
REMARK    3  A    between atoms: C_9  and  C_10
REMARK    4  A    between atoms: C_10  and  C_13
REMARK    5  A    between atoms: C_16  and  O_17
REMARK                            x       y       z     vdW  Elec       q    Type
REMARK                         _______ _______ _______ _____ _____    ______ ____
ROOT
ATOM      1  O   UNL     1      35.183 -16.391 -20.128  0.00  0.00    -0.267 OA
ATOM      2  N   UNL     1      34.536 -15.852 -22.313  0.00  0.00    -0.266 N 
ATOM      3  C   UNL     1      34.101 -14.483 -22.079  0.00  0.00    +0.175 C 
ATOM      4  C   UNL     1      34.009 -13.864 -23.469  0.00  0.00    +0.033 C 
ATOM      5  C   UNL     1      33.686 -15.056 -24.368  0.00  0.00    +0.024 C 
ATOM      6  C   UNL     1      34.461 -16.198 -23.730  0.00  0.00    +0.094 C 
ATOM      7  C   UNL     1      35.095 -16.633 -21.324  0.00  0.00    +0.284 C 
ENDROOT
BRANCH   7   9
ATOM      8  O   UNL     1      36.811 -17.905 -22.174  0.00  0.00    -0.287 OA
ATOM      9  C   UNL     1      35.652 -17.928 -21.781  0.00  0.00    +0.225 C 
BRANCH   9  10
ATOM     10  C   UNL     1      34.766 -19.173 -21.698  0.00  0.00    +0.060 C 
ATOM     11  C   UNL     1      34.547 -19.729 -23.117  0.00  0.00    +0.008 C 
ATOM     12  C   UNL     1      35.511 -20.242 -20.878  0.00  0.00    +0.008 C 
BRANCH  10  13
ATOM     13  C   UNL     1      33.410 -18.862 -21.019  0.00  0.00    +0.007 C 
ATOM     14  C   UNL     1      32.718 -20.063 -20.382  0.00  0.00    +0.000 C 
ENDBRANCH  10  13
ENDBRANCH   9  10
ENDBRANCH   7   9
BRANCH   3  16
ATOM     15  O   UNL     1      32.057 -15.557 -21.315  0.00  0.00    -0.248 OA
ATOM     16  C   UNL     1      32.762 -14.555 -21.409  0.00  0.00    +0.332 C 
BRANCH  16  17
ATOM     17  O   UNL     1      32.377 -13.356 -20.890  0.00  0.00    -0.479 OA
ATOM     18  H   UNL     1      31.485 -13.080 -20.960  0.00  0.00    +0.295 HD
ENDBRANCH  16  17
ENDBRANCH   3  16
TORSDOF 5
ENDMDL
MODEL 2
REMARK VINA RESULT:      -6.8      2.118      4.839
REMARK  Name = 9837656
REMARK  5 active torsions:
REMARK  status: ('A' for Active; 'I' for Inactive)
REMARK    1  A    between atoms: C_3  and  C_16
REMARK    2  A    between atoms: C_7  and  C_9
REMARK    3  A    between atoms: C_9  and  C_10
REMARK    4  A    between atoms: C_10  and  C_13
REMARK    5  A    between atoms: C_16  and  O_17
REMARK                            x       y       z     vdW  Elec       q    Type
REMARK                         _______ _______ _______ _____ _____    ______ ____
ROOT
ATOM      1  O   UNL     1      35.214 -15.036 -23.252  0.00  0.00    -0.267 OA
ATOM      2  N   UNL     1      34.803 -17.232 -22.549  0.00  0.00    -0.266 N 
ATOM      3  C   UNL     1      35.467 -17.936 -23.636  0.00  0.00    +0.175 C 
ATOM      4  C   UNL     1      35.623 -19.365 -23.133  0.00  0.00    +0.033 C 
ATOM      5  C   UNL     1      34.444 -19.537 -22.177  0.00  0.00    +0.024 C 
ATOM      6  C   UNL     1      34.305 -18.163 -21.540  0.00  0.00    +0.094 C 
ATOM      7  C   UNL     1      34.810 -15.857 -22.440  0.00  0.00    +0.284 C 
ENDROOT
BRANCH   7   9
ATOM      8  O   UNL     1      35.017 -15.291 -20.221  0.00  0.00    -0.287 OA
ATOM      9  C   UNL     1      34.252 -15.321 -21.176  0.00  0.00    +0.225 C 
BRANCH   9  10
ATOM     10  C   UNL     1      32.803 -14.827 -21.170  0.00  0.00    +0.060 C 
ATOM     11  C   UNL     1      31.895 -15.941 -20.617  0.00  0.00    +0.008 C 
ATOM     12  C   UNL     1      32.709 -13.620 -20.220  0.00  0.00    +0.008 C 
BRANCH  10  13
ATOM     13  C   UNL     1      32.342 -14.401 -22.585  0.00  0.00    +0.007 C 
ATOM     14  C   UNL     1      32.347 -12.896 -22.838  0.00  0.00    +0.000 C 
ENDBRANCH  10  13
ENDBRANCH   9  10
ENDBRANCH   7   9
BRANCH   3  16
ATOM     15  O   UNL     1      33.663 -18.649 -25.103  0.00  0.00    -0.248 OA
ATOM     16  C   UNL     1      34.561 -17.858 -24.828  0.00  0.00    +0.332 C 
BRANCH  16  17
ATOM     17  O   UNL     1      34.834 -16.781 -25.616  0.00  0.00    -0.479 OA
ATOM     18  H   UNL     1      34.810 -15.917 -25.254  0.00  0.00    +0.295 HD
ENDBRANCH  16  17
ENDBRANCH   3  16
TORSDOF 5
ENDMDL
MODEL 3
REMARK VINA RESULT:      -6.7      9.447     10.791
REMARK  Name = 9837656
REMARK  5 active torsions:
REMARK  status: ('A' for Active; 'I' for Inactive)
REMARK    1  A    between atoms: C_3  and  C_16
REMARK    2  A    between atoms: C_7  and  C_9
REMARK    3  A    between atoms: C_9  and  C_10
REMARK    4  A    between atoms: C_10  and  C_13
REMARK    5  A    between atoms: C_16  and  O_17
REMARK                            x       y       z     vdW  Elec       q    Type
REMARK                         _______ _______ _______ _____ _____    ______ ____
ROOT
ATOM      1  O   UNL     1      34.154 -24.676 -12.718  0.00  0.00    -0.267 OA
ATOM      2  N   UNL     1      33.061 -23.903 -14.639  0.00  0.00    -0.266 N 
ATOM      3  C   UNL     1      31.810 -23.483 -14.022  0.00  0.00    +0.175 C 
ATOM      4  C   UNL     1      31.137 -22.606 -15.071  0.00  0.00    +0.033 C 
ATOM      5  C   UNL     1      31.658 -23.169 -16.392  0.00  0.00    +0.024 C 
ATOM      6  C   UNL     1      33.086 -23.577 -16.062  0.00  0.00    +0.094 C 
ATOM      7  C   UNL     1      34.123 -24.389 -13.906  0.00  0.00    +0.284 C 
ENDROOT
BRANCH   7   9
ATOM      8  O   UNL     1      35.416 -25.576 -15.391  0.00  0.00    -0.287 OA
ATOM      9  C   UNL     1      35.378 -24.587 -14.671  0.00  0.00    +0.225 C 
BRANCH   9  10
ATOM     10  C   UNL     1      36.491 -23.546 -14.527  0.00  0.00    +0.060 C 
ATOM     11  C   UNL     1      36.597 -23.125 -13.050  0.00  0.00    +0.008 C 
ATOM     12  C   UNL     1      37.822 -24.205 -14.931  0.00  0.00    +0.008 C 
BRANCH  10  13
ATOM     13  C   UNL     1      36.237 -22.314 -15.428  0.00  0.00    +0.007 C 
ATOM     14  C   UNL     1      37.263 -22.104 -16.537  0.00  0.00    +0.000 C 
ENDBRANCH  10  13
ENDBRANCH   9  10
ENDBRANCH   7   9
BRANCH   3  16
ATOM     15  O   UNL     1      30.876 -25.676 -14.506  0.00  0.00    -0.248 OA
ATOM     16  C   UNL     1      31.021 -24.726 -13.741  0.00  0.00    +0.332 C 
BRANCH  16  17
ATOM     17  O   UNL     1      30.450 -24.708 -12.505  0.00  0.00    -0.479 OA
ATOM     18  H   UNL     1      29.550 -24.946 -12.401  0.00  0.00    +0.295 HD
ENDBRANCH  16  17
ENDBRANCH   3  16
TORSDOF 5
ENDMDL
MODEL 4
REMARK VINA RESULT:      -6.5      9.643     11.939
REMARK  Name = 9837656
REMARK  5 active torsions:
REMARK  status: ('A' for Active; 'I' for Inactive)
REMARK    1  A    between atoms: C_3  and  C_16
REMARK    2  A    between atoms: C_7  and  C_9
REMARK    3  A    between atoms: C_9  and  C_10
REMARK    4  A    between atoms: C_10  and  C_13
REMARK    5  A    between atoms: C_16  and  O_17
REMARK                            x       y       z     vdW  Elec       q    Type
REMARK                         _______ _______ _______ _____ _____    ______ ____
ROOT
ATOM      1  O   UNL     1      34.567 -23.620 -12.193  0.00  0.00    -0.267 OA
ATOM      2  N   UNL     1      35.870 -24.819 -13.724  0.00  0.00    -0.266 N 
ATOM      3  C   UNL     1      36.648 -25.606 -12.778  0.00  0.00    +0.175 C 
ATOM      4  C   UNL     1      37.272 -26.713 -13.618  0.00  0.00    +0.033 C 
ATOM      5  C   UNL     1      37.409 -26.078 -15.000  0.00  0.00    +0.024 C 
ATOM      6  C   UNL     1      36.177 -25.191 -15.103  0.00  0.00    +0.094 C 
ATOM      7  C   UNL     1      34.865 -23.962 -13.328  0.00  0.00    +0.284 C 
ENDROOT
BRANCH   7   9
ATOM      8  O   UNL     1      34.654 -22.674 -15.221  0.00  0.00    -0.287 OA
ATOM      9  C   UNL     1      34.054 -23.389 -14.429  0.00  0.00    +0.225 C 
BRANCH   9  10
ATOM     10  C   UNL     1      32.569 -23.753 -14.506  0.00  0.00    +0.060 C 
ATOM     11  C   UNL     1      32.368 -25.166 -13.927  0.00  0.00    +0.008 C 
ATOM     12  C   UNL     1      31.783 -22.763 -13.628  0.00  0.00    +0.008 C 
BRANCH  10  13
ATOM     13  C   UNL     1      32.040 -23.680 -15.959  0.00  0.00    +0.007 C 
ATOM     14  C   UNL     1      30.658 -23.051 -16.110  0.00  0.00    +0.000 C 
ENDBRANCH  10  13
ENDBRANCH   9  10
ENDBRANCH   7   9
BRANCH   3  16
ATOM     15  O   UNL     1      38.732 -24.352 -12.739  0.00  0.00    -0.248 OA
ATOM     16  C   UNL     1      37.684 -24.693 -12.196  0.00  0.00    +0.332 C 
BRANCH  16  17
ATOM     17  O   UNL     1      37.347 -24.254 -10.952  0.00  0.00    -0.479 OA
ATOM     18  H   UNL     1      36.981 -24.849 -10.328  0.00  0.00    +0.295 HD
ENDBRANCH  16  17
ENDBRANCH   3  16
TORSDOF 5
ENDMDL
MODEL 5
REMARK VINA RESULT:      -6.5      9.718     10.943
REMARK  Name = 9837656
REMARK  5 active torsions:
REMARK  status: ('A' for Active; 'I' for Inactive)
REMARK    1  A    between atoms: C_3  and  C_16
REMARK    2  A    between atoms: C_7  and  C_9
REMARK    3  A    between atoms: C_9  and  C_10
REMARK    4  A    between atoms: C_10  and  C_13
REMARK    5  A    between atoms: C_16  and  O_17
REMARK                            x       y       z     vdW  Elec       q    Type
REMARK                         _______ _______ _______ _____ _____    ______ ____
ROOT
ATOM      1  O   UNL     1      33.998 -24.723 -12.780  0.00  0.00    -0.267 OA
ATOM      2  N   UNL     1      33.008 -23.923 -14.745  0.00  0.00    -0.266 N 
ATOM      3  C   UNL     1      31.730 -23.503 -14.188  0.00  0.00    +0.175 C 
ATOM      4  C   UNL     1      31.116 -22.611 -15.260  0.00  0.00    +0.033 C 
ATOM      5  C   UNL     1      31.700 -23.163 -16.559  0.00  0.00    +0.024 C 
ATOM      6  C   UNL     1      33.106 -23.583 -16.162  0.00  0.00    +0.094 C 
ATOM      7  C   UNL     1      34.029 -24.423 -13.965  0.00  0.00    +0.284 C 
ENDROOT
BRANCH   7   9
ATOM      8  O   UNL     1      35.375 -25.578 -15.429  0.00  0.00    -0.287 OA
ATOM      9  C   UNL     1      35.320 -24.621 -14.667  0.00  0.00    +0.225 C 
BRANCH   9  10
ATOM     10  C   UNL     1      36.447 -23.618 -14.415  0.00  0.00    +0.060 C 
ATOM     11  C   UNL     1      37.789 -24.259 -14.815  0.00  0.00    +0.008 C 
ATOM     12  C   UNL     1      36.216 -22.395 -15.321  0.00  0.00    +0.008 C 
BRANCH  10  13
ATOM     13  C   UNL     1      36.481 -23.159 -12.937  0.00  0.00    +0.007 C 
ATOM     14  C   UNL     1      37.675 -23.665 -12.133  0.00  0.00    +0.000 C 
ENDBRANCH  10  13
ENDBRANCH   9  10
ENDBRANCH   7   9
BRANCH   3  16
ATOM     15  O   UNL     1      30.457 -25.473 -14.835  0.00  0.00    -0.248 OA
ATOM     16  C   UNL     1      30.920 -24.744 -13.961  0.00  0.00    +0.332 C 
BRANCH  16  17
ATOM     17  O   UNL     1      30.734 -25.005 -12.638  0.00  0.00    -0.479 OA
ATOM     18  H   UNL     1      31.460 -25.261 -12.104  0.00  0.00    +0.295 HD
ENDBRANCH  16  17
ENDBRANCH   3  16
TORSDOF 5
ENDMDL
MODEL 6
REMARK VINA RESULT:      -6.4      1.734      4.896
REMARK  Name = 9837656
REMARK  5 active torsions:
REMARK  status: ('A' for Active; 'I' for Inactive)
REMARK    1  A    between atoms: C_3  and  C_16
REMARK    2  A    between atoms: C_7  and  C_9
REMARK    3  A    between atoms: C_9  and  C_10
REMARK    4  A    between atoms: C_10  and  C_13
REMARK    5  A    between atoms: C_16  and  O_17
REMARK                            x       y       z     vdW  Elec       q    Type
REMARK                         _______ _______ _______ _____ _____    ______ ____
ROOT
ATOM      1  O   UNL     1      34.955 -16.309 -19.863  0.00  0.00    -0.267 OA
ATOM      2  N   UNL     1      34.832 -17.252 -22.002  0.00  0.00    -0.266 N 
ATOM      3  C   UNL     1      35.043 -18.646 -21.637  0.00  0.00    +0.175 C 
ATOM      4  C   UNL     1      34.612 -19.436 -22.866  0.00  0.00    +0.033 C 
ATOM      5  C   UNL     1      34.888 -18.476 -24.022  0.00  0.00    +0.024 C 
ATOM      6  C   UNL     1      34.563 -17.113 -23.431  0.00  0.00    +0.094 C 
ATOM      7  C   UNL     1      34.742 -16.245 -21.065  0.00  0.00    +0.284 C 
ENDROOT
BRANCH   7   9
ATOM      8  O   UNL     1      35.224 -14.262 -22.125  0.00  0.00    -0.287 OA
ATOM      9  C   UNL     1      34.338 -14.922 -21.598  0.00  0.00    +0.225 C 
BRANCH   9  10
ATOM     10  C   UNL     1      32.869 -14.506 -21.480  0.00  0.00    +0.060 C 
ATOM     11  C   UNL     1      32.343 -14.122 -22.876  0.00  0.00    +0.008 C 
ATOM     12  C   UNL     1      32.063 -15.720 -20.985  0.00  0.00    +0.008 C 
BRANCH  10  13
ATOM     13  C   UNL     1      32.688 -13.332 -20.487  0.00  0.00    +0.007 C 
ATOM     14  C   UNL     1      31.711 -12.251 -20.939  0.00  0.00    +0.000 C 
ENDBRANCH  10  13
ENDBRANCH   9  10
ENDBRANCH   7   9
BRANCH   3  16
ATOM     15  O   UNL     1      37.426 -18.459 -22.085  0.00  0.00    -0.248 OA
ATOM     16  C   UNL     1      36.505 -18.808 -21.351  0.00  0.00    +0.332 C 
BRANCH  16  17
ATOM     17  O   UNL     1      36.734 -19.406 -20.149  0.00  0.00    -0.479 OA
ATOM     18  H   UNL     1      36.984 -20.309 -20.115  0.00  0.00    +0.295 HD
ENDBRANCH  16  17
ENDBRANCH   3  16
TORSDOF 5
ENDMDL
MODEL 7
REMARK VINA RESULT:      -6.3      9.456     11.865
REMARK  Name = 9837656
REMARK  5 active torsions:
REMARK  status: ('A' for Active; 'I' for Inactive)
REMARK    1  A    between atoms: C_3  and  C_16
REMARK    2  A    between atoms: C_7  and  C_9
REMARK    3  A    between atoms: C_9  and  C_10
REMARK    4  A    between atoms: C_10  and  C_13
REMARK    5  A    between atoms: C_16  and  O_17
REMARK                            x       y       z     vdW  Elec       q    Type
REMARK                         _______ _______ _______ _____ _____    ______ ____
ROOT
ATOM      1  O   UNL     1      34.876 -24.813 -12.836  0.00  0.00    -0.267 OA
ATOM      2  N   UNL     1      37.063 -24.968 -13.660  0.00  0.00    -0.266 N 
ATOM      3  C   UNL     1      37.747 -25.248 -12.406  0.00  0.00    +0.175 C 
ATOM      4  C   UNL     1      39.123 -25.755 -12.822  0.00  0.00    +0.033 C 
ATOM      5  C   UNL     1      39.370 -25.057 -14.158  0.00  0.00    +0.024 C 
ATOM      6  C   UNL     1      37.988 -25.007 -14.789  0.00  0.00    +0.094 C 
ATOM      7  C   UNL     1      35.692 -24.850 -13.747  0.00  0.00    +0.284 C 
ENDROOT
BRANCH   7   9
ATOM      8  O   UNL     1      35.176 -25.786 -15.783  0.00  0.00    -0.287 OA
ATOM      9  C   UNL     1      35.153 -24.754 -15.125  0.00  0.00    +0.225 C 
BRANCH   9  10
ATOM     10  C   UNL     1      34.592 -23.411 -15.596  0.00  0.00    +0.060 C 
ATOM     11  C   UNL     1      34.192 -23.526 -17.079  0.00  0.00    +0.008 C 
ATOM     12  C   UNL     1      33.321 -23.107 -14.782  0.00  0.00    +0.008 C 
BRANCH  10  13
ATOM     13  C   UNL     1      35.613 -22.265 -15.394  0.00  0.00    +0.007 C 
ATOM     14  C   UNL     1      36.656 -22.129 -16.499  0.00  0.00    +0.000 C 
ENDBRANCH  10  13
ENDBRANCH   9  10
ENDBRANCH   7   9
BRANCH   3  16
ATOM     15  O   UNL     1      38.670 -23.074 -11.824  0.00  0.00    -0.248 OA
ATOM     16  C   UNL     1      37.831 -23.955 -11.653  0.00  0.00    +0.332 C 
BRANCH  16  17
ATOM     17  O   UNL     1      36.849 -23.837 -10.717  0.00  0.00    -0.479 OA
ATOM     18  H   UNL     1      35.991 -24.168 -10.894  0.00  0.00    +0.295 HD
ENDBRANCH  16  17
ENDBRANCH   3  16
TORSDOF 5
ENDMDL
MODEL 8
REMARK VINA RESULT:      -6.2      5.315      9.030
REMARK  Name = 9837656
REMARK  5 active torsions:
REMARK  status: ('A' for Active; 'I' for Inactive)
REMARK    1  A    between atoms: C_3  and  C_16
REMARK    2  A    between atoms: C_7  and  C_9
REMARK    3  A    between atoms: C_9  and  C_10
REMARK    4  A    between atoms: C_10  and  C_13
REMARK    5  A    between atoms: C_16  and  O_17
REMARK                            x       y       z     vdW  Elec       q    Type
REMARK                         _______ _______ _______ _____ _____    ______ ____
ROOT
ATOM      1  O   UNL     1      31.023 -10.321 -22.350  0.00  0.00    -0.267 OA
ATOM      2  N   UNL     1      33.039 -10.291 -23.539  0.00  0.00    -0.266 N 
ATOM      3  C   UNL     1      32.852 -11.509 -24.314  0.00  0.00    +0.175 C 
ATOM      4  C   UNL     1      33.901 -11.431 -25.417  0.00  0.00    +0.033 C 
ATOM      5  C   UNL     1      35.022 -10.608 -24.785  0.00  0.00    +0.024 C 
ATOM      6  C   UNL     1      34.276  -9.610 -23.913  0.00  0.00    +0.094 C 
ATOM      7  C   UNL     1      32.072  -9.793 -22.693  0.00  0.00    +0.284 C 
ENDROOT
BRANCH   7   9
ATOM      8  O   UNL     1      32.939  -8.428 -21.058  0.00  0.00    -0.287 OA
ATOM      9  C   UNL     1      32.353  -8.450 -22.133  0.00  0.00    +0.225 C 
BRANCH   9  10
ATOM     10  C   UNL     1      31.929  -7.220 -22.940  0.00  0.00    +0.060 C 
ATOM     11  C   UNL     1      30.834  -7.630 -23.941  0.00  0.00    +0.008 C 
ATOM     12  C   UNL     1      31.325  -6.191 -21.968  0.00  0.00    +0.008 C 
BRANCH  10  13
ATOM     13  C   UNL     1      33.131  -6.582 -23.678  0.00  0.00    +0.007 C 
ATOM     14  C   UNL     1      32.768  -5.768 -24.916  0.00  0.00    +0.000 C 
ENDBRANCH  10  13
ENDBRANCH   9  10
ENDBRANCH   7   9
BRANCH   3  16
ATOM     15  O   UNL     1      34.185 -13.197 -23.178  0.00  0.00    -0.248 OA
ATOM     16  C   UNL     1      33.100 -12.661 -23.388  0.00  0.00    +0.332 C 
BRANCH  16  17
ATOM     17  O   UNL     1      31.962 -13.081 -22.768  0.00  0.00    -0.479 OA
ATOM     18  H   UNL     1      31.671 -12.658 -21.985  0.00  0.00    +0.295 HD
ENDBRANCH  16  17
ENDBRANCH   3  16
TORSDOF 5
ENDMDL
MODEL 9
REMARK VINA RESULT:      -6.2      6.659      9.930
REMARK  Name = 9837656
REMARK  5 active torsions:
REMARK  status: ('A' for Active; 'I' for Inactive)
REMARK    1  A    between atoms: C_3  and  C_16
REMARK    2  A    between atoms: C_7  and  C_9
REMARK    3  A    between atoms: C_9  and  C_10
REMARK    4  A    between atoms: C_10  and  C_13
REMARK    5  A    between atoms: C_16  and  O_17
REMARK                            x       y       z     vdW  Elec       q    Type
REMARK                         _______ _______ _______ _____ _____    ______ ____
ROOT
ATOM      1  O   UNL     1      31.745  -7.127 -20.733  0.00  0.00    -0.267 OA
ATOM      2  N   UNL     1      32.005  -9.239 -21.709  0.00  0.00    -0.266 N 
ATOM      3  C   UNL     1      31.089  -9.985 -20.857  0.00  0.00    +0.175 C 
ATOM      4  C   UNL     1      30.852 -11.295 -21.599  0.00  0.00    +0.033 C 
ATOM      5  C   UNL     1      32.145 -11.498 -22.385  0.00  0.00    +0.024 C 
ATOM      6  C   UNL     1      32.550 -10.083 -22.769  0.00  0.00    +0.094 C 
ATOM      7  C   UNL     1      32.178  -7.876 -21.597  0.00  0.00    +0.284 C 
ENDROOT
BRANCH   7   9
ATOM      8  O   UNL     1      34.204  -7.464 -22.604  0.00  0.00    -0.287 OA
ATOM      9  C   UNL     1      32.999  -7.255 -22.664  0.00  0.00    +0.225 C 
BRANCH   9  10
ATOM     10  C   UNL     1      32.289  -6.446 -23.752  0.00  0.00    +0.060 C 
ATOM     11  C   UNL     1      31.065  -7.237 -24.248  0.00  0.00    +0.008 C 
ATOM     12  C   UNL     1      31.786  -5.133 -23.125  0.00  0.00    +0.008 C 
BRANCH  10  13
ATOM     13  C   UNL     1      33.240  -6.118 -24.929  0.00  0.00    +0.007 C 
ATOM     14  C   UNL     1      32.763  -5.001 -25.851  0.00  0.00    +0.000 C 
ENDBRANCH  10  13
ENDBRANCH   9  10
ENDBRANCH   7   9
BRANCH   3  16
ATOM     15  O   UNL     1      31.556 -11.107 -18.749  0.00  0.00    -0.248 OA
ATOM     16  C   UNL     1      31.787 -10.203 -19.548  0.00  0.00    +0.332 C 
BRANCH  16  17
ATOM     17  O   UNL     1      32.745  -9.264 -19.310  0.00  0.00    -0.479 OA
ATOM     18  H   UNL     1      32.598  -8.596 -18.670  0.00  0.00    +0.295 HD
ENDBRANCH  16  17
ENDBRANCH   3  16
TORSDOF 5
ENDMDL
