MODEL 1
REMARK VINA RESULT:      -8.8      0.000      0.000
REMARK  Name = 3397
REMARK  4 active torsions:
REMARK  status: ('A' for Active; 'I' for Inactive)
REMARK    1  A    between atoms: C_1  and  N_12
REMARK    2  A    between atoms: C_2  and  C_10
REMARK    3  A    between atoms: C_4  and  N_20
REMARK    4  A    between atoms: C_13  and  C_15
REMARK                            x       y       z     vdW  Elec       q    Type
REMARK                         _______ _______ _______ _____ _____    ______ ____
ROOT
ATOM      1  C   UNL     1      34.364 -14.461 -22.846  0.00  0.00    +0.050 C 
ATOM      2  C   UNL     1      34.781 -16.814 -23.062  0.00  0.00    +0.095 C 
ATOM      3  C   UNL     1      34.585 -15.565 -23.653  0.00  0.00    +0.020 C 
ATOM      4  C   UNL     1      34.750 -16.941 -21.673  0.00  0.00    +0.147 C 
ATOM      5  C   UNL     1      34.331 -14.570 -21.466  0.00  0.00    +0.016 C 
ATOM      6  C   UNL     1      34.526 -15.819 -20.876  0.00  0.00    +0.025 C 
ENDROOT
BRANCH   2  10
ATOM      7  F   UNL     1      34.063 -18.964 -23.828  0.00  0.00    -0.166 F 
ATOM      8  F   UNL     1      35.050 -17.684 -25.274  0.00  0.00    -0.166 F 
ATOM      9  F   UNL     1      36.204 -18.614 -23.683  0.00  0.00    -0.166 F 
ATOM     10  C   UNL     1      35.018 -17.996 -23.945  0.00  0.00    +0.420 C 
ENDBRANCH   2  10
BRANCH   1  12
ATOM     11  O   UNL     1      32.029 -12.587 -22.696  0.00  0.00    -0.275 OA
ATOM     12  N   UNL     1      34.167 -13.195 -23.446  0.00  0.00    -0.284 N 
ATOM     13  C   UNL     1      33.051 -12.369 -23.339  0.00  0.00    +0.226 C 
ATOM     14  H   UNL     1      34.905 -12.858 -24.004  0.00  0.00    +0.155 HD
BRANCH  13  15
ATOM     15  C   UNL     1      33.232 -11.077 -24.143  0.00  0.00    +0.077 C 
ATOM     16  C   UNL     1      33.136  -9.848 -23.241  0.00  0.00    +0.010 C 
ATOM     17  C   UNL     1      34.573 -11.097 -24.874  0.00  0.00    +0.010 C 
ENDBRANCH  13  15
ENDBRANCH   1  12
BRANCH   4  20
ATOM     18  O   UNL     1      36.101 -18.523 -20.680  0.00  0.00    -0.126 OA
ATOM     19  O   UNL     1      33.959 -18.958 -20.886  0.00  0.00    -0.126 OA
ATOM     20  N   UNL     1      34.947 -18.203 -21.049  0.00  0.00    +0.058 N 
ENDBRANCH   4  20
TORSDOF 4
ENDMDL
MODEL 2
REMARK VINA RESULT:      -8.6      3.723      5.158
REMARK  Name = 3397
REMARK  4 active torsions:
REMARK  status: ('A' for Active; 'I' for Inactive)
REMARK    1  A    between atoms: C_1  and  N_12
REMARK    2  A    between atoms: C_2  and  C_10
REMARK    3  A    between atoms: C_4  and  N_20
REMARK    4  A    between atoms: C_13  and  C_15
REMARK                            x       y       z     vdW  Elec       q    Type
REMARK                         _______ _______ _______ _____ _____    ______ ____
ROOT
ATOM      1  C   UNL     1      34.009 -18.769 -21.042  0.00  0.00    +0.050 C 
ATOM      2  C   UNL     1      35.229 -20.633 -20.151  0.00  0.00    +0.095 C 
ATOM      3  C   UNL     1      35.220 -19.392 -20.790  0.00  0.00    +0.020 C 
ATOM      4  C   UNL     1      34.027 -21.232 -19.774  0.00  0.00    +0.147 C 
ATOM      5  C   UNL     1      32.807 -19.350 -20.674  0.00  0.00    +0.016 C 
ATOM      6  C   UNL     1      32.817 -20.591 -20.035  0.00  0.00    +0.025 C 
ENDROOT
BRANCH   2  10
ATOM      7  F   UNL     1      36.726 -21.639 -18.578  0.00  0.00    -0.166 F 
ATOM      8  F   UNL     1      36.721 -22.449 -20.590  0.00  0.00    -0.166 F 
ATOM      9  F   UNL     1      37.602 -20.498 -20.209  0.00  0.00    -0.166 F 
ATOM     10  C   UNL     1      36.544 -21.293 -19.886  0.00  0.00    +0.420 C 
ENDBRANCH   2  10
BRANCH   1  12
ATOM     11  O   UNL     1      35.017 -16.103 -20.113  0.00  0.00    -0.275 OA
ATOM     12  N   UNL     1      34.000 -17.511 -21.689  0.00  0.00    -0.284 N 
ATOM     13  C   UNL     1      34.484 -16.301 -21.200  0.00  0.00    +0.226 C 
ATOM     14  H   UNL     1      33.605 -17.489 -22.591  0.00  0.00    +0.155 HD
BRANCH  13  15
ATOM     15  C   UNL     1      34.286 -15.169 -22.213  0.00  0.00    +0.077 C 
ATOM     16  C   UNL     1      34.611 -15.634 -23.632  0.00  0.00    +0.010 C 
ATOM     17  C   UNL     1      32.853 -14.645 -22.141  0.00  0.00    +0.010 C 
ENDBRANCH  13  15
ENDBRANCH   1  12
BRANCH   4  20
ATOM     18  O   UNL     1      33.985 -22.530 -17.869  0.00  0.00    -0.126 OA
ATOM     19  O   UNL     1      34.027 -23.537 -19.818  0.00  0.00    -0.126 OA
ATOM     20  N   UNL     1      34.013 -22.495 -19.121  0.00  0.00    +0.058 N 
ENDBRANCH   4  20
TORSDOF 4
ENDMDL
MODEL 3
REMARK VINA RESULT:      -8.5      3.512      7.024
REMARK  Name = 3397
REMARK  4 active torsions:
REMARK  status: ('A' for Active; 'I' for Inactive)
REMARK    1  A    between atoms: C_1  and  N_12
REMARK    2  A    between atoms: C_2  and  C_10
REMARK    3  A    between atoms: C_4  and  N_20
REMARK    4  A    between atoms: C_13  and  C_15
REMARK                            x       y       z     vdW  Elec       q    Type
REMARK                         _______ _______ _______ _____ _____    ______ ____
ROOT
ATOM      1  C   UNL     1      34.547 -18.530 -21.651  0.00  0.00    +0.050 C 
ATOM      2  C   UNL     1      33.686 -16.291 -21.717  0.00  0.00    +0.095 C 
ATOM      3  C   UNL     1      33.860 -17.497 -21.036  0.00  0.00    +0.020 C 
ATOM      4  C   UNL     1      34.201 -16.137 -23.004  0.00  0.00    +0.147 C 
ATOM      5  C   UNL     1      35.064 -18.394 -22.929  0.00  0.00    +0.016 C 
ATOM      6  C   UNL     1      34.890 -17.188 -23.610  0.00  0.00    +0.025 C 
ENDROOT
BRANCH   2  10
ATOM      7  F   UNL     1      33.750 -14.178 -20.597  0.00  0.00    -0.166 F 
ATOM      8  F   UNL     1      32.022 -14.579 -21.845  0.00  0.00    -0.166 F 
ATOM      9  F   UNL     1      32.253 -15.614 -19.946  0.00  0.00    -0.166 F 
ATOM     10  C   UNL     1      32.943 -15.185 -21.040  0.00  0.00    +0.420 C 
ENDBRANCH   2  10
BRANCH   1  12
ATOM     11  O   UNL     1      36.929 -19.597 -20.176  0.00  0.00    -0.275 OA
ATOM     12  N   UNL     1      34.723 -19.752 -20.960  0.00  0.00    -0.284 N 
ATOM     13  C   UNL     1      35.863 -20.193 -20.293  0.00  0.00    +0.226 C 
ATOM     14  H   UNL     1      33.950 -20.361 -20.950  0.00  0.00    +0.155 HD
BRANCH  13  15
ATOM     15  C   UNL     1      35.646 -21.577 -19.672  0.00  0.00    +0.077 C 
ATOM     16  C   UNL     1      36.446 -21.733 -18.379  0.00  0.00    +0.010 C 
ATOM     17  C   UNL     1      34.159 -21.808 -19.409  0.00  0.00    +0.010 C 
ENDBRANCH  13  15
ENDBRANCH   1  12
BRANCH   4  20
ATOM     18  O   UNL     1      33.225 -14.880 -24.672  0.00  0.00    -0.126 OA
ATOM     19  O   UNL     1      34.707 -13.918 -23.370  0.00  0.00    -0.126 OA
ATOM     20  N   UNL     1      34.036 -14.918 -23.718  0.00  0.00    +0.058 N 
ENDBRANCH   4  20
TORSDOF 4
ENDMDL
MODEL 4
REMARK VINA RESULT:      -8.4      3.651      6.945
REMARK  Name = 3397
REMARK  4 active torsions:
REMARK  status: ('A' for Active; 'I' for Inactive)
REMARK    1  A    between atoms: C_1  and  N_12
REMARK    2  A    between atoms: C_2  and  C_10
REMARK    3  A    between atoms: C_4  and  N_20
REMARK    4  A    between atoms: C_13  and  C_15
REMARK                            x       y       z     vdW  Elec       q    Type
REMARK                         _______ _______ _______ _____ _____    ______ ____
ROOT
ATOM      1  C   UNL     1      34.761 -18.980 -21.986  0.00  0.00    +0.050 C 
ATOM      2  C   UNL     1      34.423 -16.752 -22.810  0.00  0.00    +0.095 C 
ATOM      3  C   UNL     1      34.583 -17.629 -21.737  0.00  0.00    +0.020 C 
ATOM      4  C   UNL     1      34.441 -17.240 -24.118  0.00  0.00    +0.147 C 
ATOM      5  C   UNL     1      34.781 -19.480 -23.277  0.00  0.00    +0.016 C 
ATOM      6  C   UNL     1      34.621 -18.603 -24.351  0.00  0.00    +0.025 C 
ENDROOT
BRANCH   2  10
ATOM      7  F   UNL     1      34.628 -14.930 -21.273  0.00  0.00    -0.166 F 
ATOM      8  F   UNL     1      34.926 -14.484 -23.374  0.00  0.00    -0.166 F 
ATOM      9  F   UNL     1      32.929 -14.912 -22.629  0.00  0.00    -0.166 F 
ATOM     10  C   UNL     1      34.232 -15.297 -22.526  0.00  0.00    +0.420 C 
ENDBRANCH   2  10
BRANCH   1  12
ATOM     11  O   UNL     1      32.748 -20.671 -20.545  0.00  0.00    -0.275 OA
ATOM     12  N   UNL     1      34.924 -19.868 -20.897  0.00  0.00    -0.284 N 
ATOM     13  C   UNL     1      33.942 -20.628 -20.266  0.00  0.00    +0.226 C 
ATOM     14  H   UNL     1      35.838 -19.961 -20.544  0.00  0.00    +0.155 HD
BRANCH  13  15
ATOM     15  C   UNL     1      34.529 -21.465 -19.125  0.00  0.00    +0.077 C 
ATOM     16  C   UNL     1      33.885 -22.849 -19.067  0.00  0.00    +0.010 C 
ATOM     17  C   UNL     1      36.043 -21.588 -19.290  0.00  0.00    +0.010 C 
ENDBRANCH  13  15
ENDBRANCH   1  12
BRANCH   4  20
ATOM     18  O   UNL     1      33.160 -15.840 -25.426  0.00  0.00    -0.126 OA
ATOM     19  O   UNL     1      35.264 -16.145 -25.972  0.00  0.00    -0.126 OA
ATOM     20  N   UNL     1      34.280 -16.365 -25.227  0.00  0.00    +0.058 N 
ENDBRANCH   4  20
TORSDOF 4
ENDMDL
MODEL 5
REMARK VINA RESULT:      -8.2      8.113     10.349
REMARK  Name = 3397
REMARK  4 active torsions:
REMARK  status: ('A' for Active; 'I' for Inactive)
REMARK    1  A    between atoms: C_1  and  N_12
REMARK    2  A    between atoms: C_2  and  C_10
REMARK    3  A    between atoms: C_4  and  N_20
REMARK    4  A    between atoms: C_13  and  C_15
REMARK                            x       y       z     vdW  Elec       q    Type
REMARK                         _______ _______ _______ _____ _____    ______ ____
ROOT
ATOM      1  C   UNL     1      33.677 -22.824 -17.305  0.00  0.00    +0.050 C 
ATOM      2  C   UNL     1      31.682 -23.328 -16.072  0.00  0.00    +0.095 C 
ATOM      3  C   UNL     1      32.295 -22.827 -17.221  0.00  0.00    +0.020 C 
ATOM      4  C   UNL     1      32.460 -23.818 -15.023  0.00  0.00    +0.147 C 
ATOM      5  C   UNL     1      34.464 -23.307 -16.273  0.00  0.00    +0.016 C 
ATOM      6  C   UNL     1      33.851 -23.807 -15.124  0.00  0.00    +0.025 C 
ENDROOT
BRANCH   2  10
ATOM      7  F   UNL     1      29.640 -24.573 -16.007  0.00  0.00    -0.166 F 
ATOM      8  F   UNL     1      29.705 -22.731 -14.866  0.00  0.00    -0.166 F 
ATOM      9  F   UNL     1      29.615 -22.659 -17.037  0.00  0.00    -0.166 F 
ATOM     10  C   UNL     1      30.189 -23.324 -15.996  0.00  0.00    +0.420 C 
ENDBRANCH   2  10
BRANCH   1  12
ATOM     11  O   UNL     1      32.664 -20.885 -19.355  0.00  0.00    -0.275 OA
ATOM     12  N   UNL     1      34.298 -22.317 -18.471  0.00  0.00    -0.284 N 
ATOM     13  C   UNL     1      33.770 -21.414 -19.390  0.00  0.00    +0.226 C 
ATOM     14  H   UNL     1      35.211 -22.640 -18.653  0.00  0.00    +0.155 HD
BRANCH  13  15
ATOM     15  C   UNL     1      34.765 -21.118 -20.517  0.00  0.00    +0.077 C 
ATOM     16  C   UNL     1      34.520 -19.736 -21.120  0.00  0.00    +0.010 C 
ATOM     17  C   UNL     1      36.197 -21.225 -19.995  0.00  0.00    +0.010 C 
ENDBRANCH  13  15
ENDBRANCH   1  12
BRANCH   4  20
ATOM     18  O   UNL     1      31.516 -25.539 -13.814  0.00  0.00    -0.126 OA
ATOM     19  O   UNL     1      31.686 -23.566 -12.867  0.00  0.00    -0.126 OA
ATOM     20  N   UNL     1      31.857 -24.333 -13.843  0.00  0.00    +0.058 N 
ENDBRANCH   4  20
TORSDOF 4
ENDMDL
MODEL 6
REMARK VINA RESULT:      -8.2      9.677     11.914
REMARK  Name = 3397
REMARK  4 active torsions:
REMARK  status: ('A' for Active; 'I' for Inactive)
REMARK    1  A    between atoms: C_1  and  N_12
REMARK    2  A    between atoms: C_2  and  C_10
REMARK    3  A    between atoms: C_4  and  N_20
REMARK    4  A    between atoms: C_13  and  C_15
REMARK                            x       y       z     vdW  Elec       q    Type
REMARK                         _______ _______ _______ _____ _____    ______ ____
ROOT
ATOM      1  C   UNL     1      36.411 -22.964 -15.685  0.00  0.00    +0.050 C 
ATOM      2  C   UNL     1      37.882 -24.408 -14.458  0.00  0.00    +0.095 C 
ATOM      3  C   UNL     1      37.592 -23.685 -15.615  0.00  0.00    +0.020 C 
ATOM      4  C   UNL     1      36.986 -24.401 -13.388  0.00  0.00    +0.147 C 
ATOM      5  C   UNL     1      35.512 -22.947 -14.632  0.00  0.00    +0.016 C 
ATOM      6  C   UNL     1      35.802 -23.670 -13.475  0.00  0.00    +0.025 C 
ENDROOT
BRANCH   2  10
ATOM      7  F   UNL     1      39.895 -24.931 -13.274  0.00  0.00    -0.166 F 
ATOM      8  F   UNL     1      38.976 -26.534 -14.410  0.00  0.00    -0.166 F 
ATOM      9  F   UNL     1      39.985 -24.910 -15.446  0.00  0.00    -0.166 F 
ATOM     10  C   UNL     1      39.160 -25.181 -14.396  0.00  0.00    +0.420 C 
ENDBRANCH   2  10
BRANCH   1  12
ATOM     11  O   UNL     1      34.294 -23.395 -17.763  0.00  0.00    -0.275 OA
ATOM     12  N   UNL     1      36.118 -22.230 -16.858  0.00  0.00    -0.284 N 
ATOM     13  C   UNL     1      35.116 -22.484 -17.791  0.00  0.00    +0.226 C 
ATOM     14  H   UNL     1      36.688 -21.447 -17.036  0.00  0.00    +0.155 HD
BRANCH  13  15
ATOM     15  C   UNL     1      35.130 -21.452 -18.922  0.00  0.00    +0.077 C 
ATOM     16  C   UNL     1      36.299 -21.693 -19.876  0.00  0.00    +0.010 C 
ATOM     17  C   UNL     1      33.806 -21.488 -19.683  0.00  0.00    +0.010 C 
ENDBRANCH  13  15
ENDBRANCH   1  12
BRANCH   4  20
ATOM     18  O   UNL     1      37.797 -24.537 -11.234  0.00  0.00    -0.126 OA
ATOM     19  O   UNL     1      36.959 -26.347 -12.151  0.00  0.00    -0.126 OA
ATOM     20  N   UNL     1      37.261 -25.131 -12.198  0.00  0.00    +0.058 N 
ENDBRANCH   4  20
TORSDOF 4
ENDMDL
MODEL 7
REMARK VINA RESULT:      -8.1      3.082      6.555
REMARK  Name = 3397
REMARK  4 active torsions:
REMARK  status: ('A' for Active; 'I' for Inactive)
REMARK    1  A    between atoms: C_1  and  N_12
REMARK    2  A    between atoms: C_2  and  C_10
REMARK    3  A    between atoms: C_4  and  N_20
REMARK    4  A    between atoms: C_13  and  C_15
REMARK                            x       y       z     vdW  Elec       q    Type
REMARK                         _______ _______ _______ _____ _____    ______ ____
ROOT
ATOM      1  C   UNL     1      34.643 -18.742 -21.495  0.00  0.00    +0.050 C 
ATOM      2  C   UNL     1      34.463 -17.546 -23.567  0.00  0.00    +0.095 C 
ATOM      3  C   UNL     1      34.671 -18.742 -22.880  0.00  0.00    +0.020 C 
ATOM      4  C   UNL     1      34.231 -16.366 -22.859  0.00  0.00    +0.147 C 
ATOM      5  C   UNL     1      34.415 -17.580 -20.777  0.00  0.00    +0.016 C 
ATOM      6  C   UNL     1      34.207 -16.383 -21.465  0.00  0.00    +0.025 C 
ENDROOT
BRANCH   2  10
ATOM      7  F   UNL     1      33.302 -17.234 -25.636  0.00  0.00    -0.166 F 
ATOM      8  F   UNL     1      35.401 -16.689 -25.593  0.00  0.00    -0.166 F 
ATOM      9  F   UNL     1      34.823 -18.785 -25.563  0.00  0.00    -0.166 F 
ATOM     10  C   UNL     1      34.496 -17.561 -25.061  0.00  0.00    +0.420 C 
ENDBRANCH   2  10
BRANCH   1  12
ATOM     11  O   UNL     1      32.706 -20.493 -20.023  0.00  0.00    -0.275 OA
ATOM     12  N   UNL     1      34.853 -19.955 -20.799  0.00  0.00    -0.284 N 
ATOM     13  C   UNL     1      33.907 -20.725 -20.128  0.00  0.00    +0.226 C 
ATOM     14  H   UNL     1      35.778 -20.295 -20.787  0.00  0.00    +0.155 HD
BRANCH  13  15
ATOM     15  C   UNL     1      34.541 -21.971 -19.502  0.00  0.00    +0.077 C 
ATOM     16  C   UNL     1      35.918 -21.657 -18.921  0.00  0.00    +0.010 C 
ATOM     17  C   UNL     1      33.624 -22.539 -18.420  0.00  0.00    +0.010 C 
ENDBRANCH  13  15
ENDBRANCH   1  12
BRANCH   4  20
ATOM     18  O   UNL     1      34.970 -14.329 -23.646  0.00  0.00    -0.126 OA
ATOM     19  O   UNL     1      32.880 -14.894 -24.009  0.00  0.00    -0.126 OA
ATOM     20  N   UNL     1      34.017 -15.135 -23.538  0.00  0.00    +0.058 N 
ENDBRANCH   4  20
TORSDOF 4
ENDMDL
MODEL 8
REMARK VINA RESULT:      -7.9      4.691      7.688
REMARK  Name = 3397
REMARK  4 active torsions:
REMARK  status: ('A' for Active; 'I' for Inactive)
REMARK    1  A    between atoms: C_1  and  N_12
REMARK    2  A    between atoms: C_2  and  C_10
REMARK    3  A    between atoms: C_4  and  N_20
REMARK    4  A    between atoms: C_13  and  C_15
REMARK                            x       y       z     vdW  Elec       q    Type
REMARK                         _______ _______ _______ _____ _____    ______ ____
ROOT
ATOM      1  C   UNL     1      32.755 -11.835 -23.238  0.00  0.00    +0.050 C 
ATOM      2  C   UNL     1      33.339  -9.507 -23.236  0.00  0.00    +0.095 C 
ATOM      3  C   UNL     1      33.495 -10.789 -23.765  0.00  0.00    +0.020 C 
ATOM      4  C   UNL     1      32.446  -9.290 -22.186  0.00  0.00    +0.147 C 
ATOM      5  C   UNL     1      31.865 -11.636 -22.196  0.00  0.00    +0.016 C 
ATOM      6  C   UNL     1      31.709 -10.355 -21.667  0.00  0.00    +0.025 C 
ENDROOT
BRANCH   2  10
ATOM      7  F   UNL     1      33.383  -7.388 -24.345  0.00  0.00    -0.166 F 
ATOM      8  F   UNL     1      34.956  -7.777 -22.904  0.00  0.00    -0.166 F 
ATOM      9  F   UNL     1      34.964  -8.803 -24.821  0.00  0.00    -0.166 F 
ATOM     10  C   UNL     1      34.144  -8.389 -23.815  0.00  0.00    +0.420 C 
ENDBRANCH   2  10
BRANCH   1  12
ATOM     11  O   UNL     1      34.537 -14.086 -22.376  0.00  0.00    -0.275 OA
ATOM     12  N   UNL     1      32.913 -13.133 -23.775  0.00  0.00    -0.284 N 
ATOM     13  C   UNL     1      33.765 -14.140 -23.329  0.00  0.00    +0.226 C 
ATOM     14  H   UNL     1      32.355 -13.352 -24.557  0.00  0.00    +0.155 HD
BRANCH  13  15
ATOM     15  C   UNL     1      33.636 -15.403 -24.185  0.00  0.00    +0.077 C 
ATOM     16  C   UNL     1      33.396 -15.053 -25.653  0.00  0.00    +0.010 C 
ATOM     17  C   UNL     1      34.889 -16.265 -24.042  0.00  0.00    +0.010 C 
ENDBRANCH  13  15
ENDBRANCH   1  12
BRANCH   4  20
ATOM     18  O   UNL     1      31.408  -7.233 -22.129  0.00  0.00    -0.126 OA
ATOM     19  O   UNL     1      32.983  -7.649 -20.659  0.00  0.00    -0.126 OA
ATOM     20  N   UNL     1      32.270  -7.993 -21.631  0.00  0.00    +0.058 N 
ENDBRANCH   4  20
TORSDOF 4
ENDMDL
MODEL 9
REMARK VINA RESULT:      -7.9      1.870      2.388
REMARK  Name = 3397
REMARK  4 active torsions:
REMARK  status: ('A' for Active; 'I' for Inactive)
REMARK    1  A    between atoms: C_1  and  N_12
REMARK    2  A    between atoms: C_2  and  C_10
REMARK    3  A    between atoms: C_4  and  N_20
REMARK    4  A    between atoms: C_13  and  C_15
REMARK                            x       y       z     vdW  Elec       q    Type
REMARK                         _______ _______ _______ _____ _____    ______ ____
ROOT
ATOM      1  C   UNL     1      32.807 -14.473 -22.152  0.00  0.00    +0.050 C 
ATOM      2  C   UNL     1      33.872 -16.032 -23.633  0.00  0.00    +0.095 C 
ATOM      3  C   UNL     1      33.124 -14.869 -23.440  0.00  0.00    +0.020 C 
ATOM      4  C   UNL     1      34.290 -16.782 -22.534  0.00  0.00    +0.147 C 
ATOM      5  C   UNL     1      33.213 -15.207 -21.050  0.00  0.00    +0.016 C 
ATOM      6  C   UNL     1      33.961 -16.369 -21.243  0.00  0.00    +0.025 C 
ENDROOT
BRANCH   2  10
ATOM      7  F   UNL     1      35.548 -16.565 -25.255  0.00  0.00    -0.166 F 
ATOM      8  F   UNL     1      33.677 -17.654 -25.379  0.00  0.00    -0.166 F 
ATOM      9  F   UNL     1      33.753 -15.560 -25.960  0.00  0.00    -0.166 F 
ATOM     10  C   UNL     1      34.207 -16.446 -25.029  0.00  0.00    +0.420 C 
ENDBRANCH   2  10
BRANCH   1  12
ATOM     11  O   UNL     1      33.133 -11.741 -23.340  0.00  0.00    -0.275 OA
ATOM     12  N   UNL     1      32.049 -13.295 -21.957  0.00  0.00    -0.284 N 
ATOM     13  C   UNL     1      32.255 -12.047 -22.540  0.00  0.00    +0.226 C 
ATOM     14  H   UNL     1      31.288 -13.364 -21.337  0.00  0.00    +0.155 HD
BRANCH  13  15
ATOM     15  C   UNL     1      31.212 -11.030 -22.067  0.00  0.00    +0.077 C 
ATOM     16  C   UNL     1      30.936 -11.177 -20.571  0.00  0.00    +0.010 C 
ATOM     17  C   UNL     1      31.679  -9.611 -22.385  0.00  0.00    +0.010 C 
ENDBRANCH  13  15
ENDBRANCH   1  12
BRANCH   4  20
ATOM     18  O   UNL     1      36.303 -17.893 -22.696  0.00  0.00    -0.126 OA
ATOM     19  O   UNL     1      34.451 -19.059 -22.861  0.00  0.00    -0.126 OA
ATOM     20  N   UNL     1      35.052 -17.970 -22.706  0.00  0.00    +0.058 N 
ENDBRANCH   4  20
TORSDOF 4
ENDMDL
