MODEL 1
REMARK VINA RESULT:      -9.0      0.000      0.000
REMARK  Name = 193961
REMARK  11 active torsions:
REMARK  status: ('A' for Active; 'I' for Inactive)
REMARK    1  A    between atoms: C_1  and  C_2
REMARK    2  A    between atoms: C_1  and  C_17
REMARK    3  A    between atoms: C_1  and  C_30
REMARK    4  A    between atoms: C_2  and  N_4
REMARK    5  A    between atoms: C_17  and  C_18
REMARK    6  A    between atoms: C_18  and  O_19
REMARK    7  A    between atoms: O_19  and  C_21
REMARK    8  A    between atoms: C_21  and  C_22
REMARK    9  A    between atoms: C_22  and  N_23
REMARK   10  A    between atoms: C_22  and  C_27
REMARK   11  A    between atoms: C_30  and  O_31
REMARK                            x       y       z     vdW  Elec       q    Type
REMARK                         _______ _______ _______ _____ _____    ______ ____
ROOT
ATOM      1  C   UNL     1      34.651 -16.624 -24.957  0.00  0.00    +0.049 C 
ENDROOT
BRANCH   1   2
ATOM      2  C   UNL     1      35.083 -15.911 -23.655  0.00  0.00    +0.078 C 
BRANCH   2   4
ATOM      3  O   UNL     1      31.145 -11.961 -21.639  0.00  0.00    -0.208 OA
ATOM      4  N   UNL     1      34.022 -15.139 -23.017  0.00  0.00    -0.232 NA
ATOM      5  N   UNL     1      34.315 -12.931 -23.982  0.00  0.00    -0.279 N 
ATOM      6  N   UNL     1      32.280 -14.682 -21.706  0.00  0.00    -0.241 NA
ATOM      7  N   UNL     1      32.738 -11.304 -23.189  0.00  0.00    -0.301 NA
ATOM      8  N   UNL     1      34.405 -10.758 -24.763  0.00  0.00    -0.320 N 
ATOM      9  C   UNL     1      33.733 -13.841 -23.197  0.00  0.00    +0.189 C 
ATOM     10  C   UNL     1      33.121 -15.619 -22.107  0.00  0.00    +0.203 C 
ATOM     11  C   UNL     1      32.667 -13.565 -22.393  0.00  0.00    +0.183 C 
ATOM     12  C   UNL     1      32.103 -12.232 -22.354  0.00  0.00    +0.224 C 
ATOM     13  C   UNL     1      33.767 -11.651 -23.939  0.00  0.00    +0.245 C 
ATOM     14  H   UNL     1      35.085 -13.151 -24.555  0.00  0.00    +0.152 HD
ATOM     15  H   UNL     1      35.169 -11.051 -25.308  0.00  0.00    +0.146 HD
ATOM     16  H   UNL     1      34.097  -9.823 -24.808  0.00  0.00    +0.146 HD
ENDBRANCH   2   4
ENDBRANCH   1   2
BRANCH   1  17
ATOM     17  C   UNL     1      34.485 -18.128 -24.655  0.00  0.00    +0.051 C 
BRANCH  17  18
ATOM     18  C   UNL     1      35.418 -18.649 -23.567  0.00  0.00    +0.208 C 
BRANCH  18  19
ATOM     19  O   UNL     1      34.627 -19.136 -22.479  0.00  0.00    -0.450 OA
BRANCH  19  21
ATOM     20  O   UNL     1      35.485 -17.909 -20.728  0.00  0.00    -0.252 OA
ATOM     21  C   UNL     1      35.172 -18.978 -21.236  0.00  0.00    +0.296 C 
BRANCH  21  22
ATOM     22  C   UNL     1      35.327 -20.341 -20.577  0.00  0.00    +0.036 C 
BRANCH  22  23
ATOM     23  N   UNL     1      36.537 -20.321 -19.755  0.00  0.00    +0.389 N 
ATOM     24  H   UNL     1      37.149 -19.567 -20.068  0.00  0.00    -0.088 HD
ATOM     25  H   UNL     1      37.024 -21.212 -19.844  0.00  0.00    -0.088 HD
ATOM     26  H   UNL     1      36.283 -20.168 -18.779  0.00  0.00    -0.088 HD
ENDBRANCH  22  23
BRANCH  22  27
ATOM     27  C   UNL     1      34.063 -20.742 -19.781  0.00  0.00    -0.010 C 
ATOM     28  C   UNL     1      32.751 -20.392 -20.493  0.00  0.00    -0.002 C 
ATOM     29  C   UNL     1      34.079 -22.234 -19.431  0.00  0.00    -0.002 C 
ENDBRANCH  22  27
ENDBRANCH  21  22
ENDBRANCH  19  21
ENDBRANCH  18  19
ENDBRANCH  17  18
ENDBRANCH   1  17
BRANCH   1  30
ATOM     30  C   UNL     1      33.379 -16.002 -25.558  0.00  0.00    +0.139 C 
BRANCH  30  31
ATOM     31  O   UNL     1      33.707 -15.084 -26.591  0.00  0.00    -0.382 OA
ATOM     32  H   UNL     1      34.132 -14.302 -26.205  0.00  0.00    +0.210 HD
ENDBRANCH  30  31
ENDBRANCH   1  30
TORSDOF 11
ENDMDL
MODEL 2
REMARK VINA RESULT:      -8.9      2.138      8.020
REMARK  Name = 193961
REMARK  11 active torsions:
REMARK  status: ('A' for Active; 'I' for Inactive)
REMARK    1  A    between atoms: C_1  and  C_2
REMARK    2  A    between atoms: C_1  and  C_17
REMARK    3  A    between atoms: C_1  and  C_30
REMARK    4  A    between atoms: C_2  and  N_4
REMARK    5  A    between atoms: C_17  and  C_18
REMARK    6  A    between atoms: C_18  and  O_19
REMARK    7  A    between atoms: O_19  and  C_21
REMARK    8  A    between atoms: C_21  and  C_22
REMARK    9  A    between atoms: C_22  and  N_23
REMARK   10  A    between atoms: C_22  and  C_27
REMARK   11  A    between atoms: C_30  and  O_31
REMARK                            x       y       z     vdW  Elec       q    Type
REMARK                         _______ _______ _______ _____ _____    ______ ____
ROOT
ATOM      1  C   UNL     1      34.759 -18.129 -22.550  0.00  0.00    +0.049 C 
ENDROOT
BRANCH   1   2
ATOM      2  C   UNL     1      35.416 -18.930 -21.403  0.00  0.00    +0.078 C 
BRANCH   2   4
ATOM      3  O   UNL     1      32.626 -23.035 -18.155  0.00  0.00    -0.208 OA
ATOM      4  N   UNL     1      34.516 -19.868 -20.738  0.00  0.00    -0.232 NA
ATOM      5  N   UNL     1      35.988 -21.001 -19.175  0.00  0.00    -0.279 N 
ATOM      6  N   UNL     1      32.631 -20.942 -20.231  0.00  0.00    -0.241 NA
ATOM      7  N   UNL     1      34.893 -22.671 -17.841  0.00  0.00    -0.301 NA
ATOM      8  N   UNL     1      37.194 -22.210 -17.617  0.00  0.00    -0.320 N 
ATOM      9  C   UNL     1      34.821 -20.749 -19.773  0.00  0.00    +0.189 C 
ATOM     10  C   UNL     1      33.180 -20.011 -20.992  0.00  0.00    +0.203 C 
ATOM     11  C   UNL     1      33.665 -21.404 -19.466  0.00  0.00    +0.183 C 
ATOM     12  C   UNL     1      33.653 -22.434 -18.447  0.00  0.00    +0.224 C 
ATOM     13  C   UNL     1      35.969 -21.992 -18.196  0.00  0.00    +0.245 C 
ATOM     14  H   UNL     1      36.812 -20.516 -19.412  0.00  0.00    +0.152 HD
ATOM     15  H   UNL     1      37.974 -21.685 -17.906  0.00  0.00    +0.146 HD
ATOM     16  H   UNL     1      37.291 -22.891 -16.913  0.00  0.00    +0.146 HD
ENDBRANCH   2   4
ENDBRANCH   1   2
BRANCH   1  17
ATOM     17  C   UNL     1      34.948 -16.624 -22.261  0.00  0.00    +0.051 C 
BRANCH  17  18
ATOM     18  C   UNL     1      35.013 -15.756 -23.512  0.00  0.00    +0.208 C 
BRANCH  18  19
ATOM     19  O   UNL     1      33.701 -15.666 -24.076  0.00  0.00    -0.450 OA
BRANCH  19  21
ATOM     20  O   UNL     1      32.828 -14.137 -25.562  0.00  0.00    -0.252 OA
ATOM     21  C   UNL     1      33.314 -14.416 -24.474  0.00  0.00    +0.296 C 
BRANCH  21  22
ATOM     22  C   UNL     1      33.578 -13.426 -23.350  0.00  0.00    +0.036 C 
BRANCH  22  23
ATOM     23  N   UNL     1      33.960 -12.144 -23.945  0.00  0.00    +0.389 N 
ATOM     24  H   UNL     1      34.825 -12.258 -24.473  0.00  0.00    -0.088 HD
ATOM     25  H   UNL     1      34.101 -11.455 -23.207  0.00  0.00    -0.088 HD
ATOM     26  H   UNL     1      33.220 -11.826 -24.571  0.00  0.00    -0.088 HD
ENDBRANCH  22  23
BRANCH  22  27
ATOM     27  C   UNL     1      32.371 -13.309 -22.390  0.00  0.00    -0.010 C 
ATOM     28  C   UNL     1      32.622 -13.930 -21.010  0.00  0.00    -0.002 C 
ATOM     29  C   UNL     1      31.930 -11.851 -22.228  0.00  0.00    -0.002 C 
ENDBRANCH  22  27
ENDBRANCH  21  22
ENDBRANCH  19  21
ENDBRANCH  18  19
ENDBRANCH  17  18
ENDBRANCH   1  17
BRANCH   1  30
ATOM     30  C   UNL     1      35.311 -18.536 -23.926  0.00  0.00    +0.139 C 
BRANCH  30  31
ATOM     31  O   UNL     1      34.263 -18.639 -24.879  0.00  0.00    -0.382 OA
ATOM     32  H   UNL     1      34.550 -18.246 -25.718  0.00  0.00    +0.210 HD
ENDBRANCH  30  31
ENDBRANCH   1  30
TORSDOF 11
ENDMDL
MODEL 3
REMARK VINA RESULT:      -8.9      6.806     12.276
REMARK  Name = 193961
REMARK  11 active torsions:
REMARK  status: ('A' for Active; 'I' for Inactive)
REMARK    1  A    between atoms: C_1  and  C_2
REMARK    2  A    between atoms: C_1  and  C_17
REMARK    3  A    between atoms: C_1  and  C_30
REMARK    4  A    between atoms: C_2  and  N_4
REMARK    5  A    between atoms: C_17  and  C_18
REMARK    6  A    between atoms: C_18  and  O_19
REMARK    7  A    between atoms: O_19  and  C_21
REMARK    8  A    between atoms: C_21  and  C_22
REMARK    9  A    between atoms: C_22  and  N_23
REMARK   10  A    between atoms: C_22  and  C_27
REMARK   11  A    between atoms: C_30  and  O_31
REMARK                            x       y       z     vdW  Elec       q    Type
REMARK                         _______ _______ _______ _____ _____    ______ ____
ROOT
ATOM      1  C   UNL     1      32.985 -23.272 -14.751  0.00  0.00    +0.049 C 
ENDROOT
BRANCH   1   2
ATOM      2  C   UNL     1      34.178 -24.200 -15.075  0.00  0.00    +0.078 C 
BRANCH   2   4
ATOM      3  O   UNL     1      38.905 -22.818 -11.770  0.00  0.00    -0.208 OA
ATOM      4  N   UNL     1      35.444 -23.772 -14.487  0.00  0.00    -0.232 NA
ATOM      5  N   UNL     1      35.165 -24.350 -12.146  0.00  0.00    -0.279 N 
ATOM      6  N   UNL     1      37.497 -22.917 -14.358  0.00  0.00    -0.241 NA
ATOM      7  N   UNL     1      37.059 -23.806 -10.774  0.00  0.00    -0.301 NA
ATOM      8  N   UNL     1      35.123 -24.810  -9.881  0.00  0.00    -0.320 N 
ATOM      9  C   UNL     1      35.820 -23.861 -13.202  0.00  0.00    +0.189 C 
ATOM     10  C   UNL     1      36.484 -23.195 -15.160  0.00  0.00    +0.203 C 
ATOM     11  C   UNL     1      37.076 -23.337 -13.127  0.00  0.00    +0.183 C 
ATOM     12  C   UNL     1      37.775 -23.285 -11.860  0.00  0.00    +0.224 C 
ATOM     13  C   UNL     1      35.844 -24.297 -10.930  0.00  0.00    +0.245 C 
ATOM     14  H   UNL     1      34.257 -24.725 -12.221  0.00  0.00    +0.152 HD
ATOM     15  H   UNL     1      34.220 -25.168 -10.033  0.00  0.00    +0.146 HD
ATOM     16  H   UNL     1      35.511 -24.820  -8.975  0.00  0.00    +0.146 HD
ENDBRANCH   2   4
ENDBRANCH   1   2
BRANCH   1  17
ATOM     17  C   UNL     1      32.278 -22.911 -16.075  0.00  0.00    +0.051 C 
BRANCH  17  18
ATOM     18  C   UNL     1      32.910 -23.545 -17.308  0.00  0.00    +0.208 C 
BRANCH  18  19
ATOM     19  O   UNL     1      32.872 -22.600 -18.382  0.00  0.00    -0.450 OA
BRANCH  19  21
ATOM     20  O   UNL     1      34.241 -23.665 -19.898  0.00  0.00    -0.252 OA
ATOM     21  C   UNL     1      33.912 -22.669 -19.267  0.00  0.00    +0.296 C 
BRANCH  21  22
ATOM     22  C   UNL     1      34.595 -21.313 -19.348  0.00  0.00    +0.036 C 
BRANCH  22  23
ATOM     23  N   UNL     1      36.039 -21.516 -19.234  0.00  0.00    +0.389 N 
ATOM     24  H   UNL     1      36.384 -21.046 -18.396  0.00  0.00    -0.088 HD
ATOM     25  H   UNL     1      36.503 -21.130 -20.055  0.00  0.00    -0.088 HD
ATOM     26  H   UNL     1      36.239 -22.514 -19.169  0.00  0.00    -0.088 HD
ENDBRANCH  22  23
BRANCH  22  27
ATOM     27  C   UNL     1      34.194 -20.542 -20.629  0.00  0.00    -0.010 C 
ATOM     28  C   UNL     1      32.798 -19.912 -20.554  0.00  0.00    -0.002 C 
ATOM     29  C   UNL     1      35.228 -19.467 -20.976  0.00  0.00    -0.002 C 
ENDBRANCH  22  27
ENDBRANCH  21  22
ENDBRANCH  19  21
ENDBRANCH  18  19
ENDBRANCH  17  18
ENDBRANCH   1  17
BRANCH   1  30
ATOM     30  C   UNL     1      32.026 -23.904 -13.728  0.00  0.00    +0.139 C 
BRANCH  30  31
ATOM     31  O   UNL     1      32.544 -25.136 -13.248  0.00  0.00    -0.382 OA
ATOM     32  H   UNL     1      33.097 -24.972 -12.468  0.00  0.00    +0.210 HD
ENDBRANCH  30  31
ENDBRANCH   1  30
TORSDOF 11
ENDMDL
MODEL 4
REMARK VINA RESULT:      -8.9      2.987      5.165
REMARK  Name = 193961
REMARK  11 active torsions:
REMARK  status: ('A' for Active; 'I' for Inactive)
REMARK    1  A    between atoms: C_1  and  C_2
REMARK    2  A    between atoms: C_1  and  C_17
REMARK    3  A    between atoms: C_1  and  C_30
REMARK    4  A    between atoms: C_2  and  N_4
REMARK    5  A    between atoms: C_17  and  C_18
REMARK    6  A    between atoms: C_18  and  O_19
REMARK    7  A    between atoms: O_19  and  C_21
REMARK    8  A    between atoms: C_21  and  C_22
REMARK    9  A    between atoms: C_22  and  N_23
REMARK   10  A    between atoms: C_22  and  C_27
REMARK   11  A    between atoms: C_30  and  O_31
REMARK                            x       y       z     vdW  Elec       q    Type
REMARK                         _______ _______ _______ _____ _____    ______ ____
ROOT
ATOM      1  C   UNL     1      34.729 -20.159 -21.038  0.00  0.00    +0.049 C 
ENDROOT
BRANCH   1   2
ATOM      2  C   UNL     1      35.592 -19.019 -21.624  0.00  0.00    +0.078 C 
BRANCH   2   4
ATOM      3  O   UNL     1      33.638 -16.005 -26.344  0.00  0.00    -0.208 OA
ATOM      4  N   UNL     1      35.116 -18.510 -22.907  0.00  0.00    -0.232 NA
ATOM      5  N   UNL     1      34.826 -16.141 -22.465  0.00  0.00    -0.279 N 
ATOM      6  N   UNL     1      34.478 -18.513 -25.041  0.00  0.00    -0.241 NA
ATOM      7  N   UNL     1      34.035 -14.886 -24.354  0.00  0.00    -0.301 NA
ATOM      8  N   UNL     1      34.473 -13.864 -22.275  0.00  0.00    -0.320 N 
ATOM      9  C   UNL     1      34.796 -17.244 -23.217  0.00  0.00    +0.189 C 
ATOM     10  C   UNL     1      34.912 -19.253 -24.036  0.00  0.00    +0.203 C 
ATOM     11  C   UNL     1      34.407 -17.250 -24.523  0.00  0.00    +0.183 C 
ATOM     12  C   UNL     1      33.992 -16.023 -25.171  0.00  0.00    +0.224 C 
ATOM     13  C   UNL     1      34.426 -14.964 -23.095  0.00  0.00    +0.245 C 
ATOM     14  H   UNL     1      35.110 -16.158 -21.522  0.00  0.00    +0.152 HD
ATOM     15  H   UNL     1      34.770 -13.959 -21.342  0.00  0.00    +0.146 HD
ATOM     16  H   UNL     1      34.210 -12.980 -22.622  0.00  0.00    +0.146 HD
ENDBRANCH   2   4
ENDBRANCH   1   2
BRANCH   1  17
ATOM     17  C   UNL     1      35.478 -20.764 -19.832  0.00  0.00    +0.051 C 
BRANCH  17  18
ATOM     18  C   UNL     1      35.174 -22.237 -19.588  0.00  0.00    +0.208 C 
BRANCH  18  19
ATOM     19  O   UNL     1      34.882 -22.422 -18.199  0.00  0.00    -0.450 OA
BRANCH  19  21
ATOM     20  O   UNL     1      32.607 -22.329 -18.548  0.00  0.00    -0.252 OA
ATOM     21  C   UNL     1      33.577 -22.703 -17.903  0.00  0.00    +0.296 C 
BRANCH  21  22
ATOM     22  C   UNL     1      33.519 -23.558 -16.646  0.00  0.00    +0.036 C 
BRANCH  22  23
ATOM     23  N   UNL     1      34.810 -23.463 -15.964  0.00  0.00    +0.389 N 
ATOM     24  H   UNL     1      34.676 -23.596 -14.961  0.00  0.00    -0.088 HD
ATOM     25  H   UNL     1      35.217 -22.543 -16.132  0.00  0.00    -0.088 HD
ATOM     26  H   UNL     1      35.438 -24.183 -16.321  0.00  0.00    -0.088 HD
ENDBRANCH  22  23
BRANCH  22  27
ATOM     27  C   UNL     1      32.328 -23.168 -15.740  0.00  0.00    -0.010 C 
ATOM     28  C   UNL     1      31.035 -23.928 -16.063  0.00  0.00    -0.002 C 
ATOM     29  C   UNL     1      32.676 -23.348 -14.258  0.00  0.00    -0.002 C 
ENDBRANCH  22  27
ENDBRANCH  21  22
ENDBRANCH  19  21
ENDBRANCH  18  19
ENDBRANCH  17  18
ENDBRANCH   1  17
BRANCH   1  30
ATOM     30  C   UNL     1      33.315 -19.679 -20.668  0.00  0.00    +0.139 C 
BRANCH  30  31
ATOM     31  O   UNL     1      32.374 -20.735 -20.798  0.00  0.00    -0.382 OA
ATOM     32  H   UNL     1      32.207 -20.905 -21.738  0.00  0.00    +0.210 HD
ENDBRANCH  30  31
ENDBRANCH   1  30
TORSDOF 11
ENDMDL
MODEL 5
REMARK VINA RESULT:      -8.9      3.107      4.495
REMARK  Name = 193961
REMARK  11 active torsions:
REMARK  status: ('A' for Active; 'I' for Inactive)
REMARK    1  A    between atoms: C_1  and  C_2
REMARK    2  A    between atoms: C_1  and  C_17
REMARK    3  A    between atoms: C_1  and  C_30
REMARK    4  A    between atoms: C_2  and  N_4
REMARK    5  A    between atoms: C_17  and  C_18
REMARK    6  A    between atoms: C_18  and  O_19
REMARK    7  A    between atoms: O_19  and  C_21
REMARK    8  A    between atoms: C_21  and  C_22
REMARK    9  A    between atoms: C_22  and  N_23
REMARK   10  A    between atoms: C_22  and  C_27
REMARK   11  A    between atoms: C_30  and  O_31
REMARK                            x       y       z     vdW  Elec       q    Type
REMARK                         _______ _______ _______ _____ _____    ______ ____
ROOT
ATOM      1  C   UNL     1      32.531 -12.968 -21.930  0.00  0.00    +0.049 C 
ENDROOT
BRANCH   1   2
ATOM      2  C   UNL     1      31.333 -12.062 -21.565  0.00  0.00    +0.078 C 
BRANCH   2   4
ATOM      3  O   UNL     1      32.850  -6.780 -19.332  0.00  0.00    -0.208 OA
ATOM      4  N   UNL     1      31.693 -10.883 -20.783  0.00  0.00    -0.232 NA
ATOM      5  N   UNL     1      31.995  -9.184 -22.490  0.00  0.00    -0.279 N 
ATOM      6  N   UNL     1      32.149  -9.625 -19.002  0.00  0.00    -0.241 NA
ATOM      7  N   UNL     1      32.610  -7.030 -21.624  0.00  0.00    -0.301 NA
ATOM      8  N   UNL     1      32.338  -7.412 -23.934  0.00  0.00    -0.320 N 
ATOM      9  C   UNL     1      31.972  -9.652 -21.240  0.00  0.00    +0.189 C 
ATOM     10  C   UNL     1      31.809 -10.831 -19.422  0.00  0.00    +0.203 C 
ATOM     11  C   UNL     1      32.251  -8.886 -20.147  0.00  0.00    +0.183 C 
ATOM     12  C   UNL     1      32.596  -7.487 -20.301  0.00  0.00    +0.224 C 
ATOM     13  C   UNL     1      32.328  -7.838 -22.630  0.00  0.00    +0.245 C 
ATOM     14  H   UNL     1      31.791  -9.754 -23.266  0.00  0.00    +0.152 HD
ATOM     15  H   UNL     1      32.122  -8.041 -24.659  0.00  0.00    +0.146 HD
ATOM     16  H   UNL     1      32.561  -6.476 -24.144  0.00  0.00    +0.146 HD
ENDBRANCH   2   4
ENDBRANCH   1   2
BRANCH   1  17
ATOM     17  C   UNL     1      32.557 -14.157 -20.946  0.00  0.00    +0.051 C 
BRANCH  17  18
ATOM     18  C   UNL     1      33.910 -14.852 -20.849  0.00  0.00    +0.208 C 
BRANCH  18  19
ATOM     19  O   UNL     1      33.796 -16.160 -21.417  0.00  0.00    -0.450 OA
BRANCH  19  21
ATOM     20  O   UNL     1      35.222 -15.612 -23.141  0.00  0.00    -0.252 OA
ATOM     21  C   UNL     1      34.667 -16.441 -22.433  0.00  0.00    +0.296 C 
BRANCH  21  22
ATOM     22  C   UNL     1      34.843 -17.948 -22.542  0.00  0.00    +0.036 C 
BRANCH  22  23
ATOM     23  N   UNL     1      36.047 -18.216 -23.330  0.00  0.00    +0.389 N 
ATOM     24  H   UNL     1      35.923 -19.080 -23.857  0.00  0.00    -0.088 HD
ATOM     25  H   UNL     1      36.847 -18.311 -22.705  0.00  0.00    -0.088 HD
ATOM     26  H   UNL     1      36.210 -17.444 -23.976  0.00  0.00    -0.088 HD
ENDBRANCH  22  23
BRANCH  22  27
ATOM     27  C   UNL     1      34.867 -18.628 -21.153  0.00  0.00    -0.010 C 
ATOM     28  C   UNL     1      33.766 -19.678 -20.963  0.00  0.00    -0.002 C 
ATOM     29  C   UNL     1      36.235 -19.256 -20.867  0.00  0.00    -0.002 C 
ENDBRANCH  22  27
ENDBRANCH  21  22
ENDBRANCH  19  21
ENDBRANCH  18  19
ENDBRANCH  17  18
ENDBRANCH   1  17
BRANCH   1  30
ATOM     30  C   UNL     1      32.481 -13.423 -23.398  0.00  0.00    +0.139 C 
BRANCH  30  31
ATOM     31  O   UNL     1      33.744 -13.248 -24.023  0.00  0.00    -0.382 OA
ATOM     32  H   UNL     1      34.426 -13.705 -23.506  0.00  0.00    +0.210 HD
ENDBRANCH  30  31
ENDBRANCH   1  30
TORSDOF 11
ENDMDL
MODEL 6
REMARK VINA RESULT:      -8.8      6.907     11.745
REMARK  Name = 193961
REMARK  11 active torsions:
REMARK  status: ('A' for Active; 'I' for Inactive)
REMARK    1  A    between atoms: C_1  and  C_2
REMARK    2  A    between atoms: C_1  and  C_17
REMARK    3  A    between atoms: C_1  and  C_30
REMARK    4  A    between atoms: C_2  and  N_4
REMARK    5  A    between atoms: C_17  and  C_18
REMARK    6  A    between atoms: C_18  and  O_19
REMARK    7  A    between atoms: O_19  and  C_21
REMARK    8  A    between atoms: C_21  and  C_22
REMARK    9  A    between atoms: C_22  and  N_23
REMARK   10  A    between atoms: C_22  and  C_27
REMARK   11  A    between atoms: C_30  and  O_31
REMARK                            x       y       z     vdW  Elec       q    Type
REMARK                         _______ _______ _______ _____ _____    ______ ____
ROOT
ATOM      1  C   UNL     1      31.912 -23.403 -14.712  0.00  0.00    +0.049 C 
ENDROOT
BRANCH   1   2
ATOM      2  C   UNL     1      32.974 -24.517 -14.570  0.00  0.00    +0.078 C 
BRANCH   2   4
ATOM      3  O   UNL     1      37.854 -23.107 -11.507  0.00  0.00    -0.208 OA
ATOM      4  N   UNL     1      34.028 -24.218 -13.605  0.00  0.00    -0.232 NA
ATOM      5  N   UNL     1      35.903 -23.629 -15.030  0.00  0.00    -0.279 N 
ATOM      6  N   UNL     1      35.032 -23.952 -11.635  0.00  0.00    -0.241 NA
ATOM      7  N   UNL     1      37.899 -23.051 -13.824  0.00  0.00    -0.301 NA
ATOM      8  N   UNL     1      37.818 -23.035 -16.180  0.00  0.00    -0.320 N 
ATOM      9  C   UNL     1      35.288 -23.836 -13.862  0.00  0.00    +0.189 C 
ATOM     10  C   UNL     1      33.906 -24.278 -12.245  0.00  0.00    +0.203 C 
ATOM     11  C   UNL     1      35.899 -23.674 -12.654  0.00  0.00    +0.183 C 
ATOM     12  C   UNL     1      37.285 -23.259 -12.583  0.00  0.00    +0.224 C 
ATOM     13  C   UNL     1      37.236 -23.230 -14.952  0.00  0.00    +0.245 C 
ATOM     14  H   UNL     1      35.444 -23.752 -15.892  0.00  0.00    +0.152 HD
ATOM     15  H   UNL     1      37.294 -23.177 -17.000  0.00  0.00    +0.146 HD
ATOM     16  H   UNL     1      38.759 -22.751 -16.239  0.00  0.00    +0.146 HD
ENDBRANCH   2   4
ENDBRANCH   1   2
BRANCH   1  17
ATOM     17  C   UNL     1      31.707 -23.116 -16.215  0.00  0.00    +0.051 C 
BRANCH  17  18
ATOM     18  C   UNL     1      32.965 -23.294 -17.057  0.00  0.00    +0.208 C 
BRANCH  18  19
ATOM     19  O   UNL     1      32.783 -22.616 -18.304  0.00  0.00    -0.450 OA
BRANCH  19  21
ATOM     20  O   UNL     1      34.096 -23.733 -19.832  0.00  0.00    -0.252 OA
ATOM     21  C   UNL     1      33.815 -22.727 -19.193  0.00  0.00    +0.296 C 
BRANCH  21  22
ATOM     22  C   UNL     1      34.560 -21.403 -19.268  0.00  0.00    +0.036 C 
BRANCH  22  23
ATOM     23  N   UNL     1      35.992 -21.671 -19.131  0.00  0.00    +0.389 N 
ATOM     24  H   UNL     1      36.493 -20.791 -19.011  0.00  0.00    -0.088 HD
ATOM     25  H   UNL     1      36.331 -22.143 -19.969  0.00  0.00    -0.088 HD
ATOM     26  H   UNL     1      36.151 -22.266 -18.318  0.00  0.00    -0.088 HD
ENDBRANCH  22  23
BRANCH  22  27
ATOM     27  C   UNL     1      34.213 -20.620 -20.556  0.00  0.00    -0.010 C 
ATOM     28  C   UNL     1      32.837 -19.944 -20.513  0.00  0.00    -0.002 C 
ATOM     29  C   UNL     1      35.290 -19.579 -20.879  0.00  0.00    -0.002 C 
ENDBRANCH  22  27
ENDBRANCH  21  22
ENDBRANCH  19  21
ENDBRANCH  18  19
ENDBRANCH  17  18
ENDBRANCH   1  17
BRANCH   1  30
ATOM     30  C   UNL     1      30.598 -23.767 -14.000  0.00  0.00    +0.139 C 
BRANCH  30  31
ATOM     31  O   UNL     1      30.699 -25.039 -13.376  0.00  0.00    -0.382 OA
ATOM     32  H   UNL     1      30.483 -24.955 -12.435  0.00  0.00    +0.210 HD
ENDBRANCH  30  31
ENDBRANCH   1  30
TORSDOF 11
ENDMDL
MODEL 7
REMARK VINA RESULT:      -8.8      1.991      3.939
REMARK  Name = 193961
REMARK  11 active torsions:
REMARK  status: ('A' for Active; 'I' for Inactive)
REMARK    1  A    between atoms: C_1  and  C_2
REMARK    2  A    between atoms: C_1  and  C_17
REMARK    3  A    between atoms: C_1  and  C_30
REMARK    4  A    between atoms: C_2  and  N_4
REMARK    5  A    between atoms: C_17  and  C_18
REMARK    6  A    between atoms: C_18  and  O_19
REMARK    7  A    between atoms: O_19  and  C_21
REMARK    8  A    between atoms: C_21  and  C_22
REMARK    9  A    between atoms: C_22  and  N_23
REMARK   10  A    between atoms: C_22  and  C_27
REMARK   11  A    between atoms: C_30  and  O_31
REMARK                            x       y       z     vdW  Elec       q    Type
REMARK                         _______ _______ _______ _____ _____    ______ ____
ROOT
ATOM      1  C   UNL     1      33.362 -15.383 -21.169  0.00  0.00    +0.049 C 
ENDROOT
BRANCH   1   2
ATOM      2  C   UNL     1      33.603 -13.890 -21.491  0.00  0.00    +0.078 C 
BRANCH   2   4
ATOM      3  O   UNL     1      33.254 -13.563 -27.403  0.00  0.00    -0.208 OA
ATOM      4  N   UNL     1      33.468 -13.555 -22.906  0.00  0.00    -0.232 NA
ATOM      5  N   UNL     1      33.838 -15.692 -23.996  0.00  0.00    -0.279 N 
ATOM      6  N   UNL     1      33.137 -12.322 -24.731  0.00  0.00    -0.241 NA
ATOM      7  N   UNL     1      33.704 -15.600 -26.392  0.00  0.00    -0.301 NA
ATOM      8  N   UNL     1      34.158 -17.609 -25.246  0.00  0.00    -0.320 N 
ATOM      9  C   UNL     1      33.582 -14.382 -23.956  0.00  0.00    +0.189 C 
ATOM     10  C   UNL     1      33.198 -12.314 -23.411  0.00  0.00    +0.203 C 
ATOM     11  C   UNL     1      33.378 -13.624 -25.071  0.00  0.00    +0.183 C 
ATOM     12  C   UNL     1      33.434 -14.226 -26.388  0.00  0.00    +0.224 C 
ATOM     13  C   UNL     1      33.890 -16.264 -25.266  0.00  0.00    +0.245 C 
ATOM     14  H   UNL     1      33.982 -16.222 -23.179  0.00  0.00    +0.152 HD
ATOM     15  H   UNL     1      34.290 -18.072 -24.389  0.00  0.00    +0.146 HD
ATOM     16  H   UNL     1      34.217 -18.111 -26.092  0.00  0.00    +0.146 HD
ENDBRANCH   2   4
ENDBRANCH   1   2
BRANCH   1  17
ATOM     17  C   UNL     1      34.594 -15.919 -20.410  0.00  0.00    +0.051 C 
BRANCH  17  18
ATOM     18  C   UNL     1      35.251 -17.127 -21.067  0.00  0.00    +0.208 C 
BRANCH  18  19
ATOM     19  O   UNL     1      34.305 -17.740 -21.949  0.00  0.00    -0.450 OA
BRANCH  19  21
ATOM     20  O   UNL     1      34.726 -19.721 -23.047  0.00  0.00    -0.252 OA
ATOM     21  C   UNL     1      34.387 -19.101 -22.048  0.00  0.00    +0.296 C 
BRANCH  21  22
ATOM     22  C   UNL     1      33.992 -19.727 -20.719  0.00  0.00    +0.036 C 
BRANCH  22  23
ATOM     23  N   UNL     1      32.561 -20.027 -20.757  0.00  0.00    +0.389 N 
ATOM     24  H   UNL     1      32.030 -19.176 -20.570  0.00  0.00    -0.088 HD
ATOM     25  H   UNL     1      32.341 -20.727 -20.049  0.00  0.00    -0.088 HD
ATOM     26  H   UNL     1      32.312 -20.386 -21.679  0.00  0.00    -0.088 HD
ENDBRANCH  22  23
BRANCH  22  27
ATOM     27  C   UNL     1      34.859 -20.965 -20.386  0.00  0.00    -0.010 C 
ATOM     28  C   UNL     1      36.297 -20.617 -19.980  0.00  0.00    -0.002 C 
ATOM     29  C   UNL     1      34.207 -21.821 -19.296  0.00  0.00    -0.002 C 
ENDBRANCH  22  27
ENDBRANCH  21  22
ENDBRANCH  19  21
ENDBRANCH  18  19
ENDBRANCH  17  18
ENDBRANCH   1  17
BRANCH   1  30
ATOM     30  C   UNL     1      32.053 -15.600 -20.392  0.00  0.00    +0.139 C 
BRANCH  30  31
ATOM     31  O   UNL     1      31.540 -16.904 -20.624  0.00  0.00    -0.382 OA
ATOM     32  H   UNL     1      31.195 -16.959 -21.528  0.00  0.00    +0.210 HD
ENDBRANCH  30  31
ENDBRANCH   1  30
TORSDOF 11
ENDMDL
MODEL 8
REMARK VINA RESULT:      -8.8      1.732      2.592
REMARK  Name = 193961
REMARK  11 active torsions:
REMARK  status: ('A' for Active; 'I' for Inactive)
REMARK    1  A    between atoms: C_1  and  C_2
REMARK    2  A    between atoms: C_1  and  C_17
REMARK    3  A    between atoms: C_1  and  C_30
REMARK    4  A    between atoms: C_2  and  N_4
REMARK    5  A    between atoms: C_17  and  C_18
REMARK    6  A    between atoms: C_18  and  O_19
REMARK    7  A    between atoms: O_19  and  C_21
REMARK    8  A    between atoms: C_21  and  C_22
REMARK    9  A    between atoms: C_22  and  N_23
REMARK   10  A    between atoms: C_22  and  C_27
REMARK   11  A    between atoms: C_30  and  O_31
REMARK                            x       y       z     vdW  Elec       q    Type
REMARK                         _______ _______ _______ _____ _____    ______ ____
ROOT
ATOM      1  C   UNL     1      34.121 -14.655 -22.414  0.00  0.00    +0.049 C 
ENDROOT
BRANCH   1   2
ATOM      2  C   UNL     1      32.622 -14.281 -22.375  0.00  0.00    +0.078 C 
BRANCH   2   4
ATOM      3  O   UNL     1      32.305  -8.363 -22.624  0.00  0.00    -0.208 OA
ATOM      4  N   UNL     1      32.366 -12.849 -22.245  0.00  0.00    -0.232 NA
ATOM      5  N   UNL     1      33.842 -11.891 -23.918  0.00  0.00    -0.279 N 
ATOM      6  N   UNL     1      31.478 -10.953 -21.484  0.00  0.00    -0.241 NA
ATOM      7  N   UNL     1      33.741  -9.495 -24.048  0.00  0.00    -0.301 NA
ATOM      8  N   UNL     1      35.163 -10.760 -25.440  0.00  0.00    -0.320 N 
ATOM      9  C   UNL     1      32.929 -11.852 -22.944  0.00  0.00    +0.189 C 
ATOM     10  C   UNL     1      31.492 -12.270 -21.369  0.00  0.00    +0.203 C 
ATOM     11  C   UNL     1      32.383 -10.693 -22.476  0.00  0.00    +0.183 C 
ATOM     12  C   UNL     1      32.783  -9.416 -23.030  0.00  0.00    +0.224 C 
ATOM     13  C   UNL     1      34.222 -10.659 -24.446  0.00  0.00    +0.245 C 
ATOM     14  H   UNL     1      34.224 -12.739 -24.241  0.00  0.00    +0.152 HD
ATOM     15  H   UNL     1      35.499 -11.643 -25.711  0.00  0.00    +0.146 HD
ATOM     16  H   UNL     1      35.501  -9.947 -25.881  0.00  0.00    +0.146 HD
ENDBRANCH   2   4
ENDBRANCH   1   2
BRANCH   1  17
ATOM     17  C   UNL     1      34.472 -15.388 -21.102  0.00  0.00    +0.051 C 
BRANCH  17  18
ATOM     18  C   UNL     1      33.968 -16.826 -21.041  0.00  0.00    +0.208 C 
BRANCH  18  19
ATOM     19  O   UNL     1      35.093 -17.701 -20.912  0.00  0.00    -0.450 OA
BRANCH  19  21
ATOM     20  O   UNL     1      34.836 -18.822 -22.907  0.00  0.00    -0.252 OA
ATOM     21  C   UNL     1      35.070 -18.813 -21.706  0.00  0.00    +0.296 C 
BRANCH  21  22
ATOM     22  C   UNL     1      35.385 -20.040 -20.864  0.00  0.00    +0.036 C 
BRANCH  22  23
ATOM     23  N   UNL     1      36.593 -19.766 -20.084  0.00  0.00    +0.389 N 
ATOM     24  H   UNL     1      37.375 -19.596 -20.716  0.00  0.00    -0.088 HD
ATOM     25  H   UNL     1      36.803 -20.568 -19.491  0.00  0.00    -0.088 HD
ATOM     26  H   UNL     1      36.442 -18.942 -19.502  0.00  0.00    -0.088 HD
ENDBRANCH  22  23
BRANCH  22  27
ATOM     27  C   UNL     1      34.183 -20.460 -19.986  0.00  0.00    -0.010 C 
ATOM     28  C   UNL     1      32.828 -20.324 -20.694  0.00  0.00    -0.002 C 
ATOM     29  C   UNL     1      34.351 -21.891 -19.464  0.00  0.00    -0.002 C 
ENDBRANCH  22  27
ENDBRANCH  21  22
ENDBRANCH  19  21
ENDBRANCH  18  19
ENDBRANCH  17  18
ENDBRANCH   1  17
BRANCH   1  30
ATOM     30  C   UNL     1      34.476 -15.482 -23.661  0.00  0.00    +0.139 C 
BRANCH  30  31
ATOM     31  O   UNL     1      35.782 -16.027 -23.550  0.00  0.00    -0.382 OA
ATOM     32  H   UNL     1      35.758 -16.808 -22.975  0.00  0.00    +0.210 HD
ENDBRANCH  30  31
ENDBRANCH   1  30
TORSDOF 11
ENDMDL
MODEL 9
REMARK VINA RESULT:      -8.7      4.290      9.408
REMARK  Name = 193961
REMARK  11 active torsions:
REMARK  status: ('A' for Active; 'I' for Inactive)
REMARK    1  A    between atoms: C_1  and  C_2
REMARK    2  A    between atoms: C_1  and  C_17
REMARK    3  A    between atoms: C_1  and  C_30
REMARK    4  A    between atoms: C_2  and  N_4
REMARK    5  A    between atoms: C_17  and  C_18
REMARK    6  A    between atoms: C_18  and  O_19
REMARK    7  A    between atoms: O_19  and  C_21
REMARK    8  A    between atoms: C_21  and  C_22
REMARK    9  A    between atoms: C_22  and  N_23
REMARK   10  A    between atoms: C_22  and  C_27
REMARK   11  A    between atoms: C_30  and  O_31
REMARK                            x       y       z     vdW  Elec       q    Type
REMARK                         _______ _______ _______ _____ _____    ______ ____
ROOT
ATOM      1  C   UNL     1      34.520 -21.508 -19.277  0.00  0.00    +0.049 C 
ENDROOT
BRANCH   1   2
ATOM      2  C   UNL     1      34.139 -22.939 -18.834  0.00  0.00    +0.078 C 
BRANCH   2   4
ATOM      3  O   UNL     1      32.100 -23.367 -13.281  0.00  0.00    -0.208 OA
ATOM      4  N   UNL     1      33.890 -23.074 -17.402  0.00  0.00    -0.232 NA
ATOM      5  N   UNL     1      31.474 -22.875 -17.262  0.00  0.00    -0.279 N 
ATOM      6  N   UNL     1      34.310 -23.350 -15.232  0.00  0.00    -0.241 NA
ATOM      7  N   UNL     1      30.611 -23.043 -15.027  0.00  0.00    -0.301 NA
ATOM      8  N   UNL     1      29.200 -22.712 -16.886  0.00  0.00    -0.320 N 
ATOM      9  C   UNL     1      32.706 -23.037 -16.771  0.00  0.00    +0.189 C 
ATOM     10  C   UNL     1      34.841 -23.266 -16.440  0.00  0.00    +0.203 C 
ATOM     11  C   UNL     1      32.968 -23.207 -15.444  0.00  0.00    +0.183 C 
ATOM     12  C   UNL     1      31.888 -23.216 -14.478  0.00  0.00    +0.224 C 
ATOM     13  C   UNL     1      30.441 -22.885 -16.327  0.00  0.00    +0.245 C 
ATOM     14  H   UNL     1      31.307 -22.753 -18.224  0.00  0.00    +0.152 HD
ATOM     15  H   UNL     1      29.110 -22.597 -17.858  0.00  0.00    +0.146 HD
ATOM     16  H   UNL     1      28.399 -22.702 -16.312  0.00  0.00    +0.146 HD
ENDBRANCH   2   4
ENDBRANCH   1   2
BRANCH   1  17
ATOM     17  C   UNL     1      35.807 -21.589 -20.125  0.00  0.00    +0.051 C 
BRANCH  17  18
ATOM     18  C   UNL     1      36.745 -20.402 -19.943  0.00  0.00    +0.208 C 
BRANCH  18  19
ATOM     19  O   UNL     1      36.048 -19.206 -20.305  0.00  0.00    -0.450 OA
BRANCH  19  21
ATOM     20  O   UNL     1      37.420 -18.565 -22.041  0.00  0.00    -0.252 OA
ATOM     21  C   UNL     1      36.307 -18.728 -21.559  0.00  0.00    +0.296 C 
BRANCH  21  22
ATOM     22  C   UNL     1      34.992 -18.434 -22.266  0.00  0.00    +0.036 C 
BRANCH  22  23
ATOM     23  N   UNL     1      34.228 -17.494 -21.447  0.00  0.00    +0.389 N 
ATOM     24  H   UNL     1      34.862 -16.810 -21.033  0.00  0.00    -0.088 HD
ATOM     25  H   UNL     1      33.745 -18.002 -20.707  0.00  0.00    -0.088 HD
ATOM     26  H   UNL     1      33.544 -17.012 -22.031  0.00  0.00    -0.088 HD
ENDBRANCH  22  23
BRANCH  22  27
ATOM     27  C   UNL     1      35.217 -17.931 -23.712  0.00  0.00    -0.010 C 
ATOM     28  C   UNL     1      34.411 -18.704 -24.764  0.00  0.00    -0.002 C 
ATOM     29  C   UNL     1      34.918 -16.433 -23.831  0.00  0.00    -0.002 C 
ENDBRANCH  22  27
ENDBRANCH  21  22
ENDBRANCH  19  21
ENDBRANCH  18  19
ENDBRANCH  17  18
ENDBRANCH   1  17
BRANCH   1  30
ATOM     30  C   UNL     1      33.369 -20.811 -20.023  0.00  0.00    +0.139 C 
BRANCH  30  31
ATOM     31  O   UNL     1      32.221 -20.708 -19.193  0.00  0.00    -0.382 OA
ATOM     32  H   UNL     1      32.112 -21.530 -18.689  0.00  0.00    +0.210 HD
ENDBRANCH  30  31
ENDBRANCH   1  30
TORSDOF 11
ENDMDL
