MODEL 1
REMARK VINA RESULT:      -4.2      0.000      0.000
REMARK  Name = 1349907
REMARK  0 active torsions:
REMARK  status: ('A' for Active; 'I' for Inactive)
REMARK                            x       y       z     vdW  Elec       q    Type
REMARK                         _______ _______ _______ _____ _____    ______ ____
ROOT
ATOM      1  S   UNL     1      33.637 -22.767 -18.280  0.00  0.00    -0.018 S 
ATOM      2  N   UNL     1      34.903 -20.912 -19.945  0.00  0.00    -0.266 N 
ATOM      3  N   UNL     1      32.661 -20.821 -19.930  0.00  0.00    -0.293 N 
ATOM      4  C   UNL     1      33.757 -21.520 -19.368  0.00  0.00    +0.142 C 
ATOM      5  C   UNL     1      34.476 -19.911 -20.796  0.00  0.00    +0.083 C 
ATOM      6  C   UNL     1      36.303 -21.221 -19.736  0.00  0.00    +0.119 C 
ATOM      7  C   UNL     1      33.138 -19.860 -20.785  0.00  0.00    +0.080 C 
ATOM      8  H   UNL     1      31.711 -20.995 -19.738  0.00  0.00    +0.154 HD
ENDROOT
TORSDOF 0
ENDMDL
MODEL 2
REMARK VINA RESULT:      -4.1      1.852      2.520
REMARK  Name = 1349907
REMARK  0 active torsions:
REMARK  status: ('A' for Active; 'I' for Inactive)
REMARK                            x       y       z     vdW  Elec       q    Type
REMARK                         _______ _______ _______ _____ _____    ______ ____
ROOT
ATOM      1  S   UNL     1      33.072 -19.818 -20.860  0.00  0.00    -0.018 S 
ATOM      2  N   UNL     1      34.901 -21.397 -19.455  0.00  0.00    -0.266 N 
ATOM      3  N   UNL     1      32.738 -21.839 -19.052  0.00  0.00    -0.293 N 
ATOM      4  C   UNL     1      33.587 -20.995 -19.810  0.00  0.00    +0.142 C 
ATOM      5  C   UNL     1      34.802 -22.425 -18.536  0.00  0.00    +0.083 C 
ATOM      6  C   UNL     1      36.171 -20.880 -19.922  0.00  0.00    +0.119 C 
ATOM      7  C   UNL     1      33.511 -22.685 -18.299  0.00  0.00    +0.080 C 
ATOM      8  H   UNL     1      31.754 -21.821 -19.065  0.00  0.00    +0.154 HD
ENDROOT
TORSDOF 0
ENDMDL
MODEL 3
REMARK VINA RESULT:      -4.0      1.760      2.832
REMARK  Name = 1349907
REMARK  0 active torsions:
REMARK  status: ('A' for Active; 'I' for Inactive)
REMARK                            x       y       z     vdW  Elec       q    Type
REMARK                         _______ _______ _______ _____ _____    ______ ____
ROOT
ATOM      1  S   UNL     1      35.551 -21.750 -19.390  0.00  0.00    -0.018 S 
ATOM      2  N   UNL     1      34.203 -19.709 -20.744  0.00  0.00    -0.266 N 
ATOM      3  N   UNL     1      36.427 -19.451 -20.579  0.00  0.00    -0.293 N 
ATOM      4  C   UNL     1      35.372 -20.328 -20.227  0.00  0.00    +0.142 C 
ATOM      5  C   UNL     1      34.579 -18.532 -21.362  0.00  0.00    +0.083 C 
ATOM      6  C   UNL     1      32.828 -20.159 -20.680  0.00  0.00    +0.119 C 
ATOM      7  C   UNL     1      35.906 -18.382 -21.261  0.00  0.00    +0.080 C 
ATOM      8  H   UNL     1      37.378 -19.587 -20.367  0.00  0.00    +0.154 HD
ENDROOT
TORSDOF 0
ENDMDL
MODEL 4
REMARK VINA RESULT:      -4.0      2.425      3.573
REMARK  Name = 1349907
REMARK  0 active torsions:
REMARK  status: ('A' for Active; 'I' for Inactive)
REMARK                            x       y       z     vdW  Elec       q    Type
REMARK                         _______ _______ _______ _____ _____    ______ ____
ROOT
ATOM      1  S   UNL     1      35.637 -18.292 -21.578  0.00  0.00    -0.018 S 
ATOM      2  N   UNL     1      34.322 -20.411 -20.316  0.00  0.00    -0.266 N 
ATOM      3  N   UNL     1      36.543 -20.330 -20.000  0.00  0.00    -0.293 N 
ATOM      4  C   UNL     1      35.478 -19.658 -20.649  0.00  0.00    +0.142 C 
ATOM      5  C   UNL     1      34.714 -21.465 -19.513  0.00  0.00    +0.083 C 
ATOM      6  C   UNL     1      32.944 -20.189 -20.703  0.00  0.00    +0.119 C 
ATOM      7  C   UNL     1      36.039 -21.413 -19.327  0.00  0.00    +0.080 C 
ATOM      8  H   UNL     1      37.489 -20.063 -20.028  0.00  0.00    +0.154 HD
ENDROOT
TORSDOF 0
ENDMDL
MODEL 5
REMARK VINA RESULT:      -4.0      4.564      5.324
REMARK  Name = 1349907
REMARK  0 active torsions:
REMARK  status: ('A' for Active; 'I' for Inactive)
REMARK                            x       y       z     vdW  Elec       q    Type
REMARK                         _______ _______ _______ _____ _____    ______ ____
ROOT
ATOM      1  S   UNL     1      34.384 -15.237 -20.713  0.00  0.00    -0.018 S 
ATOM      2  N   UNL     1      35.075 -16.973 -22.792  0.00  0.00    -0.266 N 
ATOM      3  N   UNL     1      35.495 -17.732 -20.723  0.00  0.00    -0.293 N 
ATOM      4  C   UNL     1      34.971 -16.618 -21.422  0.00  0.00    +0.142 C 
ATOM      5  C   UNL     1      35.634 -18.234 -22.868  0.00  0.00    +0.083 C 
ATOM      6  C   UNL     1      34.690 -16.213 -23.964  0.00  0.00    +0.119 C 
ATOM      7  C   UNL     1      35.883 -18.684 -21.631  0.00  0.00    +0.080 C 
ATOM      8  H   UNL     1      35.569 -17.812 -19.745  0.00  0.00    +0.154 HD
ENDROOT
TORSDOF 0
ENDMDL
MODEL 6
REMARK VINA RESULT:      -4.0      1.725      1.956
REMARK  Name = 1349907
REMARK  0 active torsions:
REMARK  status: ('A' for Active; 'I' for Inactive)
REMARK                            x       y       z     vdW  Elec       q    Type
REMARK                         _______ _______ _______ _____ _____    ______ ____
ROOT
ATOM      1  S   UNL     1      36.336 -21.494 -19.344  0.00  0.00    -0.018 S 
ATOM      2  N   UNL     1      35.024 -19.535 -20.846  0.00  0.00    -0.266 N 
ATOM      3  N   UNL     1      33.691 -21.047 -19.859  0.00  0.00    -0.293 N 
ATOM      4  C   UNL     1      35.051 -20.688 -20.017  0.00  0.00    +0.142 C 
ATOM      5  C   UNL     1      33.705 -19.253 -21.145  0.00  0.00    +0.083 C 
ATOM      6  C   UNL     1      36.129 -18.737 -21.337  0.00  0.00    +0.119 C 
ATOM      7  C   UNL     1      32.913 -20.157 -20.554  0.00  0.00    +0.080 C 
ATOM      8  H   UNL     1      33.358 -21.811 -19.335  0.00  0.00    +0.154 HD
ENDROOT
TORSDOF 0
ENDMDL
MODEL 7
REMARK VINA RESULT:      -4.0      4.824      5.450
REMARK  Name = 1349907
REMARK  0 active torsions:
REMARK  status: ('A' for Active; 'I' for Inactive)
REMARK                            x       y       z     vdW  Elec       q    Type
REMARK                         _______ _______ _______ _____ _____    ______ ____
ROOT
ATOM      1  S   UNL     1      35.949 -18.646 -21.331  0.00  0.00    -0.018 S 
ATOM      2  N   UNL     1      34.842 -16.163 -21.985  0.00  0.00    -0.266 N 
ATOM      3  N   UNL     1      35.408 -17.456 -23.731  0.00  0.00    -0.293 N 
ATOM      4  C   UNL     1      35.402 -17.426 -22.315  0.00  0.00    +0.142 C 
ATOM      5  C   UNL     1      34.544 -15.506 -23.163  0.00  0.00    +0.083 C 
ATOM      6  C   UNL     1      34.593 -15.588 -20.679  0.00  0.00    +0.119 C 
ATOM      7  C   UNL     1      34.882 -16.280 -24.202  0.00  0.00    +0.080 C 
ATOM      8  H   UNL     1      35.735 -18.200 -24.286  0.00  0.00    +0.154 HD
ENDROOT
TORSDOF 0
ENDMDL
MODEL 8
REMARK VINA RESULT:      -3.9     11.584     12.230
REMARK  Name = 1349907
REMARK  0 active torsions:
REMARK  status: ('A' for Active; 'I' for Inactive)
REMARK                            x       y       z     vdW  Elec       q    Type
REMARK                         _______ _______ _______ _____ _____    ______ ____
ROOT
ATOM      1  S   UNL     1      31.456 -10.777 -19.142  0.00  0.00    -0.018 S 
ATOM      2  N   UNL     1      31.924  -9.344 -21.496  0.00  0.00    -0.266 N 
ATOM      3  N   UNL     1      32.585  -8.332 -19.604  0.00  0.00    -0.293 N 
ATOM      4  C   UNL     1      31.973  -9.515 -20.087  0.00  0.00    +0.142 C 
ATOM      5  C   UNL     1      32.484  -8.117 -21.799  0.00  0.00    +0.083 C 
ATOM      6  C   UNL     1      31.401 -10.239 -22.507  0.00  0.00    +0.119 C 
ATOM      7  C   UNL     1      32.877  -7.517 -20.668  0.00  0.00    +0.080 C 
ATOM      8  H   UNL     1      32.771  -8.129 -18.660  0.00  0.00    +0.154 HD
ENDROOT
TORSDOF 0
ENDMDL
MODEL 9
REMARK VINA RESULT:      -3.9     10.606     11.296
REMARK  Name = 1349907
REMARK  0 active torsions:
REMARK  status: ('A' for Active; 'I' for Inactive)
REMARK                            x       y       z     vdW  Elec       q    Type
REMARK                         _______ _______ _______ _____ _____    ______ ____
ROOT
ATOM      1  S   UNL     1      42.841 -11.982 -17.492  0.00  0.00    -0.018 S 
ATOM      2  N   UNL     1      41.619 -14.452 -17.024  0.00  0.00    -0.266 N 
ATOM      3  N   UNL     1      41.626 -13.034 -15.284  0.00  0.00    -0.293 N 
ATOM      4  C   UNL     1      42.041 -13.154 -16.632  0.00  0.00    +0.142 C 
ATOM      5  C   UNL     1      40.992 -15.043 -15.944  0.00  0.00    +0.083 C 
ATOM      6  C   UNL     1      41.776 -15.116 -18.301  0.00  0.00    +0.119 C 
ATOM      7  C   UNL     1      40.998 -14.194 -14.908  0.00  0.00    +0.080 C 
ATOM      8  H   UNL     1      41.765 -12.247 -14.709  0.00  0.00    +0.154 HD
ENDROOT
TORSDOF 0
ENDMDL
