MODEL 1
REMARK VINA RESULT:      -8.9      0.000      0.000
REMARK  Name = 444763
REMARK  5 active torsions:
REMARK  status: ('A' for Active; 'I' for Inactive)
REMARK    1  A    between atoms: C_4  and  N_12
REMARK    2  A    between atoms: C_6  and  C_20
REMARK    3  A    between atoms: C_13  and  C_16
REMARK    4  A    between atoms: C_16  and  O_17
REMARK    5  A    between atoms: C_20  and  O_21
REMARK                            x       y       z     vdW  Elec       q    Type
REMARK                         _______ _______ _______ _____ _____    ______ ____
ROOT
ATOM      1  N   UNL     1      33.442 -23.409 -16.024  0.00  0.00    -0.312 N 
ATOM      2  C   UNL     1      34.456 -23.786 -15.172  0.00  0.00    +0.050 C 
ATOM      3  C   UNL     1      33.878 -24.018 -13.922  0.00  0.00    +0.015 C 
ATOM      4  C   UNL     1      36.628 -24.340 -14.337  0.00  0.00    +0.058 C 
ATOM      5  C   UNL     1      35.826 -23.939 -15.410  0.00  0.00    +0.029 C 
ATOM      6  C   UNL     1      36.078 -24.578 -13.078  0.00  0.00    +0.089 C 
ATOM      7  C   UNL     1      34.705 -24.421 -12.856  0.00  0.00    +0.009 C 
ATOM      8  C   UNL     1      32.483 -23.766 -14.054  0.00  0.00    +0.017 C 
ATOM      9  C   UNL     1      32.247 -23.394 -15.358  0.00  0.00    +0.062 C 
ATOM     10  H   UNL     1      33.561 -23.183 -16.975  0.00  0.00    +0.152 HD
ENDROOT
BRANCH   4  12
ATOM     11  O   UNL     1      38.302 -26.838 -14.678  0.00  0.00    -0.263 OA
ATOM     12  N   UNL     1      38.001 -24.499 -14.556  0.00  0.00    -0.275 N 
ATOM     13  C   UNL     1      38.708 -25.688 -14.703  0.00  0.00    +0.325 C 
ATOM     14  H   UNL     1      38.529 -23.671 -14.612  0.00  0.00    +0.155 HD
BRANCH  13  16
ATOM     15  O   UNL     1      40.890 -24.841 -14.146  0.00  0.00    -0.240 OA
ATOM     16  C   UNL     1      40.189 -25.451 -14.927  0.00  0.00    +0.393 C 
BRANCH  16  17
ATOM     17  O   UNL     1      40.578 -26.010 -16.084  0.00  0.00    -0.474 OA
ATOM     18  H   UNL     1      40.312 -25.631 -16.900  0.00  0.00    +0.296 HD
ENDBRANCH  16  17
ENDBRANCH  13  16
ENDBRANCH   4  12
BRANCH   6  20
ATOM     19  O   UNL     1      37.506 -24.237 -11.190  0.00  0.00    -0.245 OA
ATOM     20  C   UNL     1      36.912 -24.997 -11.959  0.00  0.00    +0.339 C 
BRANCH  20  21
ATOM     21  O   UNL     1      36.974 -26.350 -11.838  0.00  0.00    -0.477 OA
ATOM     22  H   UNL     1      37.400 -26.859 -12.498  0.00  0.00    +0.295 HD
ENDBRANCH  20  21
ENDBRANCH   6  20
TORSDOF 5
ENDMDL
MODEL 2
REMARK VINA RESULT:      -8.4      6.119      7.237
REMARK  Name = 444763
REMARK  5 active torsions:
REMARK  status: ('A' for Active; 'I' for Inactive)
REMARK    1  A    between atoms: C_4  and  N_12
REMARK    2  A    between atoms: C_6  and  C_20
REMARK    3  A    between atoms: C_13  and  C_16
REMARK    4  A    between atoms: C_16  and  O_17
REMARK    5  A    between atoms: C_20  and  O_21
REMARK                            x       y       z     vdW  Elec       q    Type
REMARK                         _______ _______ _______ _____ _____    ______ ____
ROOT
ATOM      1  N   UNL     1      36.581 -18.657 -21.666  0.00  0.00    -0.312 N 
ATOM      2  C   UNL     1      35.973 -19.608 -20.878  0.00  0.00    +0.050 C 
ATOM      3  C   UNL     1      34.637 -19.681 -21.278  0.00  0.00    +0.015 C 
ATOM      4  C   UNL     1      35.630 -21.295 -19.217  0.00  0.00    +0.058 C 
ATOM      5  C   UNL     1      36.498 -20.402 -19.852  0.00  0.00    +0.029 C 
ATOM      6  C   UNL     1      34.292 -21.389 -19.596  0.00  0.00    +0.089 C 
ATOM      7  C   UNL     1      33.781 -20.587 -20.624  0.00  0.00    +0.009 C 
ATOM      8  C   UNL     1      34.465 -18.740 -22.333  0.00  0.00    +0.017 C 
ATOM      9  C   UNL     1      35.678 -18.127 -22.548  0.00  0.00    +0.062 C 
ATOM     10  H   UNL     1      37.529 -18.396 -21.604  0.00  0.00    +0.152 HD
ENDROOT
BRANCH   4  12
ATOM     11  O   UNL     1      37.451 -20.622 -16.897  0.00  0.00    -0.263 OA
ATOM     12  N   UNL     1      36.137 -22.098 -18.189  0.00  0.00    -0.275 N 
ATOM     13  C   UNL     1      36.977 -21.717 -17.148  0.00  0.00    +0.325 C 
ATOM     14  H   UNL     1      35.867 -23.044 -18.206  0.00  0.00    +0.155 HD
BRANCH  13  16
ATOM     15  O   UNL     1      38.421 -23.068 -15.777  0.00  0.00    -0.240 OA
ATOM     16  C   UNL     1      37.310 -22.875 -16.227  0.00  0.00    +0.393 C 
BRANCH  16  17
ATOM     17  O   UNL     1      36.216 -23.619 -16.003  0.00  0.00    -0.474 OA
ATOM     18  H   UNL     1      35.798 -23.596 -15.163  0.00  0.00    +0.296 HD
ENDBRANCH  16  17
ENDBRANCH  13  16
ENDBRANCH   4  12
BRANCH   6  20
ATOM     19  O   UNL     1      32.329 -22.011 -18.379  0.00  0.00    -0.245 OA
ATOM     20  C   UNL     1      33.385 -22.320 -18.936  0.00  0.00    +0.339 C 
BRANCH  20  21
ATOM     21  O   UNL     1      33.830 -23.603 -18.994  0.00  0.00    -0.477 OA
ATOM     22  H   UNL     1      33.363 -24.281 -18.548  0.00  0.00    +0.295 HD
ENDBRANCH  20  21
ENDBRANCH   6  20
TORSDOF 5
ENDMDL
MODEL 3
REMARK VINA RESULT:      -8.4      2.649      4.413
REMARK  Name = 444763
REMARK  5 active torsions:
REMARK  status: ('A' for Active; 'I' for Inactive)
REMARK    1  A    between atoms: C_4  and  N_12
REMARK    2  A    between atoms: C_6  and  C_20
REMARK    3  A    between atoms: C_13  and  C_16
REMARK    4  A    between atoms: C_16  and  O_17
REMARK    5  A    between atoms: C_20  and  O_21
REMARK                            x       y       z     vdW  Elec       q    Type
REMARK                         _______ _______ _______ _____ _____    ______ ____
ROOT
ATOM      1  N   UNL     1      29.775 -25.049 -14.234  0.00  0.00    -0.312 N 
ATOM      2  C   UNL     1      31.079 -24.677 -14.472  0.00  0.00    +0.050 C 
ATOM      3  C   UNL     1      31.063 -23.788 -15.549  0.00  0.00    +0.015 C 
ATOM      4  C   UNL     1      33.458 -24.507 -14.290  0.00  0.00    +0.058 C 
ATOM      5  C   UNL     1      32.259 -25.055 -13.823  0.00  0.00    +0.029 C 
ATOM      6  C   UNL     1      33.472 -23.618 -15.363  0.00  0.00    +0.089 C 
ATOM      7  C   UNL     1      32.283 -23.250 -16.003  0.00  0.00    +0.009 C 
ATOM      8  C   UNL     1      29.704 -23.641 -15.949  0.00  0.00    +0.017 C 
ATOM      9  C   UNL     1      28.937 -24.428 -15.121  0.00  0.00    +0.062 C 
ATOM     10  H   UNL     1      29.487 -25.672 -13.528  0.00  0.00    +0.152 HD
ENDROOT
BRANCH   4  12
ATOM     11  O   UNL     1      34.603 -23.686 -11.612  0.00  0.00    -0.263 OA
ATOM     12  N   UNL     1      34.649 -24.873 -13.653  0.00  0.00    -0.275 N 
ATOM     13  C   UNL     1      35.114 -24.452 -12.412  0.00  0.00    +0.325 C 
ATOM     14  H   UNL     1      35.225 -25.504 -14.142  0.00  0.00    +0.155 HD
BRANCH  13  16
ATOM     15  O   UNL     1      37.229 -24.576 -11.268  0.00  0.00    -0.240 OA
ATOM     16  C   UNL     1      36.453 -25.072 -12.061  0.00  0.00    +0.393 C 
BRANCH  16  17
ATOM     17  O   UNL     1      36.628 -26.214 -12.743  0.00  0.00    -0.474 OA
ATOM     18  H   UNL     1      36.257 -26.310 -13.599  0.00  0.00    +0.296 HD
ENDBRANCH  16  17
ENDBRANCH  13  16
ENDBRANCH   4  12
BRANCH   6  20
ATOM     19  O   UNL     1      35.161 -23.170 -16.997  0.00  0.00    -0.245 OA
ATOM     20  C   UNL     1      34.720 -23.046 -15.852  0.00  0.00    +0.339 C 
BRANCH  20  21
ATOM     21  O   UNL     1      35.375 -22.339 -14.892  0.00  0.00    -0.477 OA
ATOM     22  H   UNL     1      34.892 -21.807 -14.291  0.00  0.00    +0.295 HD
ENDBRANCH  20  21
ENDBRANCH   6  20
TORSDOF 5
ENDMDL
MODEL 4
REMARK VINA RESULT:      -8.2      5.199      7.563
REMARK  Name = 444763
REMARK  5 active torsions:
REMARK  status: ('A' for Active; 'I' for Inactive)
REMARK    1  A    between atoms: C_4  and  N_12
REMARK    2  A    between atoms: C_6  and  C_20
REMARK    3  A    between atoms: C_13  and  C_16
REMARK    4  A    between atoms: C_16  and  O_17
REMARK    5  A    between atoms: C_20  and  O_21
REMARK                            x       y       z     vdW  Elec       q    Type
REMARK                         _______ _______ _______ _____ _____    ______ ____
ROOT
ATOM      1  N   UNL     1      34.159 -24.446 -12.874  0.00  0.00    -0.312 N 
ATOM      2  C   UNL     1      33.699 -24.043 -14.107  0.00  0.00    +0.050 C 
ATOM      3  C   UNL     1      34.802 -23.996 -14.963  0.00  0.00    +0.015 C 
ATOM      4  C   UNL     1      32.233 -23.335 -15.861  0.00  0.00    +0.058 C 
ATOM      5  C   UNL     1      32.404 -23.718 -14.527  0.00  0.00    +0.029 C 
ATOM      6  C   UNL     1      33.316 -23.280 -16.737  0.00  0.00    +0.089 C 
ATOM      7  C   UNL     1      34.606 -23.606 -16.302  0.00  0.00    +0.009 C 
ATOM      8  C   UNL     1      35.939 -24.385 -14.200  0.00  0.00    +0.017 C 
ATOM      9  C   UNL     1      35.511 -24.656 -12.920  0.00  0.00    +0.062 C 
ATOM     10  H   UNL     1      33.597 -24.567 -12.075  0.00  0.00    +0.152 HD
ENDROOT
BRANCH   4  12
ATOM     11  O   UNL     1      29.666 -24.936 -15.828  0.00  0.00    -0.263 OA
ATOM     12  N   UNL     1      30.945 -23.008 -16.299  0.00  0.00    -0.275 N 
ATOM     13  C   UNL     1      29.803 -23.801 -16.252  0.00  0.00    +0.325 C 
ATOM     14  H   UNL     1      30.835 -22.110 -16.685  0.00  0.00    +0.155 HD
BRANCH  13  16
ATOM     15  O   UNL     1      28.380 -21.907 -16.677  0.00  0.00    -0.240 OA
ATOM     16  C   UNL     1      28.590 -23.094 -16.825  0.00  0.00    +0.393 C 
BRANCH  16  17
ATOM     17  O   UNL     1      27.821 -23.964 -17.498  0.00  0.00    -0.474 OA
ATOM     18  H   UNL     1      27.393 -23.697 -18.289  0.00  0.00    +0.296 HD
ENDBRANCH  16  17
ENDBRANCH  13  16
ENDBRANCH   4  12
BRANCH   6  20
ATOM     19  O   UNL     1      32.412 -21.967 -18.520  0.00  0.00    -0.245 OA
ATOM     20  C   UNL     1      33.140 -22.881 -18.128  0.00  0.00    +0.339 C 
BRANCH  20  21
ATOM     21  O   UNL     1      33.881 -23.639 -18.980  0.00  0.00    -0.477 OA
ATOM     22  H   UNL     1      33.594 -23.767 -19.862  0.00  0.00    +0.295 HD
ENDBRANCH  20  21
ENDBRANCH   6  20
TORSDOF 5
ENDMDL
MODEL 5
REMARK VINA RESULT:      -8.2      2.795      4.441
REMARK  Name = 444763
REMARK  5 active torsions:
REMARK  status: ('A' for Active; 'I' for Inactive)
REMARK    1  A    between atoms: C_4  and  N_12
REMARK    2  A    between atoms: C_6  and  C_20
REMARK    3  A    between atoms: C_13  and  C_16
REMARK    4  A    between atoms: C_16  and  O_17
REMARK    5  A    between atoms: C_20  and  O_21
REMARK                            x       y       z     vdW  Elec       q    Type
REMARK                         _______ _______ _______ _____ _____    ______ ____
ROOT
ATOM      1  N   UNL     1      36.001 -22.112 -17.856  0.00  0.00    -0.312 N 
ATOM      2  C   UNL     1      35.310 -22.587 -16.764  0.00  0.00    +0.050 C 
ATOM      3  C   UNL     1      34.015 -22.884 -17.193  0.00  0.00    +0.015 C 
ATOM      4  C   UNL     1      34.794 -23.283 -14.534  0.00  0.00    +0.058 C 
ATOM      5  C   UNL     1      35.729 -22.776 -15.442  0.00  0.00    +0.029 C 
ATOM      6  C   UNL     1      33.495 -23.587 -14.935  0.00  0.00    +0.089 C 
ATOM      7  C   UNL     1      33.090 -23.392 -16.261  0.00  0.00    +0.009 C 
ATOM      8  C   UNL     1      33.953 -22.569 -18.580  0.00  0.00    +0.017 C 
ATOM      9  C   UNL     1      35.189 -22.097 -18.958  0.00  0.00    +0.062 C 
ATOM     10  H   UNL     1      36.943 -21.824 -17.845  0.00  0.00    +0.152 HD
ENDROOT
BRANCH   4  12
ATOM     11  O   UNL     1      36.420 -25.497 -13.265  0.00  0.00    -0.263 OA
ATOM     12  N   UNL     1      35.195 -23.479 -13.208  0.00  0.00    -0.275 N 
ATOM     13  C   UNL     1      35.947 -24.529 -12.692  0.00  0.00    +0.325 C 
ATOM     14  H   UNL     1      34.910 -22.791 -12.563  0.00  0.00    +0.155 HD
BRANCH  13  16
ATOM     15  O   UNL     1      37.089 -23.743 -10.725  0.00  0.00    -0.240 OA
ATOM     16  C   UNL     1      36.178 -24.391 -11.199  0.00  0.00    +0.393 C 
BRANCH  16  17
ATOM     17  O   UNL     1      35.244 -25.075 -10.521  0.00  0.00    -0.474 OA
ATOM     18  H   UNL     1      34.747 -25.744 -10.952  0.00  0.00    +0.296 HD
ENDBRANCH  16  17
ENDBRANCH  13  16
ENDBRANCH   4  12
BRANCH   6  20
ATOM     19  O   UNL     1      31.993 -25.229 -14.057  0.00  0.00    -0.245 OA
ATOM     20  C   UNL     1      32.519 -24.115 -13.990  0.00  0.00    +0.339 C 
BRANCH  20  21
ATOM     21  O   UNL     1      32.234 -23.234 -12.994  0.00  0.00    -0.477 OA
ATOM     22  H   UNL     1      31.818 -22.420 -13.195  0.00  0.00    +0.295 HD
ENDBRANCH  20  21
ENDBRANCH   6  20
TORSDOF 5
ENDMDL
MODEL 6
REMARK VINA RESULT:      -8.1      5.483      7.838
REMARK  Name = 444763
REMARK  5 active torsions:
REMARK  status: ('A' for Active; 'I' for Inactive)
REMARK    1  A    between atoms: C_4  and  N_12
REMARK    2  A    between atoms: C_6  and  C_20
REMARK    3  A    between atoms: C_13  and  C_16
REMARK    4  A    between atoms: C_16  and  O_17
REMARK    5  A    between atoms: C_20  and  O_21
REMARK                            x       y       z     vdW  Elec       q    Type
REMARK                         _______ _______ _______ _____ _____    ______ ____
ROOT
ATOM      1  N   UNL     1      34.975 -22.893 -16.422  0.00  0.00    -0.312 N 
ATOM      2  C   UNL     1      33.731 -23.320 -16.013  0.00  0.00    +0.050 C 
ATOM      3  C   UNL     1      33.905 -23.996 -14.804  0.00  0.00    +0.015 C 
ATOM      4  C   UNL     1      31.371 -23.710 -15.961  0.00  0.00    +0.058 C 
ATOM      5  C   UNL     1      32.478 -23.161 -16.616  0.00  0.00    +0.029 C 
ATOM      6  C   UNL     1      31.515 -24.390 -14.753  0.00  0.00    +0.089 C 
ATOM      7  C   UNL     1      32.776 -24.541 -14.162  0.00  0.00    +0.009 C 
ATOM      8  C   UNL     1      35.296 -23.960 -14.501  0.00  0.00    +0.017 C 
ATOM      9  C   UNL     1      35.926 -23.274 -15.514  0.00  0.00    +0.062 C 
ATOM     10  H   UNL     1      35.154 -22.387 -17.247  0.00  0.00    +0.152 HD
ENDROOT
BRANCH   4  12
ATOM     11  O   UNL     1      29.082 -21.850 -15.287  0.00  0.00    -0.263 OA
ATOM     12  N   UNL     1      30.110 -23.561 -16.549  0.00  0.00    -0.275 N 
ATOM     13  C   UNL     1      29.100 -22.678 -16.182  0.00  0.00    +0.325 C 
ATOM     14  H   UNL     1      29.916 -24.151 -17.311  0.00  0.00    +0.155 HD
BRANCH  13  16
ATOM     15  O   UNL     1      27.537 -23.860 -17.580  0.00  0.00    -0.240 OA
ATOM     16  C   UNL     1      27.872 -22.814 -17.062  0.00  0.00    +0.393 C 
BRANCH  16  17
ATOM     17  O   UNL     1      27.244 -21.632 -17.166  0.00  0.00    -0.474 OA
ATOM     18  H   UNL     1      27.015 -21.296 -18.011  0.00  0.00    +0.296 HD
ENDBRANCH  16  17
ENDBRANCH  13  16
ENDBRANCH   4  12
BRANCH   6  20
ATOM     19  O   UNL     1      29.456 -25.598 -14.611  0.00  0.00    -0.245 OA
ATOM     20  C   UNL     1      30.363 -24.963 -14.069  0.00  0.00    +0.339 C 
BRANCH  20  21
ATOM     21  O   UNL     1      30.385 -24.722 -12.730  0.00  0.00    -0.477 OA
ATOM     22  H   UNL     1      31.196 -24.532 -12.302  0.00  0.00    +0.295 HD
ENDBRANCH  20  21
ENDBRANCH   6  20
TORSDOF 5
ENDMDL
MODEL 7
REMARK VINA RESULT:      -8.1      2.078      3.010
REMARK  Name = 444763
REMARK  5 active torsions:
REMARK  status: ('A' for Active; 'I' for Inactive)
REMARK    1  A    between atoms: C_4  and  N_12
REMARK    2  A    between atoms: C_6  and  C_20
REMARK    3  A    between atoms: C_13  and  C_16
REMARK    4  A    between atoms: C_16  and  O_17
REMARK    5  A    between atoms: C_20  and  O_21
REMARK                            x       y       z     vdW  Elec       q    Type
REMARK                         _______ _______ _______ _____ _____    ______ ____
ROOT
ATOM      1  N   UNL     1      33.057 -25.076 -13.726  0.00  0.00    -0.312 N 
ATOM      2  C   UNL     1      34.199 -24.605 -14.334  0.00  0.00    +0.050 C 
ATOM      3  C   UNL     1      33.861 -23.409 -14.972  0.00  0.00    +0.015 C 
ATOM      4  C   UNL     1      36.466 -24.431 -15.078  0.00  0.00    +0.058 C 
ATOM      5  C   UNL     1      35.491 -25.140 -14.370  0.00  0.00    +0.029 C 
ATOM      6  C   UNL     1      36.157 -23.235 -15.723  0.00  0.00    +0.089 C 
ATOM      7  C   UNL     1      34.859 -22.712 -15.680  0.00  0.00    +0.009 C 
ATOM      8  C   UNL     1      32.478 -23.180 -14.724  0.00  0.00    +0.017 C 
ATOM      9  C   UNL     1      32.013 -24.222 -13.955  0.00  0.00    +0.062 C 
ATOM     10  H   UNL     1      33.001 -25.908 -13.201  0.00  0.00    +0.152 HD
ENDROOT
BRANCH   4  12
ATOM     11  O   UNL     1      38.695 -24.370 -13.032  0.00  0.00    -0.263 OA
ATOM     12  N   UNL     1      37.764 -24.950 -15.124  0.00  0.00    -0.275 N 
ATOM     13  C   UNL     1      38.743 -24.884 -14.138  0.00  0.00    +0.325 C 
ATOM     14  H   UNL     1      38.014 -25.419 -15.952  0.00  0.00    +0.155 HD
BRANCH  13  16
ATOM     15  O   UNL     1      40.104 -26.756 -14.798  0.00  0.00    -0.240 OA
ATOM     16  C   UNL     1      40.029 -25.568 -14.559  0.00  0.00    +0.393 C 
BRANCH  16  17
ATOM     17  O   UNL     1      41.029 -24.674 -14.623  0.00  0.00    -0.474 OA
ATOM     18  H   UNL     1      41.920 -24.963 -14.566  0.00  0.00    +0.296 HD
ENDBRANCH  16  17
ENDBRANCH  13  16
ENDBRANCH   4  12
BRANCH   6  20
ATOM     19  O   UNL     1      38.191 -22.001 -15.973  0.00  0.00    -0.245 OA
ATOM     20  C   UNL     1      37.172 -22.493 -16.462  0.00  0.00    +0.339 C 
BRANCH  20  21
ATOM     21  O   UNL     1      36.877 -22.393 -17.786  0.00  0.00    -0.477 OA
ATOM     22  H   UNL     1      37.356 -22.900 -18.411  0.00  0.00    +0.295 HD
ENDBRANCH  20  21
ENDBRANCH   6  20
TORSDOF 5
ENDMDL
MODEL 8
REMARK VINA RESULT:      -8.1      2.895      5.577
REMARK  Name = 444763
REMARK  5 active torsions:
REMARK  status: ('A' for Active; 'I' for Inactive)
REMARK    1  A    between atoms: C_4  and  N_12
REMARK    2  A    between atoms: C_6  and  C_20
REMARK    3  A    between atoms: C_13  and  C_16
REMARK    4  A    between atoms: C_16  and  O_17
REMARK    5  A    between atoms: C_20  and  O_21
REMARK                            x       y       z     vdW  Elec       q    Type
REMARK                         _______ _______ _______ _____ _____    ______ ____
ROOT
ATOM      1  N   UNL     1      38.933 -25.719 -15.484  0.00  0.00    -0.312 N 
ATOM      2  C   UNL     1      38.078 -25.372 -14.463  0.00  0.00    +0.050 C 
ATOM      3  C   UNL     1      38.862 -25.133 -13.332  0.00  0.00    +0.015 C 
ATOM      4  C   UNL     1      36.075 -24.879 -13.250  0.00  0.00    +0.058 C 
ATOM      5  C   UNL     1      36.683 -25.253 -14.452  0.00  0.00    +0.029 C 
ATOM      6  C   UNL     1      36.833 -24.634 -12.107  0.00  0.00    +0.089 C 
ATOM      7  C   UNL     1      38.228 -24.757 -12.132  0.00  0.00    +0.009 C 
ATOM      8  C   UNL     1      40.218 -25.348 -13.712  0.00  0.00    +0.017 C 
ATOM      9  C   UNL     1      40.228 -25.706 -15.040  0.00  0.00    +0.062 C 
ATOM     10  H   UNL     1      38.654 -25.943 -16.401  0.00  0.00    +0.152 HD
ENDROOT
BRANCH   4  12
ATOM     11  O   UNL     1      34.197 -23.256 -14.981  0.00  0.00    -0.263 OA
ATOM     12  N   UNL     1      34.682 -24.755 -13.221  0.00  0.00    -0.275 N 
ATOM     13  C   UNL     1      33.878 -23.983 -14.054  0.00  0.00    +0.325 C 
ATOM     14  H   UNL     1      34.215 -25.275 -12.529  0.00  0.00    +0.155 HD
BRANCH  13  16
ATOM     15  O   UNL     1      31.708 -25.023 -14.101  0.00  0.00    -0.240 OA
ATOM     16  C   UNL     1      32.407 -24.110 -13.710  0.00  0.00    +0.393 C 
BRANCH  16  17
ATOM     17  O   UNL     1      32.023 -23.086 -12.931  0.00  0.00    -0.474 OA
ATOM     18  H   UNL     1      32.376 -22.998 -12.067  0.00  0.00    +0.296 HD
ENDBRANCH  16  17
ENDBRANCH  13  16
ENDBRANCH   4  12
BRANCH   6  20
ATOM     19  O   UNL     1      35.244 -24.817 -10.329  0.00  0.00    -0.245 OA
ATOM     20  C   UNL     1      36.201 -24.243 -10.853  0.00  0.00    +0.339 C 
BRANCH  20  21
ATOM     21  O   UNL     1      36.787 -23.149 -10.298  0.00  0.00    -0.477 OA
ATOM     22  H   UNL     1      36.258 -22.439  -9.992  0.00  0.00    +0.295 HD
ENDBRANCH  20  21
ENDBRANCH   6  20
TORSDOF 5
ENDMDL
MODEL 9
REMARK VINA RESULT:      -7.9     13.612     15.107
REMARK  Name = 444763
REMARK  5 active torsions:
REMARK  status: ('A' for Active; 'I' for Inactive)
REMARK    1  A    between atoms: C_4  and  N_12
REMARK    2  A    between atoms: C_6  and  C_20
REMARK    3  A    between atoms: C_13  and  C_16
REMARK    4  A    between atoms: C_16  and  O_17
REMARK    5  A    between atoms: C_20  and  O_21
REMARK                            x       y       z     vdW  Elec       q    Type
REMARK                         _______ _______ _______ _____ _____    ______ ____
ROOT
ATOM      1  N   UNL     1      35.493 -17.730 -21.945  0.00  0.00    -0.312 N 
ATOM      2  C   UNL     1      34.968 -16.863 -22.876  0.00  0.00    +0.050 C 
ATOM      3  C   UNL     1      34.598 -17.626 -23.986  0.00  0.00    +0.015 C 
ATOM      4  C   UNL     1      34.225 -14.851 -23.936  0.00  0.00    +0.058 C 
ATOM      5  C   UNL     1      34.794 -15.475 -22.822  0.00  0.00    +0.029 C 
ATOM      6  C   UNL     1      33.846 -15.587 -25.057  0.00  0.00    +0.089 C 
ATOM      7  C   UNL     1      34.027 -16.975 -25.097  0.00  0.00    +0.009 C 
ATOM      8  C   UNL     1      34.920 -18.980 -23.688  0.00  0.00    +0.017 C 
ATOM      9  C   UNL     1      35.468 -19.011 -22.426  0.00  0.00    +0.062 C 
ATOM     10  H   UNL     1      35.837 -17.467 -21.060  0.00  0.00    +0.152 HD
ENDROOT
BRANCH   4  12
ATOM     11  O   UNL     1      32.134 -13.166 -22.542  0.00  0.00    -0.263 OA
ATOM     12  N   UNL     1      34.043 -13.464 -23.900  0.00  0.00    -0.275 N 
ATOM     13  C   UNL     1      33.051 -12.753 -23.233  0.00  0.00    +0.325 C 
ATOM     14  H   UNL     1      34.695 -12.929 -24.407  0.00  0.00    +0.155 HD
BRANCH  13  16
ATOM     15  O   UNL     1      32.359 -10.456 -23.043  0.00  0.00    -0.240 OA
ATOM     16  C   UNL     1      33.185 -11.256 -23.432  0.00  0.00    +0.393 C 
BRANCH  16  17
ATOM     17  O   UNL     1      34.326 -10.976 -24.083  0.00  0.00    -0.474 OA
ATOM     18  H   UNL     1      35.138 -10.953 -23.616  0.00  0.00    +0.296 HD
ENDBRANCH  16  17
ENDBRANCH  13  16
ENDBRANCH   4  12
BRANCH   6  20
ATOM     19  O   UNL     1      33.543 -13.814 -26.633  0.00  0.00    -0.245 OA
ATOM     20  C   UNL     1      33.253 -14.938 -26.219  0.00  0.00    +0.339 C 
BRANCH  20  21
ATOM     21  O   UNL     1      32.316 -15.718 -26.824  0.00  0.00    -0.477 OA
ATOM     22  H   UNL     1      32.415 -16.649 -26.829  0.00  0.00    +0.295 HD
ENDBRANCH  20  21
ENDBRANCH   6  20
TORSDOF 5
ENDMDL
