MODEL 1
REMARK VINA RESULT:     -10.7      0.000      0.000
REMARK  Name = 16750106
REMARK  5 active torsions:
REMARK  status: ('A' for Active; 'I' for Inactive)
REMARK    1  A    between atoms: C_2  and  C_12
REMARK    2  A    between atoms: C_6  and  N_26
REMARK    3  A    between atoms: C_11  and  S_17
REMARK    4  A    between atoms: S_17  and  N_20
REMARK    5  A    between atoms: N_20  and  C_22
REMARK                            x       y       z     vdW  Elec       q    Type
REMARK                         _______ _______ _______ _____ _____    ______ ____
ROOT
ATOM      1  N   UNL     1      31.312 -23.012 -16.870  0.00  0.00    -0.244 NA
ATOM      2  C   UNL     1      33.165 -22.067 -18.096  0.00  0.00    +0.019 C 
ATOM      3  C   UNL     1      33.565 -23.347 -16.084  0.00  0.00    +0.031 C 
ATOM      4  C   UNL     1      34.048 -22.601 -17.169  0.00  0.00    +0.004 C 
ATOM      5  C   UNL     1      32.171 -23.529 -15.972  0.00  0.00    +0.082 C 
ATOM      6  C   UNL     1      34.433 -23.901 -15.128  0.00  0.00    +0.051 C 
ATOM      7  C   UNL     1      31.818 -22.300 -17.903  0.00  0.00    +0.099 C 
ATOM      8  C   UNL     1      31.692 -24.269 -14.894  0.00  0.00    +0.019 C 
ATOM      9  C   UNL     1      33.927 -24.636 -14.060  0.00  0.00    +0.015 C 
ATOM     10  C   UNL     1      32.555 -24.819 -13.943  0.00  0.00    +0.003 C 
ENDROOT
BRANCH   6  11
ATOM     11  N   UNL     1      35.836 -23.735 -15.212  0.00  0.00    -0.298 N 
ATOM     12  H   UNL     1      36.111 -22.850 -15.544  0.00  0.00    +0.154 HD
ATOM     13  N   UNL     1      38.079 -24.044 -14.503  0.00  0.00    -0.229 NA
ATOM     14  C   UNL     1      36.912 -24.587 -14.915  0.00  0.00    +0.132 C 
ATOM     15  C   UNL     1      36.702 -25.949 -15.067  0.00  0.00    +0.034 C 
ATOM     16  C   UNL     1      37.757 -26.807 -14.775  0.00  0.00    +0.004 C 
ATOM     17  C   UNL     1      39.081 -24.908 -14.230  0.00  0.00    +0.100 C 
ATOM     18  C   UNL     1      38.973 -26.284 -14.348  0.00  0.00    +0.021 C 
ENDBRANCH   6  11
BRANCH   2  20
ATOM     19  C   UNL     1      34.547 -19.807 -21.398  0.00  0.00    +0.122 C 
ATOM     20  C   UNL     1      33.636 -21.296 -19.222  0.00  0.00    +0.002 C 
ATOM     21  C   UNL     1      35.442 -20.579 -20.657  0.00  0.00    +0.020 C 
ATOM     22  C   UNL     1      33.196 -19.779 -21.050  0.00  0.00    +0.020 C 
ATOM     23  C   UNL     1      34.987 -21.324 -19.570  0.00  0.00    +0.001 C 
ATOM     24  C   UNL     1      32.741 -20.524 -19.962  0.00  0.00    +0.001 C 
BRANCH  19  25
ATOM     25  S   UNL     1      35.117 -18.874 -22.759  0.00  0.00    +0.060 S 
ATOM     26  O   UNL     1      36.412 -18.296 -22.422  0.00  0.00    -0.153 OA
ATOM     27  O   UNL     1      34.996 -19.705 -23.949  0.00  0.00    -0.153 OA
BRANCH  25  28
ATOM     28  N   UNL     1      33.965 -17.617 -22.852  0.00  0.00    -0.182 NA
ATOM     29  H   UNL     1      33.100 -17.978 -22.449  0.00  0.00    +0.149 HD
BRANCH  28  30
ATOM     30  C   UNL     1      34.231 -16.327 -22.197  0.00  0.00    +0.062 C 
ATOM     31  C   UNL     1      35.031 -16.591 -20.921  0.00  0.00    +0.017 C 
ATOM     32  C   UNL     1      32.888 -15.672 -21.868  0.00  0.00    +0.017 C 
ATOM     33  C   UNL     1      35.029 -15.454 -23.166  0.00  0.00    +0.017 C 
ENDBRANCH  28  30
ENDBRANCH  25  28
ENDBRANCH  19  25
ENDBRANCH   2  20
TORSDOF 5
ENDMDL
MODEL 2
REMARK VINA RESULT:     -10.6     10.659     14.994
REMARK  Name = 16750106
REMARK  5 active torsions:
REMARK  status: ('A' for Active; 'I' for Inactive)
REMARK    1  A    between atoms: C_2  and  C_12
REMARK    2  A    between atoms: C_6  and  N_26
REMARK    3  A    between atoms: C_11  and  S_17
REMARK    4  A    between atoms: S_17  and  N_20
REMARK    5  A    between atoms: N_20  and  C_22
REMARK                            x       y       z     vdW  Elec       q    Type
REMARK                         _______ _______ _______ _____ _____    ______ ____
ROOT
ATOM      1  N   UNL     1      32.164  -7.664 -20.118  0.00  0.00    -0.244 NA
ATOM      2  C   UNL     1      32.589  -7.598 -22.494  0.00  0.00    +0.019 C 
ATOM      3  C   UNL     1      32.060  -9.694 -21.412  0.00  0.00    +0.031 C 
ATOM      4  C   UNL     1      32.380  -8.967 -22.567  0.00  0.00    +0.004 C 
ATOM      5  C   UNL     1      31.961  -8.993 -20.192  0.00  0.00    +0.082 C 
ATOM      6  C   UNL     1      31.842 -11.082 -21.452  0.00  0.00    +0.051 C 
ATOM      7  C   UNL     1      32.470  -6.999 -21.256  0.00  0.00    +0.099 C 
ATOM      8  C   UNL     1      31.643  -9.715 -19.045  0.00  0.00    +0.019 C 
ATOM      9  C   UNL     1      31.526 -11.779 -20.290  0.00  0.00    +0.015 C 
ATOM     10  C   UNL     1      31.427 -11.095 -19.085  0.00  0.00    +0.003 C 
ENDROOT
BRANCH   6  11
ATOM     11  N   UNL     1      31.934 -11.814 -22.660  0.00  0.00    -0.298 N 
ATOM     12  H   UNL     1      31.474 -11.387 -23.419  0.00  0.00    +0.154 HD
ATOM     13  N   UNL     1      33.015 -13.211 -24.245  0.00  0.00    -0.229 NA
ATOM     14  C   UNL     1      32.553 -13.031 -22.986  0.00  0.00    +0.132 C 
ATOM     15  C   UNL     1      32.650 -13.982 -21.983  0.00  0.00    +0.034 C 
ATOM     16  C   UNL     1      33.262 -15.193 -22.289  0.00  0.00    +0.004 C 
ATOM     17  C   UNL     1      33.602 -14.400 -24.506  0.00  0.00    +0.100 C 
ATOM     18  C   UNL     1      33.749 -15.413 -23.573  0.00  0.00    +0.021 C 
ENDBRANCH   6  11
BRANCH   2  20
ATOM     19  C   UNL     1      33.559  -5.335 -25.938  0.00  0.00    +0.122 C 
ATOM     20  C   UNL     1      32.920  -6.826 -23.668  0.00  0.00    +0.002 C 
ATOM     21  C   UNL     1      32.312  -5.184 -25.332  0.00  0.00    +0.020 C 
ATOM     22  C   UNL     1      34.487  -6.233 -25.409  0.00  0.00    +0.020 C 
ATOM     23  C   UNL     1      31.992  -5.929 -24.197  0.00  0.00    +0.001 C 
ATOM     24  C   UNL     1      34.167  -6.978 -24.274  0.00  0.00    +0.001 C 
BRANCH  19  25
ATOM     25  S   UNL     1      33.959  -4.403 -27.359  0.00  0.00    +0.060 S 
ATOM     26  O   UNL     1      33.135  -4.864 -28.469  0.00  0.00    -0.153 OA
ATOM     27  O   UNL     1      33.931  -2.994 -26.988  0.00  0.00    -0.153 OA
BRANCH  25  28
ATOM     28  N   UNL     1      35.579  -4.857 -27.654  0.00  0.00    -0.182 NA
ATOM     29  H   UNL     1      35.563  -5.834 -27.948  0.00  0.00    +0.149 HD
BRANCH  28  30
ATOM     30  C   UNL     1      36.376  -4.127 -28.651  0.00  0.00    +0.062 C 
ATOM     31  C   UNL     1      35.439  -3.650 -29.761  0.00  0.00    +0.017 C 
ATOM     32  C   UNL     1      37.434  -5.081 -29.208  0.00  0.00    +0.017 C 
ATOM     33  C   UNL     1      37.040  -2.939 -27.955  0.00  0.00    +0.017 C 
ENDBRANCH  28  30
ENDBRANCH  25  28
ENDBRANCH  19  25
ENDBRANCH   2  20
TORSDOF 5
ENDMDL
MODEL 3
REMARK VINA RESULT:     -10.5      3.198     10.613
REMARK  Name = 16750106
REMARK  5 active torsions:
REMARK  status: ('A' for Active; 'I' for Inactive)
REMARK    1  A    between atoms: C_2  and  C_12
REMARK    2  A    between atoms: C_6  and  N_26
REMARK    3  A    between atoms: C_11  and  S_17
REMARK    4  A    between atoms: S_17  and  N_20
REMARK    5  A    between atoms: N_20  and  C_22
REMARK                            x       y       z     vdW  Elec       q    Type
REMARK                         _______ _______ _______ _____ _____    ______ ____
ROOT
ATOM      1  N   UNL     1      35.094 -18.269 -24.399  0.00  0.00    -0.244 NA
ATOM      2  C   UNL     1      34.331 -18.838 -22.180  0.00  0.00    +0.019 C 
ATOM      3  C   UNL     1      34.019 -16.598 -23.036  0.00  0.00    +0.031 C 
ATOM      4  C   UNL     1      33.870 -17.540 -22.009  0.00  0.00    +0.004 C 
ATOM      5  C   UNL     1      34.646 -17.011 -24.230  0.00  0.00    +0.082 C 
ATOM      6  C   UNL     1      33.564 -15.276 -22.894  0.00  0.00    +0.051 C 
ATOM      7  C   UNL     1      34.930 -19.149 -23.385  0.00  0.00    +0.099 C 
ATOM      8  C   UNL     1      34.794 -16.074 -25.250  0.00  0.00    +0.019 C 
ATOM      9  C   UNL     1      33.725 -14.360 -23.929  0.00  0.00    +0.015 C 
ATOM     10  C   UNL     1      34.342 -14.760 -25.108  0.00  0.00    +0.003 C 
ENDROOT
BRANCH   6  11
ATOM     11  N   UNL     1      32.932 -14.831 -21.708  0.00  0.00    -0.298 N 
ATOM     12  H   UNL     1      32.858 -15.525 -21.013  0.00  0.00    +0.154 HD
ATOM     13  N   UNL     1      32.406 -13.246 -20.023  0.00  0.00    -0.229 NA
ATOM     14  C   UNL     1      32.390 -13.592 -21.330  0.00  0.00    +0.132 C 
ATOM     15  C   UNL     1      31.865 -12.796 -22.336  0.00  0.00    +0.034 C 
ATOM     16  C   UNL     1      31.325 -11.566 -21.978  0.00  0.00    +0.004 C 
ATOM     17  C   UNL     1      31.872 -12.043 -19.713  0.00  0.00    +0.100 C 
ATOM     18  C   UNL     1      31.325 -11.175 -20.644  0.00  0.00    +0.021 C 
ENDBRANCH   6  11
BRANCH   2  20
ATOM     19  C   UNL     1      33.917 -21.738 -19.125  0.00  0.00    +0.122 C 
ATOM     20  C   UNL     1      34.190 -19.827 -21.138  0.00  0.00    +0.002 C 
ATOM     21  C   UNL     1      35.181 -21.432 -19.630  0.00  0.00    +0.020 C 
ATOM     22  C   UNL     1      32.789 -21.089 -19.628  0.00  0.00    +0.020 C 
ATOM     23  C   UNL     1      35.318 -20.477 -20.636  0.00  0.00    +0.001 C 
ATOM     24  C   UNL     1      32.926 -20.133 -20.634  0.00  0.00    +0.001 C 
BRANCH  19  25
ATOM     25  S   UNL     1      33.746 -22.935 -17.865  0.00  0.00    +0.060 S 
ATOM     26  O   UNL     1      32.654 -22.537 -16.986  0.00  0.00    -0.153 OA
ATOM     27  O   UNL     1      33.708 -24.246 -18.500  0.00  0.00    -0.153 OA
BRANCH  25  28
ATOM     28  N   UNL     1      35.218 -22.785 -17.012  0.00  0.00    -0.182 NA
ATOM     29  H   UNL     1      35.416 -21.786 -16.938  0.00  0.00    +0.149 HD
BRANCH  28  30
ATOM     30  C   UNL     1      35.341 -23.343 -15.658  0.00  0.00    +0.062 C 
ATOM     31  C   UNL     1      34.187 -22.808 -14.809  0.00  0.00    +0.017 C 
ATOM     32  C   UNL     1      36.687 -22.902 -15.079  0.00  0.00    +0.017 C 
ATOM     33  C   UNL     1      35.277 -24.867 -15.760  0.00  0.00    +0.017 C 
ENDBRANCH  28  30
ENDBRANCH  25  28
ENDBRANCH  19  25
ENDBRANCH   2  20
TORSDOF 5
ENDMDL
MODEL 4
REMARK VINA RESULT:     -10.5      3.658     10.500
REMARK  Name = 16750106
REMARK  5 active torsions:
REMARK  status: ('A' for Active; 'I' for Inactive)
REMARK    1  A    between atoms: C_2  and  C_12
REMARK    2  A    between atoms: C_6  and  N_26
REMARK    3  A    between atoms: C_11  and  S_17
REMARK    4  A    between atoms: S_17  and  N_20
REMARK    5  A    between atoms: N_20  and  C_22
REMARK                            x       y       z     vdW  Elec       q    Type
REMARK                         _______ _______ _______ _____ _____    ______ ____
ROOT
ATOM      1  N   UNL     1      35.211 -18.604 -24.154  0.00  0.00    -0.244 NA
ATOM      2  C   UNL     1      34.396 -19.105 -21.938  0.00  0.00    +0.019 C 
ATOM      3  C   UNL     1      34.136 -16.883 -22.856  0.00  0.00    +0.031 C 
ATOM      4  C   UNL     1      33.952 -17.797 -21.808  0.00  0.00    +0.004 C 
ATOM      5  C   UNL     1      34.779 -17.336 -24.026  0.00  0.00    +0.082 C 
ATOM      6  C   UNL     1      33.698 -15.552 -22.756  0.00  0.00    +0.051 C 
ATOM      7  C   UNL     1      35.014 -19.455 -23.122  0.00  0.00    +0.099 C 
ATOM      8  C   UNL     1      34.962 -16.427 -25.066  0.00  0.00    +0.019 C 
ATOM      9  C   UNL     1      33.894 -14.665 -23.810  0.00  0.00    +0.015 C 
ATOM     10  C   UNL     1      34.527 -15.103 -24.966  0.00  0.00    +0.003 C 
ENDROOT
BRANCH   6  11
ATOM     11  N   UNL     1      33.049 -15.067 -21.594  0.00  0.00    -0.298 N 
ATOM     12  H   UNL     1      32.970 -15.737 -20.876  0.00  0.00    +0.154 HD
ATOM     13  N   UNL     1      32.496 -13.425 -19.974  0.00  0.00    -0.229 NA
ATOM     14  C   UNL     1      32.498 -13.818 -21.267  0.00  0.00    +0.132 C 
ATOM     15  C   UNL     1      31.982 -13.061 -22.308  0.00  0.00    +0.034 C 
ATOM     16  C   UNL     1      31.433 -11.821 -22.000  0.00  0.00    +0.004 C 
ATOM     17  C   UNL     1      31.953 -12.215 -19.714  0.00  0.00    +0.100 C 
ATOM     18  C   UNL     1      31.414 -11.383 -20.681  0.00  0.00    +0.021 C 
ENDBRANCH   6  11
BRANCH   2  20
ATOM     19  C   UNL     1      33.877 -21.921 -18.820  0.00  0.00    +0.122 C 
ATOM     20  C   UNL     1      34.219 -20.066 -20.875  0.00  0.00    +0.002 C 
ATOM     21  C   UNL     1      35.151 -21.674 -19.332  0.00  0.00    +0.020 C 
ATOM     22  C   UNL     1      32.774 -21.240 -19.336  0.00  0.00    +0.020 C 
ATOM     23  C   UNL     1      35.323 -20.746 -20.359  0.00  0.00    +0.001 C 
ATOM     24  C   UNL     1      32.946 -20.312 -20.363  0.00  0.00    +0.001 C 
BRANCH  19  25
ATOM     25  S   UNL     1      33.663 -23.083 -17.535  0.00  0.00    +0.060 S 
ATOM     26  O   UNL     1      33.614 -24.419 -18.114  0.00  0.00    -0.153 OA
ATOM     27  O   UNL     1      34.648 -22.790 -16.502  0.00  0.00    -0.153 OA
BRANCH  25  28
ATOM     28  N   UNL     1      32.112 -22.689 -16.937  0.00  0.00    -0.182 NA
ATOM     29  H   UNL     1      31.447 -22.891 -17.684  0.00  0.00    +0.149 HD
BRANCH  28  30
ATOM     30  C   UNL     1      31.603 -23.349 -15.726  0.00  0.00    +0.062 C 
ATOM     31  C   UNL     1      32.794 -23.899 -14.939  0.00  0.00    +0.017 C 
ATOM     32  C   UNL     1      30.670 -24.482 -16.156  0.00  0.00    +0.017 C 
ATOM     33  C   UNL     1      30.842 -22.313 -14.900  0.00  0.00    +0.017 C 
ENDBRANCH  28  30
ENDBRANCH  25  28
ENDBRANCH  19  25
ENDBRANCH   2  20
TORSDOF 5
ENDMDL
MODEL 5
REMARK VINA RESULT:     -10.4      1.561      4.287
REMARK  Name = 16750106
REMARK  5 active torsions:
REMARK  status: ('A' for Active; 'I' for Inactive)
REMARK    1  A    between atoms: C_2  and  C_12
REMARK    2  A    between atoms: C_6  and  N_26
REMARK    3  A    between atoms: C_11  and  S_17
REMARK    4  A    between atoms: S_17  and  N_20
REMARK    5  A    between atoms: N_20  and  C_22
REMARK                            x       y       z     vdW  Elec       q    Type
REMARK                         _______ _______ _______ _____ _____    ______ ____
ROOT
ATOM      1  N   UNL     1      37.469 -22.423 -16.398  0.00  0.00    -0.244 NA
ATOM      2  C   UNL     1      35.944 -21.663 -18.109  0.00  0.00    +0.019 C 
ATOM      3  C   UNL     1      35.192 -23.212 -16.412  0.00  0.00    +0.031 C 
ATOM      4  C   UNL     1      34.937 -22.438 -17.552  0.00  0.00    +0.004 C 
ATOM      5  C   UNL     1      36.490 -23.175 -15.860  0.00  0.00    +0.082 C 
ATOM      6  C   UNL     1      34.194 -24.008 -15.824  0.00  0.00    +0.051 C 
ATOM      7  C   UNL     1      37.182 -21.690 -17.498  0.00  0.00    +0.099 C 
ATOM      8  C   UNL     1      36.743 -23.944 -14.727  0.00  0.00    +0.019 C 
ATOM      9  C   UNL     1      34.475 -24.768 -14.692  0.00  0.00    +0.015 C 
ATOM     10  C   UNL     1      35.750 -24.736 -14.144  0.00  0.00    +0.003 C 
ENDROOT
BRANCH   6  11
ATOM     11  N   UNL     1      32.883 -24.068 -16.354  0.00  0.00    -0.298 N 
ATOM     12  H   UNL     1      32.844 -24.405 -17.278  0.00  0.00    +0.154 HD
ATOM     13  N   UNL     1      30.539 -24.421 -16.244  0.00  0.00    -0.229 NA
ATOM     14  C   UNL     1      31.627 -23.741 -15.817  0.00  0.00    +0.132 C 
ATOM     15  C   UNL     1      31.586 -22.727 -14.873  0.00  0.00    +0.034 C 
ATOM     16  C   UNL     1      30.350 -22.391 -14.331  0.00  0.00    +0.004 C 
ATOM     17  C   UNL     1      29.356 -24.066 -15.696  0.00  0.00    +0.100 C 
ATOM     18  C   UNL     1      29.209 -23.069 -14.746  0.00  0.00    +0.021 C 
ENDBRANCH   6  11
BRANCH   2  20
ATOM     19  C   UNL     1      35.251 -19.300 -21.552  0.00  0.00    +0.122 C 
ATOM     20  C   UNL     1      35.708 -20.857 -19.283  0.00  0.00    +0.002 C 
ATOM     21  C   UNL     1      36.526 -19.358 -20.991  0.00  0.00    +0.020 C 
ATOM     22  C   UNL     1      34.203 -20.022 -20.978  0.00  0.00    +0.020 C 
ATOM     23  C   UNL     1      36.755 -20.136 -19.856  0.00  0.00    +0.001 C 
ATOM     24  C   UNL     1      34.432 -20.800 -19.844  0.00  0.00    +0.001 C 
BRANCH  19  25
ATOM     25  S   UNL     1      34.964 -18.325 -22.972  0.00  0.00    +0.060 S 
ATOM     26  O   UNL     1      36.137 -17.494 -23.214  0.00  0.00    -0.153 OA
ATOM     27  O   UNL     1      34.485 -19.207 -24.027  0.00  0.00    -0.153 OA
BRANCH  25  28
ATOM     28  N   UNL     1      33.676 -17.320 -22.474  0.00  0.00    -0.182 NA
ATOM     29  H   UNL     1      33.182 -17.818 -21.732  0.00  0.00    +0.149 HD
BRANCH  28  30
ATOM     30  C   UNL     1      33.953 -15.969 -21.966  0.00  0.00    +0.062 C 
ATOM     31  C   UNL     1      34.866 -16.091 -20.744  0.00  0.00    +0.017 C 
ATOM     32  C   UNL     1      32.622 -15.319 -21.584  0.00  0.00    +0.017 C 
ATOM     33  C   UNL     1      34.639 -15.172 -23.076  0.00  0.00    +0.017 C 
ENDBRANCH  28  30
ENDBRANCH  25  28
ENDBRANCH  19  25
ENDBRANCH   2  20
TORSDOF 5
ENDMDL
MODEL 6
REMARK VINA RESULT:     -10.3     10.652     15.121
REMARK  Name = 16750106
REMARK  5 active torsions:
REMARK  status: ('A' for Active; 'I' for Inactive)
REMARK    1  A    between atoms: C_2  and  C_12
REMARK    2  A    between atoms: C_6  and  N_26
REMARK    3  A    between atoms: C_11  and  S_17
REMARK    4  A    between atoms: S_17  and  N_20
REMARK    5  A    between atoms: N_20  and  C_22
REMARK                            x       y       z     vdW  Elec       q    Type
REMARK                         _______ _______ _______ _____ _____    ______ ____
ROOT
ATOM      1  N   UNL     1      32.153  -7.686 -20.188  0.00  0.00    -0.244 NA
ATOM      2  C   UNL     1      32.646  -7.595 -22.550  0.00  0.00    +0.019 C 
ATOM      3  C   UNL     1      32.081  -9.702 -21.506  0.00  0.00    +0.031 C 
ATOM      4  C   UNL     1      32.435  -8.964 -22.644  0.00  0.00    +0.004 C 
ATOM      5  C   UNL     1      31.950  -9.014 -20.282  0.00  0.00    +0.082 C 
ATOM      6  C   UNL     1      31.861 -11.088 -21.567  0.00  0.00    +0.051 C 
ATOM      7  C   UNL     1      32.493  -7.010 -21.309  0.00  0.00    +0.099 C 
ATOM      8  C   UNL     1      31.598  -9.748 -19.152  0.00  0.00    +0.019 C 
ATOM      9  C   UNL     1      31.511 -11.798 -20.422  0.00  0.00    +0.015 C 
ATOM     10  C   UNL     1      31.380 -11.126 -19.213  0.00  0.00    +0.003 C 
ENDROOT
BRANCH   6  11
ATOM     11  N   UNL     1      31.985 -11.808 -22.780  0.00  0.00    -0.298 N 
ATOM     12  H   UNL     1      31.555 -11.367 -23.549  0.00  0.00    +0.154 HD
ATOM     13  N   UNL     1      33.103 -13.197 -24.345  0.00  0.00    -0.229 NA
ATOM     14  C   UNL     1      32.603 -13.028 -23.100  0.00  0.00    +0.132 C 
ATOM     15  C   UNL     1      32.658 -13.991 -22.105  0.00  0.00    +0.034 C 
ATOM     16  C   UNL     1      33.267 -15.204 -22.406  0.00  0.00    +0.004 C 
ATOM     17  C   UNL     1      33.687 -14.389 -24.601  0.00  0.00    +0.100 C 
ATOM     18  C   UNL     1      33.794 -15.415 -23.676  0.00  0.00    +0.021 C 
ENDBRANCH   6  11
BRANCH   2  20
ATOM     19  C   UNL     1      33.717  -5.298 -25.940  0.00  0.00    +0.122 C 
ATOM     20  C   UNL     1      33.011  -6.812 -23.706  0.00  0.00    +0.002 C 
ATOM     21  C   UNL     1      32.476  -5.107 -25.332  0.00  0.00    +0.020 C 
ATOM     22  C   UNL     1      34.604  -6.247 -25.431  0.00  0.00    +0.020 C 
ATOM     23  C   UNL     1      32.123  -5.864 -24.214  0.00  0.00    +0.001 C 
ATOM     24  C   UNL     1      34.251  -7.003 -24.314  0.00  0.00    +0.001 C 
BRANCH  19  25
ATOM     25  S   UNL     1      34.158  -4.351 -27.339  0.00  0.00    +0.060 S 
ATOM     26  O   UNL     1      34.408  -2.979 -26.917  0.00  0.00    -0.153 OA
ATOM     27  O   UNL     1      35.198  -5.077 -28.056  0.00  0.00    -0.153 OA
BRANCH  25  28
ATOM     28  N   UNL     1      32.727  -4.385 -28.272  0.00  0.00    -0.182 NA
ATOM     29  H   UNL     1      31.978  -4.696 -27.654  0.00  0.00    +0.149 HD
BRANCH  28  30
ATOM     30  C   UNL     1      32.251  -3.158 -28.929  0.00  0.00    +0.062 C 
ATOM     31  C   UNL     1      33.453  -2.450 -29.558  0.00  0.00    +0.017 C 
ATOM     32  C   UNL     1      31.596  -2.272 -27.869  0.00  0.00    +0.017 C 
ATOM     33  C   UNL     1      31.234  -3.553 -30.000  0.00  0.00    +0.017 C 
ENDBRANCH  28  30
ENDBRANCH  25  28
ENDBRANCH  19  25
ENDBRANCH   2  20
TORSDOF 5
ENDMDL
MODEL 7
REMARK VINA RESULT:     -10.0      1.838      4.407
REMARK  Name = 16750106
REMARK  5 active torsions:
REMARK  status: ('A' for Active; 'I' for Inactive)
REMARK    1  A    between atoms: C_2  and  C_12
REMARK    2  A    between atoms: C_6  and  N_26
REMARK    3  A    between atoms: C_11  and  S_17
REMARK    4  A    between atoms: S_17  and  N_20
REMARK    5  A    between atoms: N_20  and  C_22
REMARK                            x       y       z     vdW  Elec       q    Type
REMARK                         _______ _______ _______ _____ _____    ______ ____
ROOT
ATOM      1  N   UNL     1      37.871 -23.940 -15.096  0.00  0.00    -0.244 NA
ATOM      2  C   UNL     1      36.428 -22.559 -16.452  0.00  0.00    +0.019 C 
ATOM      3  C   UNL     1      35.611 -23.505 -14.383  0.00  0.00    +0.031 C 
ATOM      4  C   UNL     1      35.405 -22.727 -15.530  0.00  0.00    +0.004 C 
ATOM      5  C   UNL     1      36.876 -24.102 -14.204  0.00  0.00    +0.082 C 
ATOM      6  C   UNL     1      34.596 -23.696 -13.431  0.00  0.00    +0.051 C 
ATOM      7  C   UNL     1      37.632 -23.181 -16.190  0.00  0.00    +0.099 C 
ATOM      8  C   UNL     1      37.080 -24.876 -13.063  0.00  0.00    +0.019 C 
ATOM      9  C   UNL     1      34.826 -24.474 -12.300  0.00  0.00    +0.015 C 
ATOM     10  C   UNL     1      36.070 -25.065 -12.117  0.00  0.00    +0.003 C 
ENDROOT
BRANCH   6  11
ATOM     11  N   UNL     1      33.315 -23.111 -13.582  0.00  0.00    -0.298 N 
ATOM     12  H   UNL     1      33.269 -22.174 -13.280  0.00  0.00    +0.154 HD
ATOM     13  N   UNL     1      31.238 -22.747 -14.669  0.00  0.00    -0.229 NA
ATOM     14  C   UNL     1      32.099 -23.606 -14.078  0.00  0.00    +0.132 C 
ATOM     15  C   UNL     1      31.857 -24.962 -13.926  0.00  0.00    +0.034 C 
ATOM     16  C   UNL     1      30.657 -25.469 -14.413  0.00  0.00    +0.004 C 
ATOM     17  C   UNL     1      30.082 -23.275 -15.129  0.00  0.00    +0.100 C 
ATOM     18  C   UNL     1      29.747 -24.615 -15.027  0.00  0.00    +0.021 C 
ENDBRANCH   6  11
BRANCH   2  20
ATOM     19  C   UNL     1      35.883 -20.224 -19.941  0.00  0.00    +0.122 C 
ATOM     20  C   UNL     1      36.242 -21.763 -17.642  0.00  0.00    +0.002 C 
ATOM     21  C   UNL     1      37.006 -20.026 -19.137  0.00  0.00    +0.020 C 
ATOM     22  C   UNL     1      34.939 -21.191 -19.594  0.00  0.00    +0.020 C 
ATOM     23  C   UNL     1      37.186 -20.795 -17.988  0.00  0.00    +0.001 C 
ATOM     24  C   UNL     1      35.119 -21.961 -18.445  0.00  0.00    +0.001 C 
BRANCH  19  25
ATOM     25  S   UNL     1      35.657 -19.260 -21.379  0.00  0.00    +0.060 S 
ATOM     26  O   UNL     1      36.900 -19.256 -22.140  0.00  0.00    -0.153 OA
ATOM     27  O   UNL     1      34.429 -19.705 -22.023  0.00  0.00    -0.153 OA
BRANCH  25  28
ATOM     28  N   UNL     1      35.403 -17.697 -20.738  0.00  0.00    -0.182 NA
ATOM     29  H   UNL     1      36.319 -17.252 -20.672  0.00  0.00    +0.149 HD
BRANCH  28  30
ATOM     30  C   UNL     1      34.522 -16.752 -21.440  0.00  0.00    +0.062 C 
ATOM     31  C   UNL     1      34.907 -16.740 -22.920  0.00  0.00    +0.017 C 
ATOM     32  C   UNL     1      34.716 -15.367 -20.819  0.00  0.00    +0.017 C 
ATOM     33  C   UNL     1      33.078 -17.220 -21.260  0.00  0.00    +0.017 C 
ENDBRANCH  28  30
ENDBRANCH  25  28
ENDBRANCH  19  25
ENDBRANCH   2  20
TORSDOF 5
ENDMDL
MODEL 8
REMARK VINA RESULT:      -9.9      1.821      4.282
REMARK  Name = 16750106
REMARK  5 active torsions:
REMARK  status: ('A' for Active; 'I' for Inactive)
REMARK    1  A    between atoms: C_2  and  C_12
REMARK    2  A    between atoms: C_6  and  N_26
REMARK    3  A    between atoms: C_11  and  S_17
REMARK    4  A    between atoms: S_17  and  N_20
REMARK    5  A    between atoms: N_20  and  C_22
REMARK                            x       y       z     vdW  Elec       q    Type
REMARK                         _______ _______ _______ _____ _____    ______ ____
ROOT
ATOM      1  N   UNL     1      38.294 -22.919 -15.542  0.00  0.00    -0.244 NA
ATOM      2  C   UNL     1      36.369 -22.531 -16.946  0.00  0.00    +0.019 C 
ATOM      3  C   UNL     1      36.231 -24.081 -15.096  0.00  0.00    +0.031 C 
ATOM      4  C   UNL     1      35.636 -23.431 -16.186  0.00  0.00    +0.004 C 
ATOM      5  C   UNL     1      37.580 -23.792 -14.806  0.00  0.00    +0.082 C 
ATOM      6  C   UNL     1      35.516 -24.998 -14.307  0.00  0.00    +0.051 C 
ATOM      7  C   UNL     1      37.683 -22.312 -16.585  0.00  0.00    +0.099 C 
ATOM      8  C   UNL     1      38.170 -24.439 -13.723  0.00  0.00    +0.019 C 
ATOM      9  C   UNL     1      36.130 -25.630 -13.230  0.00  0.00    +0.015 C 
ATOM     10  C   UNL     1      37.459 -25.351 -12.939  0.00  0.00    +0.003 C 
ENDROOT
BRANCH   6  11
ATOM     11  N   UNL     1      34.160 -25.310 -14.572  0.00  0.00    -0.298 N 
ATOM     12  H   UNL     1      34.039 -26.130 -15.103  0.00  0.00    +0.154 HD
ATOM     13  N   UNL     1      31.847 -25.433 -14.059  0.00  0.00    -0.229 NA
ATOM     14  C   UNL     1      32.956 -24.677 -14.226  0.00  0.00    +0.132 C 
ATOM     15  C   UNL     1      32.984 -23.299 -14.078  0.00  0.00    +0.034 C 
ATOM     16  C   UNL     1      31.799 -22.657 -13.734  0.00  0.00    +0.004 C 
ATOM     17  C   UNL     1      30.715 -24.774 -13.726  0.00  0.00    +0.100 C 
ATOM     18  C   UNL     1      30.639 -23.402 -13.553  0.00  0.00    +0.021 C 
ENDBRANCH   6  11
BRANCH   2  20
ATOM     19  C   UNL     1      34.643 -20.528 -20.253  0.00  0.00    +0.122 C 
ATOM     20  C   UNL     1      35.780 -21.848 -18.074  0.00  0.00    +0.002 C 
ATOM     21  C   UNL     1      35.997 -20.356 -19.961  0.00  0.00    +0.020 C 
ATOM     22  C   UNL     1      33.859 -21.360 -19.453  0.00  0.00    +0.020 C 
ATOM     23  C   UNL     1      36.566 -21.016 -18.872  0.00  0.00    +0.001 C 
ATOM     24  C   UNL     1      34.428 -22.020 -18.364  0.00  0.00    +0.001 C 
BRANCH  19  25
ATOM     25  S   UNL     1      33.931 -19.702 -21.615  0.00  0.00    +0.060 S 
ATOM     26  O   UNL     1      34.767 -19.926 -22.789  0.00  0.00    -0.153 OA
ATOM     27  O   UNL     1      32.521 -20.061 -21.666  0.00  0.00    -0.153 OA
BRANCH  25  28
ATOM     28  N   UNL     1      34.060 -18.060 -21.159  0.00  0.00    -0.182 NA
ATOM     29  H   UNL     1      34.508 -18.043 -20.242  0.00  0.00    +0.149 HD
BRANCH  28  30
ATOM     30  C   UNL     1      34.800 -17.118 -22.010  0.00  0.00    +0.062 C 
ATOM     31  C   UNL     1      36.222 -17.650 -22.197  0.00  0.00    +0.017 C 
ATOM     32  C   UNL     1      34.819 -15.757 -21.312  0.00  0.00    +0.017 C 
ATOM     33  C   UNL     1      34.079 -17.020 -23.355  0.00  0.00    +0.017 C 
ENDBRANCH  28  30
ENDBRANCH  25  28
ENDBRANCH  19  25
ENDBRANCH   2  20
TORSDOF 5
ENDMDL
MODEL 9
REMARK VINA RESULT:      -9.4      3.334     11.141
REMARK  Name = 16750106
REMARK  5 active torsions:
REMARK  status: ('A' for Active; 'I' for Inactive)
REMARK    1  A    between atoms: C_2  and  C_12
REMARK    2  A    between atoms: C_6  and  N_26
REMARK    3  A    between atoms: C_11  and  S_17
REMARK    4  A    between atoms: S_17  and  N_20
REMARK    5  A    between atoms: N_20  and  C_22
REMARK                            x       y       z     vdW  Elec       q    Type
REMARK                         _______ _______ _______ _____ _____    ______ ____
ROOT
ATOM      1  N   UNL     1      34.736 -16.554 -25.572  0.00  0.00    -0.244 NA
ATOM      2  C   UNL     1      34.478 -17.346 -23.306  0.00  0.00    +0.019 C 
ATOM      3  C   UNL     1      33.510 -15.233 -23.973  0.00  0.00    +0.031 C 
ATOM      4  C   UNL     1      33.750 -16.207 -22.993  0.00  0.00    +0.004 C 
ATOM      5  C   UNL     1      34.029 -15.450 -25.266  0.00  0.00    +0.082 C 
ATOM      6  C   UNL     1      32.777 -14.069 -23.688  0.00  0.00    +0.051 C 
ATOM      7  C   UNL     1      34.944 -17.471 -24.599  0.00  0.00    +0.099 C 
ATOM      8  C   UNL     1      33.791 -14.482 -26.238  0.00  0.00    +0.019 C 
ATOM      9  C   UNL     1      32.554 -13.117 -24.679  0.00  0.00    +0.015 C 
ATOM     10  C   UNL     1      33.063 -13.324 -25.955  0.00  0.00    +0.003 C 
ENDROOT
BRANCH   6  11
ATOM     11  N   UNL     1      32.243 -13.822 -22.400  0.00  0.00    -0.298 N 
ATOM     12  H   UNL     1      32.004 -14.640 -21.907  0.00  0.00    +0.154 HD
ATOM     13  N   UNL     1      32.063 -12.659 -20.340  0.00  0.00    -0.229 NA
ATOM     14  C   UNL     1      31.989 -12.637 -21.690  0.00  0.00    +0.132 C 
ATOM     15  C   UNL     1      31.674 -11.509 -22.431  0.00  0.00    +0.034 C 
ATOM     16  C   UNL     1      31.420 -10.328 -21.742  0.00  0.00    +0.004 C 
ATOM     17  C   UNL     1      31.810 -11.493 -19.706  0.00  0.00    +0.100 C 
ATOM     18  C   UNL     1      31.487 -10.311 -20.354  0.00  0.00    +0.021 C 
ENDBRANCH   6  11
BRANCH   2  20
ATOM     19  C   UNL     1      35.242 -20.331 -20.403  0.00  0.00    +0.122 C 
ATOM     20  C   UNL     1      34.739 -18.364 -22.316  0.00  0.00    +0.002 C 
ATOM     21  C   UNL     1      36.286 -19.538 -20.879  0.00  0.00    +0.020 C 
ATOM     22  C   UNL     1      33.946 -20.141 -20.884  0.00  0.00    +0.020 C 
ATOM     23  C   UNL     1      36.035 -18.554 -21.835  0.00  0.00    +0.001 C 
ATOM     24  C   UNL     1      33.695 -19.157 -21.840  0.00  0.00    +0.001 C 
BRANCH  19  25
ATOM     25  S   UNL     1      35.557 -21.563 -19.206  0.00  0.00    +0.060 S 
ATOM     26  O   UNL     1      35.851 -22.816 -19.889  0.00  0.00    -0.153 OA
ATOM     27  O   UNL     1      36.524 -21.024 -18.258  0.00  0.00    -0.153 OA
BRANCH  25  28
ATOM     28  N   UNL     1      34.047 -21.708 -18.422  0.00  0.00    -0.182 NA
ATOM     29  H   UNL     1      33.329 -21.577 -19.135  0.00  0.00    +0.149 HD
BRANCH  28  30
ATOM     30  C   UNL     1      33.710 -22.947 -17.704  0.00  0.00    +0.062 C 
ATOM     31  C   UNL     1      32.288 -22.814 -17.154  0.00  0.00    +0.017 C 
ATOM     32  C   UNL     1      34.715 -23.128 -16.565  0.00  0.00    +0.017 C 
ATOM     33  C   UNL     1      33.802 -24.111 -18.690  0.00  0.00    +0.017 C 
ENDBRANCH  28  30
ENDBRANCH  25  28
ENDBRANCH  19  25
ENDBRANCH   2  20
TORSDOF 5
ENDMDL
