MODEL 1
REMARK VINA RESULT:      -8.7      0.000      0.000
REMARK  Name = 2998
REMARK  11 active torsions:
REMARK  status: ('A' for Active; 'I' for Inactive)
REMARK    1  A    between atoms: N_2  and  C_13
REMARK    2  A    between atoms: C_3  and  C_5
REMARK    3  A    between atoms: C_5  and  C_6
REMARK    4  A    between atoms: C_6  and  C_7
REMARK    5  A    between atoms: C_7  and  C_8
REMARK    6  A    between atoms: C_8  and  C_9
REMARK    7  A    between atoms: C_9  and  C_10
REMARK    8  A    between atoms: C_10  and  C_11
REMARK    9  A    between atoms: C_13  and  C_14
REMARK   10  A    between atoms: C_17  and  O_20
REMARK   11  A    between atoms: C_19  and  O_22
REMARK                            x       y       z     vdW  Elec       q    Type
REMARK                         _______ _______ _______ _____ _____    ______ ____
ROOT
ATOM      1  O   UNL     1      34.621 -17.020 -23.968  0.00  0.00    -0.275 OA
ATOM      2  N   UNL     1      35.370 -17.206 -21.776  0.00  0.00    -0.300 N 
ATOM      3  C   UNL     1      34.777 -16.550 -22.845  0.00  0.00    +0.223 C 
ATOM      4  H   UNL     1      35.443 -16.729 -20.918  0.00  0.00    +0.150 HD
ENDROOT
BRANCH   3   5
ATOM      5  C   UNL     1      34.330 -15.150 -22.462  0.00  0.00    +0.085 C 
BRANCH   5   6
ATOM      6  C   UNL     1      34.067 -15.010 -20.964  0.00  0.00    +0.010 C 
BRANCH   6   7
ATOM      7  C   UNL     1      32.764 -14.252 -20.698  0.00  0.00    +0.001 C 
BRANCH   7   8
ATOM      8  C   UNL     1      32.323 -13.370 -21.869  0.00  0.00    +0.000 C 
BRANCH   8   9
ATOM      9  C   UNL     1      31.674 -12.056 -21.431  0.00  0.00    +0.000 C 
BRANCH   9  10
ATOM     10  C   UNL     1      31.741 -11.886 -19.912  0.00  0.00    +0.000 C 
BRANCH  10  11
ATOM     11  C   UNL     1      31.110 -10.564 -19.471  0.00  0.00    +0.000 C 
ATOM     12  C   UNL     1      31.991  -9.380 -19.833  0.00  0.00    +0.000 C 
ENDBRANCH  10  11
ENDBRANCH   9  10
ENDBRANCH   8   9
ENDBRANCH   7   8
ENDBRANCH   6   7
ENDBRANCH   5   6
ENDBRANCH   3   5
BRANCH   2  13
ATOM     13  C   UNL     1      35.887 -18.552 -21.861  0.00  0.00    +0.116 C 
BRANCH  13  14
ATOM     14  C   UNL     1      35.070 -19.520 -21.055  0.00  0.00    +0.001 C 
ATOM     15  C   UNL     1      35.702 -20.494 -20.283  0.00  0.00    +0.037 C 
ATOM     16  C   UNL     1      33.677 -19.445 -21.080  0.00  0.00    +0.001 C 
ATOM     17  C   UNL     1      34.942 -21.392 -19.534  0.00  0.00    +0.172 C 
ATOM     18  C   UNL     1      32.917 -20.344 -20.332  0.00  0.00    +0.040 C 
ATOM     19  C   UNL     1      33.550 -21.319 -19.559  0.00  0.00    +0.168 C 
BRANCH  17  20
ATOM     20  O   UNL     1      35.572 -22.339 -18.783  0.00  0.00    -0.468 OA
ATOM     21  C   UNL     1      36.512 -21.877 -17.814  0.00  0.00    +0.253 C 
ENDBRANCH  17  20
BRANCH  19  22
ATOM     22  O   UNL     1      32.797 -22.190 -18.832  0.00  0.00    -0.503 OA
ATOM     23  H   UNL     1      32.033 -21.886 -18.383  0.00  0.00    +0.292 HD
ENDBRANCH  19  22
ENDBRANCH  13  14
ENDBRANCH   2  13
TORSDOF 11
ENDMDL
MODEL 2
REMARK VINA RESULT:      -8.4      1.862      2.726
REMARK  Name = 2998
REMARK  11 active torsions:
REMARK  status: ('A' for Active; 'I' for Inactive)
REMARK    1  A    between atoms: N_2  and  C_13
REMARK    2  A    between atoms: C_3  and  C_5
REMARK    3  A    between atoms: C_5  and  C_6
REMARK    4  A    between atoms: C_6  and  C_7
REMARK    5  A    between atoms: C_7  and  C_8
REMARK    6  A    between atoms: C_8  and  C_9
REMARK    7  A    between atoms: C_9  and  C_10
REMARK    8  A    between atoms: C_10  and  C_11
REMARK    9  A    between atoms: C_13  and  C_14
REMARK   10  A    between atoms: C_17  and  O_20
REMARK   11  A    between atoms: C_19  and  O_22
REMARK                            x       y       z     vdW  Elec       q    Type
REMARK                         _______ _______ _______ _____ _____    ______ ____
ROOT
ATOM      1  O   UNL     1      35.177 -19.683 -24.363  0.00  0.00    -0.275 OA
ATOM      2  N   UNL     1      35.302 -17.862 -22.924  0.00  0.00    -0.300 N 
ATOM      3  C   UNL     1      34.941 -18.508 -24.098  0.00  0.00    +0.223 C 
ATOM      4  H   UNL     1      35.059 -16.914 -22.819  0.00  0.00    +0.150 HD
ENDROOT
BRANCH   3   5
ATOM      5  C   UNL     1      34.200 -17.576 -25.042  0.00  0.00    +0.085 C 
BRANCH   5   6
ATOM      6  C   UNL     1      34.410 -16.104 -24.694  0.00  0.00    +0.010 C 
BRANCH   6   7
ATOM      7  C   UNL     1      33.351 -15.221 -25.359  0.00  0.00    +0.001 C 
BRANCH   7   8
ATOM      8  C   UNL     1      33.265 -13.816 -24.756  0.00  0.00    +0.000 C 
BRANCH   8   9
ATOM      9  C   UNL     1      33.686 -13.758 -23.287  0.00  0.00    +0.000 C 
BRANCH   9  10
ATOM     10  C   UNL     1      32.471 -13.619 -22.368  0.00  0.00    +0.000 C 
BRANCH  10  11
ATOM     11  C   UNL     1      32.747 -14.213 -20.986  0.00  0.00    +0.000 C 
ATOM     12  C   UNL     1      33.010 -15.708 -21.065  0.00  0.00    +0.000 C 
ENDBRANCH  10  11
ENDBRANCH   9  10
ENDBRANCH   8   9
ENDBRANCH   7   8
ENDBRANCH   6   7
ENDBRANCH   5   6
ENDBRANCH   3   5
BRANCH   2  13
ATOM     13  C   UNL     1      36.017 -18.511 -21.850  0.00  0.00    +0.116 C 
BRANCH  13  14
ATOM     14  C   UNL     1      35.138 -19.451 -21.077  0.00  0.00    +0.001 C 
ATOM     15  C   UNL     1      35.707 -20.470 -20.313  0.00  0.00    +0.037 C 
ATOM     16  C   UNL     1      33.751 -19.306 -21.123  0.00  0.00    +0.001 C 
ATOM     17  C   UNL     1      34.890 -21.342 -19.594  0.00  0.00    +0.172 C 
ATOM     18  C   UNL     1      32.935 -20.179 -20.405  0.00  0.00    +0.040 C 
ATOM     19  C   UNL     1      33.504 -21.198 -19.640  0.00  0.00    +0.168 C 
BRANCH  17  20
ATOM     20  O   UNL     1      35.459 -22.332 -18.850  0.00  0.00    -0.468 OA
ATOM     21  C   UNL     1      36.396 -21.936 -17.851  0.00  0.00    +0.253 C 
ENDBRANCH  17  20
BRANCH  19  22
ATOM     22  O   UNL     1      32.695 -22.043 -18.942  0.00  0.00    -0.503 OA
ATOM     23  H   UNL     1      32.938 -22.318 -18.080  0.00  0.00    +0.292 HD
ENDBRANCH  19  22
ENDBRANCH  13  14
ENDBRANCH   2  13
TORSDOF 11
ENDMDL
MODEL 3
REMARK VINA RESULT:      -8.3      2.263      2.755
REMARK  Name = 2998
REMARK  11 active torsions:
REMARK  status: ('A' for Active; 'I' for Inactive)
REMARK    1  A    between atoms: N_2  and  C_13
REMARK    2  A    between atoms: C_3  and  C_5
REMARK    3  A    between atoms: C_5  and  C_6
REMARK    4  A    between atoms: C_6  and  C_7
REMARK    5  A    between atoms: C_7  and  C_8
REMARK    6  A    between atoms: C_8  and  C_9
REMARK    7  A    between atoms: C_9  and  C_10
REMARK    8  A    between atoms: C_10  and  C_11
REMARK    9  A    between atoms: C_13  and  C_14
REMARK   10  A    between atoms: C_17  and  O_20
REMARK   11  A    between atoms: C_19  and  O_22
REMARK                            x       y       z     vdW  Elec       q    Type
REMARK                         _______ _______ _______ _____ _____    ______ ____
ROOT
ATOM      1  O   UNL     1      35.095 -16.236 -20.201  0.00  0.00    -0.275 OA
ATOM      2  N   UNL     1      35.126 -17.528 -22.133  0.00  0.00    -0.300 N 
ATOM      3  C   UNL     1      34.771 -16.425 -21.371  0.00  0.00    +0.223 C 
ATOM      4  H   UNL     1      34.809 -17.575 -23.063  0.00  0.00    +0.150 HD
ENDROOT
BRANCH   3   5
ATOM      5  C   UNL     1      33.916 -15.451 -22.163  0.00  0.00    +0.085 C 
BRANCH   5   6
ATOM      6  C   UNL     1      32.960 -14.656 -21.276  0.00  0.00    +0.010 C 
BRANCH   6   7
ATOM      7  C   UNL     1      32.272 -13.539 -22.064  0.00  0.00    +0.001 C 
BRANCH   7   8
ATOM      8  C   UNL     1      32.990 -13.183 -23.369  0.00  0.00    +0.000 C 
BRANCH   8   9
ATOM      9  C   UNL     1      33.218 -11.681 -23.546  0.00  0.00    +0.000 C 
BRANCH   9  10
ATOM     10  C   UNL     1      33.788 -11.368 -24.931  0.00  0.00    +0.000 C 
BRANCH  10  11
ATOM     11  C   UNL     1      34.870 -10.290 -24.857  0.00  0.00    +0.000 C 
ATOM     12  C   UNL     1      35.743 -10.290 -26.102  0.00  0.00    +0.000 C 
ENDBRANCH  10  11
ENDBRANCH   9  10
ENDBRANCH   8   9
ENDBRANCH   7   8
ENDBRANCH   6   7
ENDBRANCH   5   6
ENDBRANCH   3   5
BRANCH   2  13
ATOM     13  C   UNL     1      35.937 -18.612 -21.629  0.00  0.00    +0.116 C 
BRANCH  13  14
ATOM     14  C   UNL     1      35.121 -19.623 -20.877  0.00  0.00    +0.001 C 
ATOM     15  C   UNL     1      35.753 -20.568 -20.068  0.00  0.00    +0.037 C 
ATOM     16  C   UNL     1      33.730 -19.617 -20.986  0.00  0.00    +0.001 C 
ATOM     17  C   UNL     1      34.994 -21.506 -19.369  0.00  0.00    +0.172 C 
ATOM     18  C   UNL     1      32.972 -20.556 -20.287  0.00  0.00    +0.040 C 
ATOM     19  C   UNL     1      33.604 -21.501 -19.479  0.00  0.00    +0.168 C 
BRANCH  17  20
ATOM     20  O   UNL     1      35.623 -22.424 -18.582  0.00  0.00    -0.468 OA
ATOM     21  C   UNL     1      36.296 -21.933 -17.425  0.00  0.00    +0.253 C 
ENDBRANCH  17  20
BRANCH  19  22
ATOM     22  O   UNL     1      32.851 -22.412 -18.800  0.00  0.00    -0.503 OA
ATOM     23  H   UNL     1      33.182 -22.798 -18.013  0.00  0.00    +0.292 HD
ENDBRANCH  19  22
ENDBRANCH  13  14
ENDBRANCH   2  13
TORSDOF 11
ENDMDL
MODEL 4
REMARK VINA RESULT:      -8.1      4.224      6.739
REMARK  Name = 2998
REMARK  11 active torsions:
REMARK  status: ('A' for Active; 'I' for Inactive)
REMARK    1  A    between atoms: N_2  and  C_13
REMARK    2  A    between atoms: C_3  and  C_5
REMARK    3  A    between atoms: C_5  and  C_6
REMARK    4  A    between atoms: C_6  and  C_7
REMARK    5  A    between atoms: C_7  and  C_8
REMARK    6  A    between atoms: C_8  and  C_9
REMARK    7  A    between atoms: C_9  and  C_10
REMARK    8  A    between atoms: C_10  and  C_11
REMARK    9  A    between atoms: C_13  and  C_14
REMARK   10  A    between atoms: C_17  and  O_20
REMARK   11  A    between atoms: C_19  and  O_22
REMARK                            x       y       z     vdW  Elec       q    Type
REMARK                         _______ _______ _______ _____ _____    ______ ____
ROOT
ATOM      1  O   UNL     1      34.967 -21.486 -19.698  0.00  0.00    -0.275 OA
ATOM      2  N   UNL     1      32.933 -22.150 -18.791  0.00  0.00    -0.300 N 
ATOM      3  C   UNL     1      33.751 -21.357 -19.582  0.00  0.00    +0.223 C 
ATOM      4  H   UNL     1      31.968 -21.954 -18.775  0.00  0.00    +0.150 HD
ENDROOT
BRANCH   3   5
ATOM      5  C   UNL     1      32.957 -20.284 -20.308  0.00  0.00    +0.085 C 
BRANCH   5   6
ATOM      6  C   UNL     1      33.803 -19.517 -21.323  0.00  0.00    +0.010 C 
BRANCH   6   7
ATOM      7  C   UNL     1      33.801 -18.016 -21.024  0.00  0.00    +0.001 C 
BRANCH   7   8
ATOM      8  C   UNL     1      35.129 -17.329 -21.351  0.00  0.00    +0.000 C 
BRANCH   8   9
ATOM      9  C   UNL     1      35.601 -17.570 -22.786  0.00  0.00    +0.000 C 
BRANCH   9  10
ATOM     10  C   UNL     1      34.941 -16.590 -23.757  0.00  0.00    +0.000 C 
BRANCH  10  11
ATOM     11  C   UNL     1      34.507 -17.290 -25.046  0.00  0.00    +0.000 C 
ATOM     12  C   UNL     1      34.422 -18.795 -24.860  0.00  0.00    +0.000 C 
ENDBRANCH  10  11
ENDBRANCH   9  10
ENDBRANCH   8   9
ENDBRANCH   7   8
ENDBRANCH   6   7
ENDBRANCH   5   6
ENDBRANCH   3   5
BRANCH   2  13
ATOM     13  C   UNL     1      33.425 -23.247 -17.991  0.00  0.00    +0.116 C 
BRANCH  13  14
ATOM     14  C   UNL     1      32.792 -23.278 -16.630  0.00  0.00    +0.001 C 
ATOM     15  C   UNL     1      31.439 -22.974 -16.482  0.00  0.00    +0.037 C 
ATOM     16  C   UNL     1      33.557 -23.613 -15.512  0.00  0.00    +0.001 C 
ATOM     17  C   UNL     1      30.851 -23.004 -15.218  0.00  0.00    +0.172 C 
ATOM     18  C   UNL     1      32.969 -23.642 -14.248  0.00  0.00    +0.040 C 
ATOM     19  C   UNL     1      31.616 -23.338 -14.101  0.00  0.00    +0.168 C 
BRANCH  17  20
ATOM     20  O   UNL     1      29.528 -22.705 -15.086  0.00  0.00    -0.468 OA
ATOM     21  C   UNL     1      28.754 -22.650 -16.283  0.00  0.00    +0.253 C 
ENDBRANCH  17  20
BRANCH  19  22
ATOM     22  O   UNL     1      31.054 -23.371 -12.860  0.00  0.00    -0.503 OA
ATOM     23  H   UNL     1      30.135 -23.217 -12.758  0.00  0.00    +0.292 HD
ENDBRANCH  19  22
ENDBRANCH  13  14
ENDBRANCH   2  13
TORSDOF 11
ENDMDL
MODEL 5
REMARK VINA RESULT:      -8.1      3.867      6.013
REMARK  Name = 2998
REMARK  11 active torsions:
REMARK  status: ('A' for Active; 'I' for Inactive)
REMARK    1  A    between atoms: N_2  and  C_13
REMARK    2  A    between atoms: C_3  and  C_5
REMARK    3  A    between atoms: C_5  and  C_6
REMARK    4  A    between atoms: C_6  and  C_7
REMARK    5  A    between atoms: C_7  and  C_8
REMARK    6  A    between atoms: C_8  and  C_9
REMARK    7  A    between atoms: C_9  and  C_10
REMARK    8  A    between atoms: C_10  and  C_11
REMARK    9  A    between atoms: C_13  and  C_14
REMARK   10  A    between atoms: C_17  and  O_20
REMARK   11  A    between atoms: C_19  and  O_22
REMARK                            x       y       z     vdW  Elec       q    Type
REMARK                         _______ _______ _______ _____ _____    ______ ____
ROOT
ATOM      1  O   UNL     1      34.923 -21.262 -19.438  0.00  0.00    -0.275 OA
ATOM      2  N   UNL     1      32.991 -22.342 -18.730  0.00  0.00    -0.300 N 
ATOM      3  C   UNL     1      33.705 -21.414 -19.474  0.00  0.00    +0.223 C 
ATOM      4  H   UNL     1      32.013 -22.375 -18.840  0.00  0.00    +0.150 HD
ENDROOT
BRANCH   3   5
ATOM      5  C   UNL     1      32.791 -20.586 -20.361  0.00  0.00    +0.085 C 
BRANCH   5   6
ATOM      6  C   UNL     1      33.429 -19.266 -20.787  0.00  0.00    +0.010 C 
BRANCH   6   7
ATOM      7  C   UNL     1      34.211 -19.424 -22.094  0.00  0.00    +0.001 C 
BRANCH   7   8
ATOM      8  C   UNL     1      35.272 -18.341 -22.303  0.00  0.00    +0.000 C 
BRANCH   8   9
ATOM      9  C   UNL     1      35.254 -17.256 -21.224  0.00  0.00    +0.000 C 
BRANCH   9  10
ATOM     10  C   UNL     1      34.731 -15.931 -21.782  0.00  0.00    +0.000 C 
BRANCH  10  11
ATOM     11  C   UNL     1      34.214 -15.022 -20.666  0.00  0.00    +0.000 C 
ATOM     12  C   UNL     1      32.708 -15.140 -20.505  0.00  0.00    +0.000 C 
ENDBRANCH  10  11
ENDBRANCH   9  10
ENDBRANCH   8   9
ENDBRANCH   7   8
ENDBRANCH   6   7
ENDBRANCH   5   6
ENDBRANCH   3   5
BRANCH   2  13
ATOM     13  C   UNL     1      33.610 -23.260 -17.803  0.00  0.00    +0.116 C 
BRANCH  13  14
ATOM     14  C   UNL     1      32.871 -23.324 -16.497  0.00  0.00    +0.001 C 
ATOM     15  C   UNL     1      33.544 -23.693 -15.332  0.00  0.00    +0.037 C 
ATOM     16  C   UNL     1      31.512 -23.013 -16.448  0.00  0.00    +0.001 C 
ATOM     17  C   UNL     1      32.858 -23.751 -14.119  0.00  0.00    +0.172 C 
ATOM     18  C   UNL     1      30.827 -23.072 -15.235  0.00  0.00    +0.040 C 
ATOM     19  C   UNL     1      31.499 -23.442 -14.070  0.00  0.00    +0.168 C 
BRANCH  17  20
ATOM     20  O   UNL     1      33.526 -24.113 -12.988  0.00  0.00    -0.468 OA
ATOM     21  C   UNL     1      34.949 -24.181 -13.070  0.00  0.00    +0.253 C 
ENDBRANCH  17  20
BRANCH  19  22
ATOM     22  O   UNL     1      30.818 -23.494 -12.892  0.00  0.00    -0.503 OA
ATOM     23  H   UNL     1      30.094 -22.918 -12.744  0.00  0.00    +0.292 HD
ENDBRANCH  19  22
ENDBRANCH  13  14
ENDBRANCH   2  13
TORSDOF 11
ENDMDL
MODEL 6
REMARK VINA RESULT:      -8.0      1.724      2.088
REMARK  Name = 2998
REMARK  11 active torsions:
REMARK  status: ('A' for Active; 'I' for Inactive)
REMARK    1  A    between atoms: N_2  and  C_13
REMARK    2  A    between atoms: C_3  and  C_5
REMARK    3  A    between atoms: C_5  and  C_6
REMARK    4  A    between atoms: C_6  and  C_7
REMARK    5  A    between atoms: C_7  and  C_8
REMARK    6  A    between atoms: C_8  and  C_9
REMARK    7  A    between atoms: C_9  and  C_10
REMARK    8  A    between atoms: C_10  and  C_11
REMARK    9  A    between atoms: C_13  and  C_14
REMARK   10  A    between atoms: C_17  and  O_20
REMARK   11  A    between atoms: C_19  and  O_22
REMARK                            x       y       z     vdW  Elec       q    Type
REMARK                         _______ _______ _______ _____ _____    ______ ____
ROOT
ATOM      1  O   UNL     1      34.981 -15.723 -20.289  0.00  0.00    -0.275 OA
ATOM      2  N   UNL     1      34.749 -17.045 -22.185  0.00  0.00    -0.300 N 
ATOM      3  C   UNL     1      34.494 -15.934 -21.395  0.00  0.00    +0.223 C 
ATOM      4  H   UNL     1      34.300 -17.111 -23.059  0.00  0.00    +0.150 HD
ENDROOT
BRANCH   3   5
ATOM      5  C   UNL     1      33.520 -14.983 -22.069  0.00  0.00    +0.085 C 
BRANCH   5   6
ATOM      6  C   UNL     1      34.175 -14.165 -23.180  0.00  0.00    +0.010 C 
BRANCH   6   7
ATOM      7  C   UNL     1      33.192 -13.158 -23.781  0.00  0.00    +0.001 C 
BRANCH   7   8
ATOM      8  C   UNL     1      33.876 -12.019 -24.542  0.00  0.00    +0.000 C 
BRANCH   8   9
ATOM      9  C   UNL     1      33.837 -10.682 -23.798  0.00  0.00    +0.000 C 
BRANCH   9  10
ATOM     10  C   UNL     1      32.397 -10.237 -23.536  0.00  0.00    +0.000 C 
BRANCH  10  11
ATOM     11  C   UNL     1      32.108 -10.144 -22.037  0.00  0.00    +0.000 C 
ATOM     12  C   UNL     1      30.992 -11.091 -21.626  0.00  0.00    +0.000 C 
ENDBRANCH  10  11
ENDBRANCH   9  10
ENDBRANCH   8   9
ENDBRANCH   7   8
ENDBRANCH   6   7
ENDBRANCH   5   6
ENDBRANCH   3   5
BRANCH   2  13
ATOM     13  C   UNL     1      35.640 -18.111 -21.790  0.00  0.00    +0.116 C 
BRANCH  13  14
ATOM     14  C   UNL     1      34.915 -19.211 -21.069  0.00  0.00    +0.001 C 
ATOM     15  C   UNL     1      35.635 -20.191 -20.386  0.00  0.00    +0.037 C 
ATOM     16  C   UNL     1      33.520 -19.254 -21.083  0.00  0.00    +0.001 C 
ATOM     17  C   UNL     1      34.962 -21.212 -19.716  0.00  0.00    +0.172 C 
ATOM     18  C   UNL     1      32.848 -20.276 -20.414  0.00  0.00    +0.040 C 
ATOM     19  C   UNL     1      33.568 -21.256 -19.731  0.00  0.00    +0.168 C 
BRANCH  17  20
ATOM     20  O   UNL     1      35.677 -22.163 -19.052  0.00  0.00    -0.468 OA
ATOM     21  C   UNL     1      36.627 -21.706 -18.091  0.00  0.00    +0.253 C 
ENDBRANCH  17  20
BRANCH  19  22
ATOM     22  O   UNL     1      32.898 -22.248 -19.080  0.00  0.00    -0.503 OA
ATOM     23  H   UNL     1      32.937 -23.127 -19.401  0.00  0.00    +0.292 HD
ENDBRANCH  19  22
ENDBRANCH  13  14
ENDBRANCH   2  13
TORSDOF 11
ENDMDL
MODEL 7
REMARK VINA RESULT:      -8.0      1.913      2.686
REMARK  Name = 2998
REMARK  11 active torsions:
REMARK  status: ('A' for Active; 'I' for Inactive)
REMARK    1  A    between atoms: N_2  and  C_13
REMARK    2  A    between atoms: C_3  and  C_5
REMARK    3  A    between atoms: C_5  and  C_6
REMARK    4  A    between atoms: C_6  and  C_7
REMARK    5  A    between atoms: C_7  and  C_8
REMARK    6  A    between atoms: C_8  and  C_9
REMARK    7  A    between atoms: C_9  and  C_10
REMARK    8  A    between atoms: C_10  and  C_11
REMARK    9  A    between atoms: C_13  and  C_14
REMARK   10  A    between atoms: C_17  and  O_20
REMARK   11  A    between atoms: C_19  and  O_22
REMARK                            x       y       z     vdW  Elec       q    Type
REMARK                         _______ _______ _______ _____ _____    ______ ____
ROOT
ATOM      1  O   UNL     1      35.687 -18.583 -23.600  0.00  0.00    -0.275 OA
ATOM      2  N   UNL     1      35.881 -18.241 -21.310  0.00  0.00    -0.300 N 
ATOM      3  C   UNL     1      35.569 -17.868 -22.609  0.00  0.00    +0.223 C 
ATOM      4  H   UNL     1      35.746 -17.583 -20.590  0.00  0.00    +0.150 HD
ENDROOT
BRANCH   3   5
ATOM      5  C   UNL     1      35.049 -16.442 -22.671  0.00  0.00    +0.085 C 
BRANCH   5   6
ATOM      6  C   UNL     1      34.557 -15.940 -21.315  0.00  0.00    +0.010 C 
BRANCH   6   7
ATOM      7  C   UNL     1      34.095 -14.483 -21.398  0.00  0.00    +0.001 C 
BRANCH   7   8
ATOM      8  C   UNL     1      32.618 -14.334 -21.772  0.00  0.00    +0.000 C 
BRANCH   8   9
ATOM      9  C   UNL     1      32.360 -13.225 -22.794  0.00  0.00    +0.000 C 
BRANCH   9  10
ATOM     10  C   UNL     1      33.635 -12.870 -23.560  0.00  0.00    +0.000 C 
BRANCH  10  11
ATOM     11  C   UNL     1      33.479 -13.140 -25.057  0.00  0.00    +0.000 C 
ATOM     12  C   UNL     1      33.109 -14.590 -25.325  0.00  0.00    +0.000 C 
ENDBRANCH  10  11
ENDBRANCH   9  10
ENDBRANCH   8   9
ENDBRANCH   7   8
ENDBRANCH   6   7
ENDBRANCH   5   6
ENDBRANCH   3   5
BRANCH   2  13
ATOM     13  C   UNL     1      36.396 -19.544 -20.961  0.00  0.00    +0.116 C 
BRANCH  13  14
ATOM     14  C   UNL     1      35.378 -20.376 -20.236  0.00  0.00    +0.001 C 
ATOM     15  C   UNL     1      35.787 -21.292 -19.267  0.00  0.00    +0.037 C 
ATOM     16  C   UNL     1      34.022 -20.233 -20.532  0.00  0.00    +0.001 C 
ATOM     17  C   UNL     1      34.841 -22.063 -18.593  0.00  0.00    +0.172 C 
ATOM     18  C   UNL     1      33.077 -21.005 -19.859  0.00  0.00    +0.040 C 
ATOM     19  C   UNL     1      33.486 -21.921 -18.889  0.00  0.00    +0.168 C 
BRANCH  17  20
ATOM     20  O   UNL     1      35.253 -22.954 -17.648  0.00  0.00    -0.468 OA
ATOM     21  C   UNL     1      36.097 -22.455 -16.611  0.00  0.00    +0.253 C 
ENDBRANCH  17  20
BRANCH  19  22
ATOM     22  O   UNL     1      32.552 -22.668 -18.237  0.00  0.00    -0.503 OA
ATOM     23  H   UNL     1      32.699 -23.582 -18.096  0.00  0.00    +0.292 HD
ENDBRANCH  19  22
ENDBRANCH  13  14
ENDBRANCH   2  13
TORSDOF 11
ENDMDL
MODEL 8
REMARK VINA RESULT:      -8.0      2.981      8.589
REMARK  Name = 2998
REMARK  11 active torsions:
REMARK  status: ('A' for Active; 'I' for Inactive)
REMARK    1  A    between atoms: N_2  and  C_13
REMARK    2  A    between atoms: C_3  and  C_5
REMARK    3  A    between atoms: C_5  and  C_6
REMARK    4  A    between atoms: C_6  and  C_7
REMARK    5  A    between atoms: C_7  and  C_8
REMARK    6  A    between atoms: C_8  and  C_9
REMARK    7  A    between atoms: C_9  and  C_10
REMARK    8  A    between atoms: C_10  and  C_11
REMARK    9  A    between atoms: C_13  and  C_14
REMARK   10  A    between atoms: C_17  and  O_20
REMARK   11  A    between atoms: C_19  and  O_22
REMARK                            x       y       z     vdW  Elec       q    Type
REMARK                         _______ _______ _______ _____ _____    ______ ____
ROOT
ATOM      1  O   UNL     1      36.305 -20.787 -19.996  0.00  0.00    -0.275 OA
ATOM      2  N   UNL     1      34.787 -19.289 -20.918  0.00  0.00    -0.300 N 
ATOM      3  C   UNL     1      35.152 -20.434 -20.226  0.00  0.00    +0.223 C 
ATOM      4  H   UNL     1      33.829 -19.105 -21.045  0.00  0.00    +0.150 HD
ENDROOT
BRANCH   3   5
ATOM      5  C   UNL     1      33.936 -21.223 -19.773  0.00  0.00    +0.085 C 
BRANCH   5   6
ATOM      6  C   UNL     1      34.300 -22.369 -18.830  0.00  0.00    +0.010 C 
BRANCH   6   7
ATOM      7  C   UNL     1      33.103 -22.782 -17.971  0.00  0.00    +0.001 C 
BRANCH   7   8
ATOM      8  C   UNL     1      33.501 -23.357 -16.609  0.00  0.00    +0.000 C 
BRANCH   8   9
ATOM      9  C   UNL     1      32.388 -23.268 -15.563  0.00  0.00    +0.000 C 
BRANCH   9  10
ATOM     10  C   UNL     1      31.033 -22.992 -16.218  0.00  0.00    +0.000 C 
BRANCH  10  11
ATOM     11  C   UNL     1      29.884 -23.203 -15.231  0.00  0.00    +0.000 C 
ATOM     12  C   UNL     1      28.656 -23.772 -15.922  0.00  0.00    +0.000 C 
ENDBRANCH  10  11
ENDBRANCH   9  10
ENDBRANCH   8   9
ENDBRANCH   7   8
ENDBRANCH   6   7
ENDBRANCH   5   6
ENDBRANCH   3   5
BRANCH   2  13
ATOM     13  C   UNL     1      35.743 -18.354 -21.463  0.00  0.00    +0.116 C 
BRANCH  13  14
ATOM     14  C   UNL     1      35.239 -17.700 -22.717  0.00  0.00    +0.001 C 
ATOM     15  C   UNL     1      34.933 -16.339 -22.721  0.00  0.00    +0.037 C 
ATOM     16  C   UNL     1      35.078 -18.454 -23.880  0.00  0.00    +0.001 C 
ATOM     17  C   UNL     1      34.465 -15.733 -23.886  0.00  0.00    +0.172 C 
ATOM     18  C   UNL     1      34.610 -17.847 -25.045  0.00  0.00    +0.040 C 
ATOM     19  C   UNL     1      34.303 -16.486 -25.048  0.00  0.00    +0.168 C 
BRANCH  17  20
ATOM     20  O   UNL     1      34.170 -14.403 -23.877  0.00  0.00    -0.468 OA
ATOM     21  C   UNL     1      33.010 -14.001 -23.150  0.00  0.00    +0.253 C 
ENDBRANCH  17  20
BRANCH  19  22
ATOM     22  O   UNL     1      33.848 -15.905 -26.194  0.00  0.00    -0.503 OA
ATOM     23  H   UNL     1      33.306 -15.143 -26.148  0.00  0.00    +0.292 HD
ENDBRANCH  19  22
ENDBRANCH  13  14
ENDBRANCH   2  13
TORSDOF 11
ENDMDL
MODEL 9
REMARK VINA RESULT:      -8.0      3.511      5.465
REMARK  Name = 2998
REMARK  11 active torsions:
REMARK  status: ('A' for Active; 'I' for Inactive)
REMARK    1  A    between atoms: N_2  and  C_13
REMARK    2  A    between atoms: C_3  and  C_5
REMARK    3  A    between atoms: C_5  and  C_6
REMARK    4  A    between atoms: C_6  and  C_7
REMARK    5  A    between atoms: C_7  and  C_8
REMARK    6  A    between atoms: C_8  and  C_9
REMARK    7  A    between atoms: C_9  and  C_10
REMARK    8  A    between atoms: C_10  and  C_11
REMARK    9  A    between atoms: C_13  and  C_14
REMARK   10  A    between atoms: C_17  and  O_20
REMARK   11  A    between atoms: C_19  and  O_22
REMARK                            x       y       z     vdW  Elec       q    Type
REMARK                         _______ _______ _______ _____ _____    ______ ____
ROOT
ATOM      1  O   UNL     1      33.901 -11.653 -25.909  0.00  0.00    -0.275 OA
ATOM      2  N   UNL     1      33.670 -12.706 -23.850  0.00  0.00    -0.300 N 
ATOM      3  C   UNL     1      33.823 -11.609 -24.684  0.00  0.00    +0.223 C 
ATOM      4  H   UNL     1      33.618 -12.552 -22.879  0.00  0.00    +0.150 HD
ENDROOT
BRANCH   3   5
ATOM      5  C   UNL     1      33.883 -10.312 -23.895  0.00  0.00    +0.085 C 
BRANCH   5   6
ATOM      6  C   UNL     1      35.025  -9.404 -24.349  0.00  0.00    +0.010 C 
BRANCH   6   7
ATOM      7  C   UNL     1      34.647  -7.927 -24.211  0.00  0.00    +0.001 C 
BRANCH   7   8
ATOM      8  C   UNL     1      34.144  -7.557 -22.813  0.00  0.00    +0.000 C 
BRANCH   8   9
ATOM      9  C   UNL     1      32.799  -6.827 -22.825  0.00  0.00    +0.000 C 
BRANCH   9  10
ATOM     10  C   UNL     1      31.882  -7.338 -21.713  0.00  0.00    +0.000 C 
BRANCH  10  11
ATOM     11  C   UNL     1      32.688  -7.842 -20.514  0.00  0.00    +0.000 C 
ATOM     12  C   UNL     1      32.137  -9.157 -19.987  0.00  0.00    +0.000 C 
ENDBRANCH  10  11
ENDBRANCH   9  10
ENDBRANCH   8   9
ENDBRANCH   7   8
ENDBRANCH   6   7
ENDBRANCH   5   6
ENDBRANCH   3   5
BRANCH   2  13
ATOM     13  C   UNL     1      33.583 -14.064 -24.334  0.00  0.00    +0.116 C 
BRANCH  13  14
ATOM     14  C   UNL     1      34.108 -15.053 -23.334  0.00  0.00    +0.001 C 
ATOM     15  C   UNL     1      34.594 -16.289 -23.763  0.00  0.00    +0.037 C 
ATOM     16  C   UNL     1      34.111 -14.736 -21.975  0.00  0.00    +0.001 C 
ATOM     17  C   UNL     1      35.082 -17.206 -22.833  0.00  0.00    +0.172 C 
ATOM     18  C   UNL     1      34.598 -15.655 -21.046  0.00  0.00    +0.040 C 
ATOM     19  C   UNL     1      35.084 -16.890 -21.475  0.00  0.00    +0.168 C 
BRANCH  17  20
ATOM     20  O   UNL     1      35.554 -18.410 -23.264  0.00  0.00    -0.468 OA
ATOM     21  C   UNL     1      34.780 -19.096 -24.246  0.00  0.00    +0.253 C 
ENDBRANCH  17  20
BRANCH  19  22
ATOM     22  O   UNL     1      35.559 -17.778 -20.557  0.00  0.00    -0.503 OA
ATOM     23  H   UNL     1      34.962 -18.296 -20.055  0.00  0.00    +0.292 HD
ENDBRANCH  19  22
ENDBRANCH  13  14
ENDBRANCH   2  13
TORSDOF 11
ENDMDL
