MODEL 1
REMARK VINA RESULT:      -9.7      0.000      0.000
REMARK  Name = 71671
REMARK  4 active torsions:
REMARK  status: ('A' for Active; 'I' for Inactive)
REMARK    1  A    between atoms: N_1  and  N_4
REMARK    2  A    between atoms: N_1  and  C_13
REMARK    3  A    between atoms: C_5  and  C_7
REMARK    4  A    between atoms: C_13  and  C_15
REMARK                            x       y       z     vdW  Elec       q    Type
REMARK                         _______ _______ _______ _____ _____    ______ ____
ROOT
ATOM      1  N   UNL     1      35.718 -17.958 -20.891  0.00  0.00    -0.227 NA
ATOM      2  H   UNL     1      35.380 -18.019 -19.930  0.00  0.00    +0.145 HD
ENDROOT
BRANCH   1   4
ATOM      3  O   UNL     1      34.931 -15.604 -19.667  0.00  0.00    -0.269 OA
ATOM      4  N   UNL     1      35.035 -16.949 -21.555  0.00  0.00    -0.246 N 
ATOM      5  C   UNL     1      34.670 -15.788 -20.870  0.00  0.00    +0.259 C 
ATOM      6  H   UNL     1      34.808 -17.053 -22.507  0.00  0.00    +0.169 HD
BRANCH   5   7
ATOM      7  C   UNL     1      33.940 -14.782 -21.626  0.00  0.00    +0.055 C 
ATOM      8  C   UNL     1      34.344 -14.453 -22.920  0.00  0.00    +0.005 C 
ATOM      9  C   UNL     1      32.836 -14.147 -21.058  0.00  0.00    +0.005 C 
ATOM     10  C   UNL     1      33.644 -13.488 -23.645  0.00  0.00    +0.000 C 
ATOM     11  C   UNL     1      32.136 -13.182 -21.782  0.00  0.00    +0.000 C 
ATOM     12  C   UNL     1      32.541 -12.853 -23.077  0.00  0.00    +0.000 C 
ENDBRANCH   5   7
ENDBRANCH   1   4
BRANCH   1  13
ATOM     13  C   UNL     1      35.498 -19.235 -21.558  0.00  0.00    +0.094 C 
ATOM     14  C   UNL     1      34.649 -19.024 -22.814  0.00  0.00    +0.024 C 
BRANCH  13  15
ATOM     15  C   UNL     1      34.871 -20.249 -20.621  0.00  0.00    -0.007 C 
ATOM     16  C   UNL     1      35.685 -21.152 -19.964  0.00  0.00    -0.003 C 
ATOM     17  C   UNL     1      33.499 -20.246 -20.448  0.00  0.00    -0.003 C 
ATOM     18  C   UNL     1      35.108 -22.085 -19.102  0.00  0.00    -0.000 C 
ATOM     19  C   UNL     1      32.921 -21.179 -19.586  0.00  0.00    -0.000 C 
ATOM     20  C   UNL     1      33.727 -22.099 -18.914  0.00  0.00    -0.000 C 
ENDBRANCH  13  15
ENDBRANCH   1  13
TORSDOF 4
ENDMDL
MODEL 2
REMARK VINA RESULT:      -9.6      0.135      1.616
REMARK  Name = 71671
REMARK  4 active torsions:
REMARK  status: ('A' for Active; 'I' for Inactive)
REMARK    1  A    between atoms: N_1  and  N_4
REMARK    2  A    between atoms: N_1  and  C_13
REMARK    3  A    between atoms: C_5  and  C_7
REMARK    4  A    between atoms: C_13  and  C_15
REMARK                            x       y       z     vdW  Elec       q    Type
REMARK                         _______ _______ _______ _____ _____    ______ ____
ROOT
ATOM      1  N   UNL     1      35.693 -17.918 -20.967  0.00  0.00    -0.227 NA
ATOM      2  H   UNL     1      35.345 -17.967 -20.009  0.00  0.00    +0.145 HD
ENDROOT
BRANCH   1   4
ATOM      3  O   UNL     1      34.923 -15.526 -19.808  0.00  0.00    -0.269 OA
ATOM      4  N   UNL     1      35.008 -16.928 -21.655  0.00  0.00    -0.246 N 
ATOM      5  C   UNL     1      34.651 -15.745 -21.003  0.00  0.00    +0.259 C 
ATOM      6  H   UNL     1      34.773 -17.061 -22.602  0.00  0.00    +0.169 HD
BRANCH   5   7
ATOM      7  C   UNL     1      33.918 -14.762 -21.784  0.00  0.00    +0.055 C 
ATOM      8  C   UNL     1      32.844 -14.078 -21.213  0.00  0.00    +0.005 C 
ATOM      9  C   UNL     1      34.288 -14.501 -23.104  0.00  0.00    +0.005 C 
ATOM     10  C   UNL     1      32.141 -13.135 -21.962  0.00  0.00    +0.000 C 
ATOM     11  C   UNL     1      33.585 -13.558 -23.853  0.00  0.00    +0.000 C 
ATOM     12  C   UNL     1      32.511 -12.875 -23.281  0.00  0.00    +0.000 C 
ENDBRANCH   5   7
ENDBRANCH   1   4
BRANCH   1  13
ATOM     13  C   UNL     1      35.496 -19.209 -21.615  0.00  0.00    +0.094 C 
ATOM     14  C   UNL     1      34.633 -19.032 -22.867  0.00  0.00    +0.024 C 
BRANCH  13  15
ATOM     15  C   UNL     1      34.898 -20.223 -20.660  0.00  0.00    -0.007 C 
ATOM     16  C   UNL     1      33.527 -20.255 -20.483  0.00  0.00    -0.003 C 
ATOM     17  C   UNL     1      35.739 -21.091 -19.988  0.00  0.00    -0.003 C 
ATOM     18  C   UNL     1      32.977 -21.189 -19.605  0.00  0.00    -0.000 C 
ATOM     19  C   UNL     1      35.189 -22.025 -19.109  0.00  0.00    -0.000 C 
ATOM     20  C   UNL     1      33.808 -22.073 -18.917  0.00  0.00    -0.000 C 
ENDBRANCH  13  15
ENDBRANCH   1  13
TORSDOF 4
ENDMDL
MODEL 3
REMARK VINA RESULT:      -9.4      1.708      2.703
REMARK  Name = 71671
REMARK  4 active torsions:
REMARK  status: ('A' for Active; 'I' for Inactive)
REMARK    1  A    between atoms: N_1  and  N_4
REMARK    2  A    between atoms: N_1  and  C_13
REMARK    3  A    between atoms: C_5  and  C_7
REMARK    4  A    between atoms: C_13  and  C_15
REMARK                            x       y       z     vdW  Elec       q    Type
REMARK                         _______ _______ _______ _____ _____    ______ ____
ROOT
ATOM      1  N   UNL     1      34.540 -16.761 -21.695  0.00  0.00    -0.227 NA
ATOM      2  H   UNL     1      33.587 -17.015 -21.432  0.00  0.00    +0.145 HD
ENDROOT
BRANCH   1   4
ATOM      3  O   UNL     1      32.472 -14.984 -22.166  0.00  0.00    -0.269 OA
ATOM      4  N   UNL     1      34.502 -15.915 -22.794  0.00  0.00    -0.246 N 
ATOM      5  C   UNL     1      33.424 -15.044 -22.966  0.00  0.00    +0.259 C 
ATOM      6  H   UNL     1      35.235 -15.930 -23.451  0.00  0.00    +0.169 HD
BRANCH   5   7
ATOM      7  C   UNL     1      33.444 -14.201 -24.151  0.00  0.00    +0.055 C 
ATOM      8  C   UNL     1      33.768 -12.849 -24.040  0.00  0.00    +0.005 C 
ATOM      9  C   UNL     1      33.140 -14.745 -25.400  0.00  0.00    +0.005 C 
ATOM     10  C   UNL     1      33.787 -12.040 -25.176  0.00  0.00    +0.000 C 
ATOM     11  C   UNL     1      33.159 -13.937 -26.536  0.00  0.00    +0.000 C 
ATOM     12  C   UNL     1      33.483 -12.584 -26.424  0.00  0.00    +0.000 C 
ENDBRANCH   5   7
ENDBRANCH   1   4
BRANCH   1  13
ATOM     13  C   UNL     1      35.287 -17.970 -22.018  0.00  0.00    +0.094 C 
ATOM     14  C   UNL     1      35.184 -18.256 -23.518  0.00  0.00    +0.024 C 
BRANCH  13  15
ATOM     15  C   UNL     1      34.818 -19.149 -21.189  0.00  0.00    -0.007 C 
ATOM     16  C   UNL     1      33.462 -19.338 -20.992  0.00  0.00    -0.003 C 
ATOM     17  C   UNL     1      35.757 -20.007 -20.648  0.00  0.00    -0.003 C 
ATOM     18  C   UNL     1      33.031 -20.423 -20.230  0.00  0.00    -0.000 C 
ATOM     19  C   UNL     1      35.327 -21.093 -19.885  0.00  0.00    -0.000 C 
ATOM     20  C   UNL     1      33.962 -21.300 -19.675  0.00  0.00    -0.000 C 
ENDBRANCH  13  15
ENDBRANCH   1  13
TORSDOF 4
ENDMDL
MODEL 4
REMARK VINA RESULT:      -9.3      4.569      7.314
REMARK  Name = 71671
REMARK  4 active torsions:
REMARK  status: ('A' for Active; 'I' for Inactive)
REMARK    1  A    between atoms: N_1  and  N_4
REMARK    2  A    between atoms: N_1  and  C_13
REMARK    3  A    between atoms: C_5  and  C_7
REMARK    4  A    between atoms: C_13  and  C_15
REMARK                            x       y       z     vdW  Elec       q    Type
REMARK                         _______ _______ _______ _____ _____    ______ ____
ROOT
ATOM      1  N   UNL     1      34.575 -23.651 -16.549  0.00  0.00    -0.227 NA
ATOM      2  H   UNL     1      35.516 -24.033 -16.443  0.00  0.00    +0.145 HD
ENDROOT
BRANCH   1   4
ATOM      3  O   UNL     1      33.779 -23.765 -19.197  0.00  0.00    -0.269 OA
ATOM      4  N   UNL     1      34.618 -22.558 -17.402  0.00  0.00    -0.246 N 
ATOM      5  C   UNL     1      34.199 -22.691 -18.728  0.00  0.00    +0.259 C 
ATOM      6  H   UNL     1      34.944 -21.689 -17.072  0.00  0.00    +0.169 HD
BRANCH   5   7
ATOM      7  C   UNL     1      34.291 -21.507 -19.567  0.00  0.00    +0.055 C 
ATOM      8  C   UNL     1      33.132 -20.827 -19.942  0.00  0.00    +0.005 C 
ATOM      9  C   UNL     1      35.537 -21.051 -19.998  0.00  0.00    +0.005 C 
ATOM     10  C   UNL     1      33.220 -19.691 -20.747  0.00  0.00    +0.000 C 
ATOM     11  C   UNL     1      35.625 -19.916 -20.803  0.00  0.00    +0.000 C 
ATOM     12  C   UNL     1      34.466 -19.235 -21.178  0.00  0.00    +0.000 C 
ENDBRANCH   5   7
ENDBRANCH   1   4
BRANCH   1  13
ATOM     13  C   UNL     1      34.070 -23.249 -15.243  0.00  0.00    +0.094 C 
ATOM     14  C   UNL     1      35.010 -23.755 -14.146  0.00  0.00    +0.024 C 
BRANCH  13  15
ATOM     15  C   UNL     1      32.648 -23.728 -15.028  0.00  0.00    -0.007 C 
ATOM     16  C   UNL     1      31.647 -23.262 -15.860  0.00  0.00    -0.003 C 
ATOM     17  C   UNL     1      32.386 -24.619 -14.003  0.00  0.00    -0.003 C 
ATOM     18  C   UNL     1      30.339 -23.703 -15.662  0.00  0.00    -0.000 C 
ATOM     19  C   UNL     1      31.078 -25.060 -13.804  0.00  0.00    -0.000 C 
ATOM     20  C   UNL     1      30.054 -24.601 -14.634  0.00  0.00    -0.000 C 
ENDBRANCH  13  15
ENDBRANCH   1  13
TORSDOF 4
ENDMDL
MODEL 5
REMARK VINA RESULT:      -9.3      4.580      7.217
REMARK  Name = 71671
REMARK  4 active torsions:
REMARK  status: ('A' for Active; 'I' for Inactive)
REMARK    1  A    between atoms: N_1  and  N_4
REMARK    2  A    between atoms: N_1  and  C_13
REMARK    3  A    between atoms: C_5  and  C_7
REMARK    4  A    between atoms: C_13  and  C_15
REMARK                            x       y       z     vdW  Elec       q    Type
REMARK                         _______ _______ _______ _____ _____    ______ ____
ROOT
ATOM      1  N   UNL     1      34.562 -23.658 -16.531  0.00  0.00    -0.227 NA
ATOM      2  H   UNL     1      35.503 -24.038 -16.428  0.00  0.00    +0.145 HD
ENDROOT
BRANCH   1   4
ATOM      3  O   UNL     1      33.780 -23.785 -19.182  0.00  0.00    -0.269 OA
ATOM      4  N   UNL     1      34.599 -22.567 -17.386  0.00  0.00    -0.246 N 
ATOM      5  C   UNL     1      34.188 -22.706 -18.714  0.00  0.00    +0.259 C 
ATOM      6  H   UNL     1      34.916 -21.694 -17.056  0.00  0.00    +0.169 HD
BRANCH   5   7
ATOM      7  C   UNL     1      34.273 -21.524 -19.555  0.00  0.00    +0.055 C 
ATOM      8  C   UNL     1      35.517 -21.056 -19.978  0.00  0.00    +0.005 C 
ATOM      9  C   UNL     1      33.110 -20.855 -19.939  0.00  0.00    +0.005 C 
ATOM     10  C   UNL     1      35.598 -19.921 -20.785  0.00  0.00    +0.000 C 
ATOM     11  C   UNL     1      33.191 -19.720 -20.746  0.00  0.00    +0.000 C 
ATOM     12  C   UNL     1      34.436 -19.253 -21.169  0.00  0.00    +0.000 C 
ENDBRANCH   5   7
ENDBRANCH   1   4
BRANCH   1  13
ATOM     13  C   UNL     1      34.061 -23.255 -15.224  0.00  0.00    +0.094 C 
ATOM     14  C   UNL     1      35.002 -23.765 -14.129  0.00  0.00    +0.024 C 
BRANCH  13  15
ATOM     15  C   UNL     1      32.638 -23.729 -15.005  0.00  0.00    -0.007 C 
ATOM     16  C   UNL     1      32.376 -24.627 -13.987  0.00  0.00    -0.003 C 
ATOM     17  C   UNL     1      31.636 -23.252 -15.830  0.00  0.00    -0.003 C 
ATOM     18  C   UNL     1      31.066 -25.063 -13.786  0.00  0.00    -0.000 C 
ATOM     19  C   UNL     1      30.326 -23.688 -15.630  0.00  0.00    -0.000 C 
ATOM     20  C   UNL     1      30.042 -24.594 -14.607  0.00  0.00    -0.000 C 
ENDBRANCH  13  15
ENDBRANCH   1  13
TORSDOF 4
ENDMDL
MODEL 6
REMARK VINA RESULT:      -9.3      1.654      7.057
REMARK  Name = 71671
REMARK  4 active torsions:
REMARK  status: ('A' for Active; 'I' for Inactive)
REMARK    1  A    between atoms: N_1  and  N_4
REMARK    2  A    between atoms: N_1  and  C_13
REMARK    3  A    between atoms: C_5  and  C_7
REMARK    4  A    between atoms: C_13  and  C_15
REMARK                            x       y       z     vdW  Elec       q    Type
REMARK                         _______ _______ _______ _____ _____    ______ ____
ROOT
ATOM      1  N   UNL     1      35.598 -17.068 -22.781  0.00  0.00    -0.227 NA
ATOM      2  H   UNL     1      35.471 -17.268 -23.773  0.00  0.00    +0.145 HD
ENDROOT
BRANCH   1   4
ATOM      3  O   UNL     1      37.098 -18.896 -21.344  0.00  0.00    -0.269 OA
ATOM      4  N   UNL     1      35.034 -18.089 -22.031  0.00  0.00    -0.246 N 
ATOM      5  C   UNL     1      35.855 -18.975 -21.331  0.00  0.00    +0.259 C 
ATOM      6  H   UNL     1      34.055 -18.188 -21.993  0.00  0.00    +0.169 HD
BRANCH   5   7
ATOM      7  C   UNL     1      35.193 -20.031 -20.582  0.00  0.00    +0.055 C 
ATOM      8  C   UNL     1      33.801 -20.102 -20.557  0.00  0.00    +0.005 C 
ATOM      9  C   UNL     1      35.952 -20.975 -19.887  0.00  0.00    +0.005 C 
ATOM     10  C   UNL     1      33.166 -21.115 -19.839  0.00  0.00    +0.000 C 
ATOM     11  C   UNL     1      35.317 -21.988 -19.168  0.00  0.00    +0.000 C 
ATOM     12  C   UNL     1      33.924 -22.058 -19.145  0.00  0.00    +0.000 C 
ENDBRANCH   5   7
ENDBRANCH   1   4
BRANCH   1  13
ATOM     13  C   UNL     1      34.958 -15.798 -22.462  0.00  0.00    +0.094 C 
ATOM     14  C   UNL     1      33.979 -15.989 -21.301  0.00  0.00    +0.024 C 
BRANCH  13  15
ATOM     15  C   UNL     1      34.276 -15.200 -23.677  0.00  0.00    -0.007 C 
ATOM     16  C   UNL     1      33.917 -13.865 -23.659  0.00  0.00    -0.003 C 
ATOM     17  C   UNL     1      34.029 -16.005 -24.774  0.00  0.00    -0.003 C 
ATOM     18  C   UNL     1      33.290 -13.315 -24.777  0.00  0.00    -0.000 C 
ATOM     19  C   UNL     1      33.402 -15.455 -25.892  0.00  0.00    -0.000 C 
ATOM     20  C   UNL     1      33.032 -14.110 -25.893  0.00  0.00    -0.000 C 
ENDBRANCH  13  15
ENDBRANCH   1  13
TORSDOF 4
ENDMDL
MODEL 7
REMARK VINA RESULT:      -9.2      1.808      6.966
REMARK  Name = 71671
REMARK  4 active torsions:
REMARK  status: ('A' for Active; 'I' for Inactive)
REMARK    1  A    between atoms: N_1  and  N_4
REMARK    2  A    between atoms: N_1  and  C_13
REMARK    3  A    between atoms: C_5  and  C_7
REMARK    4  A    between atoms: C_13  and  C_15
REMARK                            x       y       z     vdW  Elec       q    Type
REMARK                         _______ _______ _______ _____ _____    ______ ____
ROOT
ATOM      1  N   UNL     1      35.738 -16.994 -22.629  0.00  0.00    -0.227 NA
ATOM      2  H   UNL     1      35.462 -17.365 -23.539  0.00  0.00    +0.145 HD
ENDROOT
BRANCH   1   4
ATOM      3  O   UNL     1      34.670 -19.487 -23.178  0.00  0.00    -0.269 OA
ATOM      4  N   UNL     1      35.528 -17.960 -21.656  0.00  0.00    -0.246 N 
ATOM      5  C   UNL     1      34.983 -19.197 -22.009  0.00  0.00    +0.259 C 
ATOM      6  H   UNL     1      35.761 -17.772 -20.718  0.00  0.00    +0.169 HD
BRANCH   5   7
ATOM      7  C   UNL     1      34.774 -20.152 -20.933  0.00  0.00    +0.055 C 
ATOM      8  C   UNL     1      35.866 -20.785 -20.339  0.00  0.00    +0.005 C 
ATOM      9  C   UNL     1      33.480 -20.437 -20.494  0.00  0.00    +0.005 C 
ATOM     10  C   UNL     1      35.664 -21.701 -19.307  0.00  0.00    +0.000 C 
ATOM     11  C   UNL     1      33.278 -21.353 -19.462  0.00  0.00    +0.000 C 
ATOM     12  C   UNL     1      34.371 -21.985 -18.868  0.00  0.00    +0.000 C 
ENDBRANCH   5   7
ENDBRANCH   1   4
BRANCH   1  13
ATOM     13  C   UNL     1      34.947 -15.806 -22.336  0.00  0.00    +0.094 C 
ATOM     14  C   UNL     1      33.957 -16.109 -21.209  0.00  0.00    +0.024 C 
BRANCH  13  15
ATOM     15  C   UNL     1      34.245 -15.287 -23.576  0.00  0.00    -0.007 C 
ATOM     16  C   UNL     1      34.090 -16.127 -24.663  0.00  0.00    -0.003 C 
ATOM     17  C   UNL     1      33.778 -13.986 -23.589  0.00  0.00    -0.003 C 
ATOM     18  C   UNL     1      33.444 -15.650 -25.803  0.00  0.00    -0.000 C 
ATOM     19  C   UNL     1      33.132 -13.508 -24.730  0.00  0.00    -0.000 C 
ATOM     20  C   UNL     1      32.966 -14.341 -25.837  0.00  0.00    -0.000 C 
ENDBRANCH  13  15
ENDBRANCH   1  13
TORSDOF 4
ENDMDL
MODEL 8
REMARK VINA RESULT:      -9.1      1.560      6.944
REMARK  Name = 71671
REMARK  4 active torsions:
REMARK  status: ('A' for Active; 'I' for Inactive)
REMARK    1  A    between atoms: N_1  and  N_4
REMARK    2  A    between atoms: N_1  and  C_13
REMARK    3  A    between atoms: C_5  and  C_7
REMARK    4  A    between atoms: C_13  and  C_15
REMARK                            x       y       z     vdW  Elec       q    Type
REMARK                         _______ _______ _______ _____ _____    ______ ____
ROOT
ATOM      1  N   UNL     1      35.671 -17.374 -23.191  0.00  0.00    -0.227 NA
ATOM      2  H   UNL     1      36.477 -17.435 -23.813  0.00  0.00    +0.145 HD
ENDROOT
BRANCH   1   4
ATOM      3  O   UNL     1      33.873 -17.694 -21.112  0.00  0.00    -0.269 OA
ATOM      4  N   UNL     1      35.594 -18.529 -22.426  0.00  0.00    -0.246 N 
ATOM      5  C   UNL     1      34.660 -18.618 -21.391  0.00  0.00    +0.259 C 
ATOM      6  H   UNL     1      36.197 -19.284 -22.612  0.00  0.00    +0.169 HD
BRANCH   5   7
ATOM      7  C   UNL     1      34.649 -19.851 -20.620  0.00  0.00    +0.055 C 
ATOM      8  C   UNL     1      33.437 -20.421 -20.231  0.00  0.00    +0.005 C 
ATOM      9  C   UNL     1      35.853 -20.465 -20.270  0.00  0.00    +0.005 C 
ATOM     10  C   UNL     1      33.428 -21.603 -19.492  0.00  0.00    +0.000 C 
ATOM     11  C   UNL     1      35.843 -21.648 -19.531  0.00  0.00    +0.000 C 
ATOM     12  C   UNL     1      34.630 -22.217 -19.142  0.00  0.00    +0.000 C 
ENDBRANCH   5   7
ENDBRANCH   1   4
BRANCH   1  13
ATOM     13  C   UNL     1      34.461 -17.217 -23.986  0.00  0.00    +0.094 C 
ATOM     14  C   UNL     1      34.635 -17.916 -25.337  0.00  0.00    +0.024 C 
BRANCH  13  15
ATOM     15  C   UNL     1      34.094 -15.756 -24.154  0.00  0.00    -0.007 C 
ATOM     16  C   UNL     1      34.369 -14.870 -23.129  0.00  0.00    -0.003 C 
ATOM     17  C   UNL     1      33.491 -15.344 -25.329  0.00  0.00    -0.003 C 
ATOM     18  C   UNL     1      34.032 -13.526 -23.283  0.00  0.00    -0.000 C 
ATOM     19  C   UNL     1      33.153 -13.999 -25.484  0.00  0.00    -0.000 C 
ATOM     20  C   UNL     1      33.423 -13.090 -24.459  0.00  0.00    -0.000 C 
ENDBRANCH  13  15
ENDBRANCH   1  13
TORSDOF 4
ENDMDL
MODEL 9
REMARK VINA RESULT:      -9.0      2.153      2.575
REMARK  Name = 71671
REMARK  4 active torsions:
REMARK  status: ('A' for Active; 'I' for Inactive)
REMARK    1  A    between atoms: N_1  and  N_4
REMARK    2  A    between atoms: N_1  and  C_13
REMARK    3  A    between atoms: C_5  and  C_7
REMARK    4  A    between atoms: C_13  and  C_15
REMARK                            x       y       z     vdW  Elec       q    Type
REMARK                         _______ _______ _______ _____ _____    ______ ____
ROOT
ATOM      1  N   UNL     1      35.313 -18.794 -22.830  0.00  0.00    -0.227 NA
ATOM      2  H   UNL     1      36.092 -19.028 -23.447  0.00  0.00    +0.145 HD
ENDROOT
BRANCH   1   4
ATOM      3  O   UNL     1      34.558 -17.994 -25.369  0.00  0.00    -0.269 OA
ATOM      4  N   UNL     1      34.867 -17.513 -23.120  0.00  0.00    -0.246 N 
ATOM      5  C   UNL     1      34.503 -17.181 -24.427  0.00  0.00    +0.259 C 
ATOM      6  H   UNL     1      34.808 -16.839 -22.405  0.00  0.00    +0.169 HD
BRANCH   5   7
ATOM      7  C   UNL     1      34.062 -15.815 -24.659  0.00  0.00    +0.055 C 
ATOM      8  C   UNL     1      33.461 -15.472 -25.870  0.00  0.00    +0.005 C 
ATOM      9  C   UNL     1      34.241 -14.847 -23.670  0.00  0.00    +0.005 C 
ATOM     10  C   UNL     1      33.039 -14.161 -26.092  0.00  0.00    +0.000 C 
ATOM     11  C   UNL     1      33.819 -13.536 -23.892  0.00  0.00    +0.000 C 
ATOM     12  C   UNL     1      33.218 -13.193 -25.104  0.00  0.00    +0.000 C 
ENDBRANCH   5   7
ENDBRANCH   1   4
BRANCH   1  13
ATOM     13  C   UNL     1      35.760 -18.868 -21.445  0.00  0.00    +0.094 C 
ATOM     14  C   UNL     1      37.272 -19.101 -21.400  0.00  0.00    +0.024 C 
BRANCH  13  15
ATOM     15  C   UNL     1      35.005 -19.933 -20.675  0.00  0.00    -0.007 C 
ATOM     16  C   UNL     1      35.716 -20.916 -20.012  0.00  0.00    -0.003 C 
ATOM     17  C   UNL     1      33.623 -19.896 -20.654  0.00  0.00    -0.003 C 
ATOM     18  C   UNL     1      35.022 -21.897 -19.304  0.00  0.00    -0.000 C 
ATOM     19  C   UNL     1      32.927 -20.877 -19.946  0.00  0.00    -0.000 C 
ATOM     20  C   UNL     1      33.628 -21.878 -19.271  0.00  0.00    -0.000 C 
ENDBRANCH  13  15
ENDBRANCH   1  13
TORSDOF 4
ENDMDL
