MODEL 1
REMARK VINA RESULT:      -7.4      0.000      0.000
REMARK  Name = 9299
REMARK  5 active torsions:
REMARK  status: ('A' for Active; 'I' for Inactive)
REMARK    1  A    between atoms: P_2  and  O_3
REMARK    2  A    between atoms: P_2  and  N_5
REMARK    3  A    between atoms: P_2  and  O_10
REMARK    4  A    between atoms: N_5  and  C_7
REMARK    5  A    between atoms: O_10  and  C_13
REMARK                            x       y       z     vdW  Elec       q    Type
REMARK                         _______ _______ _______ _____ _____    ______ ____
ROOT
ATOM      1  S   UNL     1      32.901 -14.561 -25.780  0.00  0.00    +0.022 S 
ATOM      2  P   UNL     1      33.578 -14.333 -23.955  0.00  0.00    +0.296 P 
ENDROOT
BRANCH   2   3
ATOM      3  O   UNL     1      34.234 -12.854 -23.714  0.00  0.00    -0.295 OA
ATOM      4  C   UNL     1      33.860 -11.760 -24.535  0.00  0.00    +0.184 C 
ENDBRANCH   2   3
BRANCH   2   5
ATOM      5  N   UNL     1      32.529 -14.561 -22.680  0.00  0.00    -0.230 NA
ATOM      6  H   UNL     1      32.567 -15.554 -22.444  0.00  0.00    +0.133 HD
BRANCH   5   7
ATOM      7  C   UNL     1      32.717 -13.829 -21.436  0.00  0.00    +0.062 C 
ATOM      8  C   UNL     1      32.454 -14.740 -20.240  0.00  0.00    +0.018 C 
ATOM      9  C   UNL     1      31.790 -12.618 -21.416  0.00  0.00    +0.018 C 
ENDBRANCH   5   7
ENDBRANCH   2   5
BRANCH   2  10
ATOM     10  O   UNL     1      34.898 -15.231 -23.641  0.00  0.00    -0.432 OA
BRANCH  10  13
ATOM     11 CL   UNL     1      34.616 -17.639 -25.421  0.00  0.00    -0.079 Cl
ATOM     12 CL   UNL     1      35.076 -20.369 -20.801  0.00  0.00    -0.082 Cl
ATOM     13  C   UNL     1      34.937 -16.441 -22.999  0.00  0.00    +0.156 C 
ATOM     14  C   UNL     1      34.818 -17.633 -23.708  0.00  0.00    +0.093 C 
ATOM     15  C   UNL     1      35.098 -16.454 -21.618  0.00  0.00    +0.039 C 
ATOM     16  C   UNL     1      34.861 -18.850 -23.026  0.00  0.00    +0.026 C 
ATOM     17  C   UNL     1      35.141 -17.670 -20.936  0.00  0.00    +0.015 C 
ATOM     18  C   UNL     1      35.022 -18.869 -21.642  0.00  0.00    +0.059 C 
ENDBRANCH  10  13
ENDBRANCH   2  10
TORSDOF 5
ENDMDL
MODEL 2
REMARK VINA RESULT:      -7.4      1.923      2.669
REMARK  Name = 9299
REMARK  5 active torsions:
REMARK  status: ('A' for Active; 'I' for Inactive)
REMARK    1  A    between atoms: P_2  and  O_3
REMARK    2  A    between atoms: P_2  and  N_5
REMARK    3  A    between atoms: P_2  and  O_10
REMARK    4  A    between atoms: N_5  and  C_7
REMARK    5  A    between atoms: O_10  and  C_13
REMARK                            x       y       z     vdW  Elec       q    Type
REMARK                         _______ _______ _______ _____ _____    ______ ____
ROOT
ATOM      1  S   UNL     1      32.458 -14.115 -21.975  0.00  0.00    +0.022 S 
ATOM      2  P   UNL     1      33.518 -13.868 -23.605  0.00  0.00    +0.296 P 
ENDROOT
BRANCH   2   3
ATOM      3  O   UNL     1      32.619 -14.020 -24.963  0.00  0.00    -0.295 OA
ATOM      4  C   UNL     1      33.165 -14.629 -26.121  0.00  0.00    +0.184 C 
ENDBRANCH   2   3
BRANCH   2   5
ATOM      5  N   UNL     1      34.369 -12.448 -23.797  0.00  0.00    -0.230 NA
ATOM      6  H   UNL     1      35.259 -12.696 -24.230  0.00  0.00    +0.133 HD
BRANCH   5   7
ATOM      7  C   UNL     1      33.810 -11.359 -24.585  0.00  0.00    +0.062 C 
ATOM      8  C   UNL     1      34.888 -10.735 -25.466  0.00  0.00    +0.018 C 
ATOM      9  C   UNL     1      33.196 -10.321 -23.652  0.00  0.00    +0.018 C 
ENDBRANCH   5   7
ENDBRANCH   2   5
BRANCH   2  10
ATOM     10  O   UNL     1      34.567 -15.082 -23.880  0.00  0.00    -0.432 OA
BRANCH  10  13
ATOM     11 CL   UNL     1      34.573 -17.653 -25.440  0.00  0.00    -0.079 Cl
ATOM     12 CL   UNL     1      35.246 -19.901 -20.592  0.00  0.00    -0.082 Cl
ATOM     13  C   UNL     1      34.725 -16.219 -23.133  0.00  0.00    +0.156 C 
ATOM     14  C   UNL     1      34.745 -17.474 -23.733  0.00  0.00    +0.093 C 
ATOM     15  C   UNL     1      34.864 -16.093 -21.755  0.00  0.00    +0.039 C 
ATOM     16  C   UNL     1      34.907 -18.615 -22.946  0.00  0.00    +0.026 C 
ATOM     17  C   UNL     1      35.026 -17.233 -20.967  0.00  0.00    +0.015 C 
ATOM     18  C   UNL     1      35.046 -18.495 -21.564  0.00  0.00    +0.059 C 
ENDBRANCH  10  13
ENDBRANCH   2  10
TORSDOF 5
ENDMDL
MODEL 3
REMARK VINA RESULT:      -7.1      2.317      3.321
REMARK  Name = 9299
REMARK  5 active torsions:
REMARK  status: ('A' for Active; 'I' for Inactive)
REMARK    1  A    between atoms: P_2  and  O_3
REMARK    2  A    between atoms: P_2  and  N_5
REMARK    3  A    between atoms: P_2  and  O_10
REMARK    4  A    between atoms: N_5  and  C_7
REMARK    5  A    between atoms: O_10  and  C_13
REMARK                            x       y       z     vdW  Elec       q    Type
REMARK                         _______ _______ _______ _____ _____    ______ ____
ROOT
ATOM      1  S   UNL     1      32.189 -13.139 -22.356  0.00  0.00    +0.022 S 
ATOM      2  P   UNL     1      33.448 -13.415 -23.832  0.00  0.00    +0.296 P 
ENDROOT
BRANCH   2   3
ATOM      3  O   UNL     1      32.857 -14.423 -24.977  0.00  0.00    -0.295 OA
ATOM      4  C   UNL     1      32.903 -14.059 -26.346  0.00  0.00    +0.184 C 
ENDBRANCH   2   3
BRANCH   2   5
ATOM      5  N   UNL     1      34.006 -12.083 -24.666  0.00  0.00    -0.230 NA
ATOM      6  H   UNL     1      33.350 -11.921 -25.431  0.00  0.00    +0.133 HD
BRANCH   5   7
ATOM      7  C   UNL     1      34.174 -10.809 -23.983  0.00  0.00    +0.062 C 
ATOM      8  C   UNL     1      32.832 -10.095 -23.855  0.00  0.00    +0.018 C 
ATOM      9  C   UNL     1      35.178  -9.952 -24.749  0.00  0.00    +0.018 C 
ENDBRANCH   5   7
ENDBRANCH   2   5
BRANCH   2  10
ATOM     10  O   UNL     1      34.758 -14.282 -23.407  0.00  0.00    -0.432 OA
BRANCH  10  13
ATOM     11 CL   UNL     1      34.559 -14.746 -20.443  0.00  0.00    -0.079 Cl
ATOM     12 CL   UNL     1      34.881 -19.939 -21.833  0.00  0.00    -0.082 Cl
ATOM     13  C   UNL     1      34.785 -15.595 -23.017  0.00  0.00    +0.156 C 
ATOM     14  C   UNL     1      34.700 -15.946 -21.674  0.00  0.00    +0.093 C 
ATOM     15  C   UNL     1      34.899 -16.576 -23.997  0.00  0.00    +0.039 C 
ATOM     16  C   UNL     1      34.730 -17.292 -21.307  0.00  0.00    +0.026 C 
ATOM     17  C   UNL     1      34.929 -17.921 -23.632  0.00  0.00    +0.015 C 
ATOM     18  C   UNL     1      34.845 -18.279 -22.285  0.00  0.00    +0.059 C 
ENDBRANCH  10  13
ENDBRANCH   2  10
TORSDOF 5
ENDMDL
MODEL 4
REMARK VINA RESULT:      -7.0     10.435     12.058
REMARK  Name = 9299
REMARK  5 active torsions:
REMARK  status: ('A' for Active; 'I' for Inactive)
REMARK    1  A    between atoms: P_2  and  O_3
REMARK    2  A    between atoms: P_2  and  N_5
REMARK    3  A    between atoms: P_2  and  O_10
REMARK    4  A    between atoms: N_5  and  C_7
REMARK    5  A    between atoms: O_10  and  C_13
REMARK                            x       y       z     vdW  Elec       q    Type
REMARK                         _______ _______ _______ _____ _____    ______ ____
ROOT
ATOM      1  S   UNL     1      37.047 -22.209 -16.377  0.00  0.00    +0.022 S 
ATOM      2  P   UNL     1      36.286 -23.573 -15.193  0.00  0.00    +0.296 P 
ENDROOT
BRANCH   2   3
ATOM      3  O   UNL     1      37.247 -24.890 -15.060  0.00  0.00    -0.295 OA
ATOM      4  C   UNL     1      36.697 -26.193 -15.163  0.00  0.00    +0.184 C 
ENDBRANCH   2   3
BRANCH   2   5
ATOM      5  N   UNL     1      35.903 -23.149 -13.628  0.00  0.00    -0.230 NA
ATOM      6  H   UNL     1      34.896 -23.283 -13.526  0.00  0.00    +0.133 HD
BRANCH   5   7
ATOM      7  C   UNL     1      36.530 -23.834 -12.508  0.00  0.00    +0.062 C 
ATOM      8  C   UNL     1      35.485 -24.598 -11.701  0.00  0.00    +0.018 C 
ATOM      9  C   UNL     1      37.259 -22.817 -11.635  0.00  0.00    +0.018 C 
ENDBRANCH   5   7
ENDBRANCH   2   5
BRANCH   2  10
ATOM     10  O   UNL     1      34.970 -24.303 -15.815  0.00  0.00    -0.432 OA
BRANCH  10  13
ATOM     11 CL   UNL     1      33.798 -22.973 -18.243  0.00  0.00    -0.079 Cl
ATOM     12 CL   UNL     1      29.385 -22.603 -15.179  0.00  0.00    -0.082 Cl
ATOM     13  C   UNL     1      33.668 -23.898 -15.689  0.00  0.00    +0.156 C 
ATOM     14  C   UNL     1      33.007 -23.270 -16.740  0.00  0.00    +0.093 C 
ATOM     15  C   UNL     1      33.015 -24.130 -14.482  0.00  0.00    +0.039 C 
ATOM     16  C   UNL     1      31.680 -22.868 -16.582  0.00  0.00    +0.026 C 
ATOM     17  C   UNL     1      31.689 -23.729 -14.324  0.00  0.00    +0.015 C 
ATOM     18  C   UNL     1      31.021 -23.097 -15.374  0.00  0.00    +0.059 C 
ENDBRANCH  10  13
ENDBRANCH   2  10
TORSDOF 5
ENDMDL
MODEL 5
REMARK VINA RESULT:      -6.9      4.827      6.573
REMARK  Name = 9299
REMARK  5 active torsions:
REMARK  status: ('A' for Active; 'I' for Inactive)
REMARK    1  A    between atoms: P_2  and  O_3
REMARK    2  A    between atoms: P_2  and  N_5
REMARK    3  A    between atoms: P_2  and  O_10
REMARK    4  A    between atoms: N_5  and  C_7
REMARK    5  A    between atoms: O_10  and  C_13
REMARK                            x       y       z     vdW  Elec       q    Type
REMARK                         _______ _______ _______ _____ _____    ______ ____
ROOT
ATOM      1  S   UNL     1      32.631  -8.025 -20.979  0.00  0.00    +0.022 S 
ATOM      2  P   UNL     1      31.928  -8.816 -22.629  0.00  0.00    +0.296 P 
ENDROOT
BRANCH   2   3
ATOM      3  O   UNL     1      30.725  -7.924 -23.285  0.00  0.00    -0.295 OA
ATOM      4  C   UNL     1      31.024  -6.856 -24.169  0.00  0.00    +0.184 C 
ENDBRANCH   2   3
BRANCH   2   5
ATOM      5  N   UNL     1      32.984  -9.120 -23.882  0.00  0.00    -0.230 NA
ATOM      6  H   UNL     1      32.661  -8.568 -24.678  0.00  0.00    +0.133 HD
BRANCH   5   7
ATOM      7  C   UNL     1      34.404  -8.840 -23.729  0.00  0.00    +0.062 C 
ATOM      8  C   UNL     1      34.688  -7.369 -24.018  0.00  0.00    +0.018 C 
ATOM      9  C   UNL     1      35.203  -9.745 -24.662  0.00  0.00    +0.018 C 
ENDBRANCH   5   7
ENDBRANCH   2   5
BRANCH   2  10
ATOM     10  O   UNL     1      31.092 -10.191 -22.378  0.00  0.00    -0.432 OA
BRANCH  10  13
ATOM     11 CL   UNL     1      30.902 -10.680 -19.418  0.00  0.00    -0.079 Cl
ATOM     12 CL   UNL     1      33.264 -15.364 -20.640  0.00  0.00    -0.082 Cl
ATOM     13  C   UNL     1      31.593 -11.392 -21.951  0.00  0.00    +0.156 C 
ATOM     14  C   UNL     1      31.565 -11.742 -20.604  0.00  0.00    +0.093 C 
ATOM     15  C   UNL     1      32.133 -12.260 -22.894  0.00  0.00    +0.039 C 
ATOM     16  C   UNL     1      32.083 -12.972 -20.198  0.00  0.00    +0.026 C 
ATOM     17  C   UNL     1      32.650 -13.489 -22.489  0.00  0.00    +0.015 C 
ATOM     18  C   UNL     1      32.626 -13.846 -21.140  0.00  0.00    +0.059 C 
ENDBRANCH  10  13
ENDBRANCH   2  10
TORSDOF 5
ENDMDL
MODEL 6
REMARK VINA RESULT:      -6.9      8.268     10.205
REMARK  Name = 9299
REMARK  5 active torsions:
REMARK  status: ('A' for Active; 'I' for Inactive)
REMARK    1  A    between atoms: P_2  and  O_3
REMARK    2  A    between atoms: P_2  and  N_5
REMARK    3  A    between atoms: P_2  and  O_10
REMARK    4  A    between atoms: N_5  and  C_7
REMARK    5  A    between atoms: O_10  and  C_13
REMARK                            x       y       z     vdW  Elec       q    Type
REMARK                         _______ _______ _______ _____ _____    ______ ____
ROOT
ATOM      1  S   UNL     1      37.275 -21.791 -16.207  0.00  0.00    +0.022 S 
ATOM      2  P   UNL     1      35.770 -23.028 -15.992  0.00  0.00    +0.296 P 
ENDROOT
BRANCH   2   3
ATOM      3  O   UNL     1      36.260 -24.564 -15.717  0.00  0.00    -0.295 OA
ATOM      4  C   UNL     1      37.398 -24.822 -14.911  0.00  0.00    +0.184 C 
ENDBRANCH   2   3
BRANCH   2   5
ATOM      5  N   UNL     1      34.638 -22.711 -14.811  0.00  0.00    -0.230 NA
ATOM      6  H   UNL     1      33.983 -22.036 -15.208  0.00  0.00    +0.133 HD
BRANCH   5   7
ATOM      7  C   UNL     1      33.839 -23.790 -14.252  0.00  0.00    +0.062 C 
ATOM      8  C   UNL     1      32.369 -23.385 -14.189  0.00  0.00    +0.018 C 
ATOM      9  C   UNL     1      34.367 -24.148 -12.866  0.00  0.00    +0.018 C 
ENDBRANCH   5   7
ENDBRANCH   2   5
BRANCH   2  10
ATOM     10  O   UNL     1      34.947 -23.286 -17.372  0.00  0.00    -0.432 OA
BRANCH  10  13
ATOM     11 CL   UNL     1      32.048 -22.542 -17.667  0.00  0.00    -0.079 Cl
ATOM     12 CL   UNL     1      33.882 -19.347 -21.596  0.00  0.00    -0.082 Cl
ATOM     13  C   UNL     1      34.675 -22.368 -18.352  0.00  0.00    +0.156 C 
ATOM     14  C   UNL     1      33.374 -21.938 -18.591  0.00  0.00    +0.093 C 
ATOM     15  C   UNL     1      35.733 -21.871 -19.107  0.00  0.00    +0.039 C 
ATOM     16  C   UNL     1      33.128 -21.003 -19.596  0.00  0.00    +0.026 C 
ATOM     17  C   UNL     1      35.488 -20.936 -20.111  0.00  0.00    +0.015 C 
ATOM     18  C   UNL     1      34.184 -20.502 -20.357  0.00  0.00    +0.059 C 
ENDBRANCH  10  13
ENDBRANCH   2  10
TORSDOF 5
ENDMDL
MODEL 7
REMARK VINA RESULT:      -6.9     10.266     11.992
REMARK  Name = 9299
REMARK  5 active torsions:
REMARK  status: ('A' for Active; 'I' for Inactive)
REMARK    1  A    between atoms: P_2  and  O_3
REMARK    2  A    between atoms: P_2  and  N_5
REMARK    3  A    between atoms: P_2  and  O_10
REMARK    4  A    between atoms: N_5  and  C_7
REMARK    5  A    between atoms: O_10  and  C_13
REMARK                            x       y       z     vdW  Elec       q    Type
REMARK                         _______ _______ _______ _____ _____    ______ ____
ROOT
ATOM      1  S   UNL     1      36.080 -23.504 -12.946  0.00  0.00    +0.022 S 
ATOM      2  P   UNL     1      36.396 -23.565 -14.880  0.00  0.00    +0.296 P 
ENDROOT
BRANCH   2   3
ATOM      3  O   UNL     1      36.373 -22.079 -15.562  0.00  0.00    -0.295 OA
ATOM      4  C   UNL     1      37.159 -21.804 -16.710  0.00  0.00    +0.184 C 
ENDBRANCH   2   3
BRANCH   2   5
ATOM      5  N   UNL     1      37.793 -24.283 -15.438  0.00  0.00    -0.230 NA
ATOM      6  H   UNL     1      38.444 -23.527 -15.656  0.00  0.00    +0.133 HD
BRANCH   5   7
ATOM      7  C   UNL     1      38.516 -25.229 -14.602  0.00  0.00    +0.062 C 
ATOM      8  C   UNL     1      39.954 -25.375 -15.089  0.00  0.00    +0.018 C 
ATOM      9  C   UNL     1      37.794 -26.573 -14.617  0.00  0.00    +0.018 C 
ENDBRANCH   5   7
ENDBRANCH   2   5
BRANCH   2  10
ATOM     10  O   UNL     1      35.165 -24.227 -15.713  0.00  0.00    -0.432 OA
BRANCH  10  13
ATOM     11 CL   UNL     1      34.050 -22.986 -18.214  0.00  0.00    -0.079 Cl
ATOM     12 CL   UNL     1      29.496 -22.736 -15.350  0.00  0.00    -0.082 Cl
ATOM     13  C   UNL     1      33.844 -23.871 -15.651  0.00  0.00    +0.156 C 
ATOM     14  C   UNL     1      33.206 -23.287 -16.741  0.00  0.00    +0.093 C 
ATOM     15  C   UNL     1      33.148 -24.107 -14.469  0.00  0.00    +0.039 C 
ATOM     16  C   UNL     1      31.859 -22.935 -16.647  0.00  0.00    +0.026 C 
ATOM     17  C   UNL     1      31.802 -23.756 -14.375  0.00  0.00    +0.015 C 
ATOM     18  C   UNL     1      31.157 -23.169 -15.466  0.00  0.00    +0.059 C 
ENDBRANCH  10  13
ENDBRANCH   2  10
TORSDOF 5
ENDMDL
MODEL 8
REMARK VINA RESULT:      -6.8      2.526      3.558
REMARK  Name = 9299
REMARK  5 active torsions:
REMARK  status: ('A' for Active; 'I' for Inactive)
REMARK    1  A    between atoms: P_2  and  O_3
REMARK    2  A    between atoms: P_2  and  N_5
REMARK    3  A    between atoms: P_2  and  O_10
REMARK    4  A    between atoms: N_5  and  C_7
REMARK    5  A    between atoms: O_10  and  C_13
REMARK                            x       y       z     vdW  Elec       q    Type
REMARK                         _______ _______ _______ _____ _____    ______ ____
ROOT
ATOM      1  S   UNL     1      33.857 -11.266 -24.192  0.00  0.00    +0.022 S 
ATOM      2  P   UNL     1      33.217 -13.006 -23.555  0.00  0.00    +0.296 P 
ENDROOT
BRANCH   2   3
ATOM      3  O   UNL     1      32.053 -12.864 -22.415  0.00  0.00    -0.295 OA
ATOM      4  C   UNL     1      31.622 -11.583 -21.986  0.00  0.00    +0.184 C 
ENDBRANCH   2   3
BRANCH   2   5
ATOM      5  N   UNL     1      32.614 -14.092 -24.666  0.00  0.00    -0.230 NA
ATOM      6  H   UNL     1      31.679 -13.767 -24.914  0.00  0.00    +0.133 HD
BRANCH   5   7
ATOM      7  C   UNL     1      33.319 -14.328 -25.917  0.00  0.00    +0.062 C 
ATOM      8  C   UNL     1      32.896 -13.305 -26.966  0.00  0.00    +0.018 C 
ATOM      9  C   UNL     1      33.041 -15.750 -26.395  0.00  0.00    +0.018 C 
ENDBRANCH   5   7
ENDBRANCH   2   5
BRANCH   2  10
ATOM     10  O   UNL     1      34.319 -13.810 -22.667  0.00  0.00    -0.432 OA
BRANCH  10  13
ATOM     11 CL   UNL     1      32.896 -14.858 -20.234  0.00  0.00    -0.079 Cl
ATOM     12 CL   UNL     1      34.708 -19.628 -21.959  0.00  0.00    -0.082 Cl
ATOM     13  C   UNL     1      34.397 -15.165 -22.482  0.00  0.00    +0.156 C 
ATOM     14  C   UNL     1      33.781 -15.777 -21.394  0.00  0.00    +0.093 C 
ATOM     15  C   UNL     1      35.107 -15.922 -23.408  0.00  0.00    +0.039 C 
ATOM     16  C   UNL     1      33.878 -17.160 -21.232  0.00  0.00    +0.026 C 
ATOM     17  C   UNL     1      35.204 -17.304 -23.247  0.00  0.00    +0.015 C 
ATOM     18  C   UNL     1      34.589 -17.923 -22.158  0.00  0.00    +0.059 C 
ENDBRANCH  10  13
ENDBRANCH   2  10
TORSDOF 5
ENDMDL
MODEL 9
REMARK VINA RESULT:      -6.6      3.475      5.344
REMARK  Name = 9299
REMARK  5 active torsions:
REMARK  status: ('A' for Active; 'I' for Inactive)
REMARK    1  A    between atoms: P_2  and  O_3
REMARK    2  A    between atoms: P_2  and  N_5
REMARK    3  A    between atoms: P_2  and  O_10
REMARK    4  A    between atoms: N_5  and  C_7
REMARK    5  A    between atoms: O_10  and  C_13
REMARK                            x       y       z     vdW  Elec       q    Type
REMARK                         _______ _______ _______ _____ _____    ______ ____
ROOT
ATOM      1  S   UNL     1      37.297 -18.644 -22.060  0.00  0.00    +0.022 S 
ATOM      2  P   UNL     1      35.420 -18.396 -22.567  0.00  0.00    +0.296 P 
ENDROOT
BRANCH   2   3
ATOM      3  O   UNL     1      35.010 -19.269 -23.888  0.00  0.00    -0.295 OA
ATOM      4  C   UNL     1      34.351 -18.651 -24.981  0.00  0.00    +0.184 C 
ENDBRANCH   2   3
BRANCH   2   5
ATOM      5  N   UNL     1      34.238 -18.723 -21.439  0.00  0.00    -0.230 NA
ATOM      6  H   UNL     1      33.366 -18.346 -21.811  0.00  0.00    +0.133 HD
BRANCH   5   7
ATOM      7  C   UNL     1      33.963 -20.096 -21.042  0.00  0.00    +0.062 C 
ATOM      8  C   UNL     1      32.635 -20.176 -20.297  0.00  0.00    +0.018 C 
ATOM      9  C   UNL     1      35.109 -20.612 -20.177  0.00  0.00    +0.018 C 
ENDBRANCH   5   7
ENDBRANCH   2   5
BRANCH   2  10
ATOM     10  O   UNL     1      35.104 -16.912 -23.158  0.00  0.00    -0.432 OA
BRANCH  10  13
ATOM     11 CL   UNL     1      33.413 -15.246 -25.004  0.00  0.00    -0.079 Cl
ATOM     12 CL   UNL     1      32.026 -12.696 -20.467  0.00  0.00    -0.082 Cl
ATOM     13  C   UNL     1      34.378 -15.922 -22.552  0.00  0.00    +0.156 C 
ATOM     14  C   UNL     1      33.554 -15.081 -23.292  0.00  0.00    +0.093 C 
ATOM     15  C   UNL     1      34.480 -15.775 -21.172  0.00  0.00    +0.039 C 
ATOM     16  C   UNL     1      32.826 -14.081 -22.646  0.00  0.00    +0.026 C 
ATOM     17  C   UNL     1      33.753 -14.776 -20.526  0.00  0.00    +0.015 C 
ATOM     18  C   UNL     1      32.925 -13.928 -21.264  0.00  0.00    +0.059 C 
ENDBRANCH  10  13
ENDBRANCH   2  10
TORSDOF 5
ENDMDL
