MODEL 1
REMARK VINA RESULT:      -7.7      0.000      0.000
REMARK  Name = 6035
REMARK  4 active torsions:
REMARK  status: ('A' for Active; 'I' for Inactive)
REMARK    1  A    between atoms: N_4  and  C1*_13
REMARK    2  A    between atoms: C3*_12  and  O3*_16
REMARK    3  A    between atoms: C4*_15  and  C5*_18
REMARK    4  A    between atoms: C5*_18  and  O5*_19
REMARK                            x       y       z     vdW  Elec       q    Type
REMARK                         _______ _______ _______ _____ _____    ______ ____
ROOT
ATOM      1 BR   UNL     1      30.472 -23.537 -13.987  0.00  0.00    -0.043 Br
ATOM      2  O   UNL     1      34.457 -22.966 -18.371  0.00  0.00    -0.252 OA
ATOM      3  O   UNL     1      30.106 -22.649 -16.927  0.00  0.00    -0.269 OA
ATOM      4  N   UNL     1      34.003 -23.517 -16.149  0.00  0.00    -0.218 N 
ATOM      5  N   UNL     1      32.292 -22.814 -17.633  0.00  0.00    -0.235 N 
ATOM      6  C   UNL     1      33.650 -23.093 -17.448  0.00  0.00    +0.315 C 
ATOM      7  C   UNL     1      33.032 -23.634 -15.162  0.00  0.00    +0.082 C 
ATOM      8  C   UNL     1      31.734 -23.366 -15.346  0.00  0.00    +0.103 C 
ATOM      9  C   UNL     1      31.281 -22.913 -16.687  0.00  0.00    +0.260 C 
ATOM     10  H   UNL     1      32.022 -22.516 -18.532  0.00  0.00    +0.159 HD
ENDROOT
BRANCH   4  13
ATOM     11  O4* UNL     1      35.372 -24.783 -14.736  0.00  0.00    -0.335 OA
ATOM     12  C3* UNL     1      37.112 -23.219 -14.354  0.00  0.00    +0.144 C 
ATOM     13  C1* UNL     1      35.359 -23.837 -15.815  0.00  0.00    +0.202 C 
ATOM     14  C2* UNL     1      36.157 -22.624 -15.364  0.00  0.00    +0.083 C 
ATOM     15  C4* UNL     1      36.296 -24.338 -13.725  0.00  0.00    +0.173 C 
BRANCH  12  16
ATOM     16  O3* UNL     1      38.245 -23.764 -15.029  0.00  0.00    -0.382 OA
ATOM     17  H3* UNL     1      38.437 -24.647 -14.677  0.00  0.00    +0.210 HD
ENDBRANCH  12  16
BRANCH  15  18
ATOM     18  C5* UNL     1      35.484 -23.875 -12.522  0.00  0.00    +0.169 C 
BRANCH  18  19
ATOM     19  O5* UNL     1      34.744 -24.975 -12.017  0.00  0.00    -0.379 OA
ATOM     20  H5* UNL     1      34.325 -24.725 -11.178  0.00  0.00    +0.211 HD
ENDBRANCH  18  19
ENDBRANCH  15  18
ENDBRANCH   4  13
TORSDOF 4
ENDMDL
MODEL 2
REMARK VINA RESULT:      -7.6      1.490      2.043
REMARK  Name = 6035
REMARK  4 active torsions:
REMARK  status: ('A' for Active; 'I' for Inactive)
REMARK    1  A    between atoms: N_4  and  C1*_13
REMARK    2  A    between atoms: C3*_12  and  O3*_16
REMARK    3  A    between atoms: C4*_15  and  C5*_18
REMARK    4  A    between atoms: C5*_18  and  O5*_19
REMARK                            x       y       z     vdW  Elec       q    Type
REMARK                         _______ _______ _______ _____ _____    ______ ____
ROOT
ATOM      1 BR   UNL     1      30.820 -24.487 -13.503  0.00  0.00    -0.043 Br
ATOM      2  O   UNL     1      34.911 -22.797 -17.483  0.00  0.00    -0.252 OA
ATOM      3  O   UNL     1      30.499 -23.536 -16.430  0.00  0.00    -0.269 OA
ATOM      4  N   UNL     1      34.416 -23.561 -15.334  0.00  0.00    -0.218 N 
ATOM      5  N   UNL     1      32.715 -23.172 -16.940  0.00  0.00    -0.235 N 
ATOM      6  C   UNL     1      34.082 -23.152 -16.643  0.00  0.00    +0.315 C 
ATOM      7  C   UNL     1      33.421 -23.946 -14.444  0.00  0.00    +0.082 C 
ATOM      8  C   UNL     1      32.115 -23.963 -14.735  0.00  0.00    +0.103 C 
ATOM      9  C   UNL     1      31.680 -23.546 -16.094  0.00  0.00    +0.260 C 
ATOM     10  H   UNL     1      32.459 -22.891 -17.848  0.00  0.00    +0.159 HD
ENDROOT
BRANCH   4  13
ATOM     11  O4* UNL     1      36.529 -24.489 -15.718  0.00  0.00    -0.335 OA
ATOM     12  C3* UNL     1      37.252 -24.786 -13.480  0.00  0.00    +0.144 C 
ATOM     13  C1* UNL     1      35.779 -23.590 -14.890  0.00  0.00    +0.202 C 
ATOM     14  C2* UNL     1      35.920 -24.071 -13.454  0.00  0.00    +0.083 C 
ATOM     15  C4* UNL     1      37.301 -25.373 -14.883  0.00  0.00    +0.173 C 
BRANCH  12  16
ATOM     16  O3* UNL     1      38.307 -23.841 -13.311  0.00  0.00    -0.382 OA
ATOM     17  H3* UNL     1      38.071 -23.010 -13.752  0.00  0.00    +0.210 HD
ENDBRANCH  12  16
BRANCH  15  18
ATOM     18  C5* UNL     1      36.678 -26.760 -14.968  0.00  0.00    +0.169 C 
BRANCH  18  19
ATOM     19  O5* UNL     1      36.842 -27.256 -16.286  0.00  0.00    -0.379 OA
ATOM     20  H5* UNL     1      35.970 -27.426 -16.679  0.00  0.00    +0.211 HD
ENDBRANCH  18  19
ENDBRANCH  15  18
ENDBRANCH   4  13
TORSDOF 4
ENDMDL
MODEL 3
REMARK VINA RESULT:      -7.6      1.899      2.597
REMARK  Name = 6035
REMARK  4 active torsions:
REMARK  status: ('A' for Active; 'I' for Inactive)
REMARK    1  A    between atoms: N_4  and  C1*_13
REMARK    2  A    between atoms: C3*_12  and  O3*_16
REMARK    3  A    between atoms: C4*_15  and  C5*_18
REMARK    4  A    between atoms: C5*_18  and  O5*_19
REMARK                            x       y       z     vdW  Elec       q    Type
REMARK                         _______ _______ _______ _____ _____    ______ ____
ROOT
ATOM      1 BR   UNL     1      31.954 -24.097 -14.611  0.00  0.00    -0.043 Br
ATOM      2  O   UNL     1      37.202 -22.332 -16.796  0.00  0.00    -0.252 OA
ATOM      3  O   UNL     1      32.718 -23.102 -17.439  0.00  0.00    -0.269 OA
ATOM      4  N   UNL     1      35.962 -23.132 -14.987  0.00  0.00    -0.218 N 
ATOM      5  N   UNL     1      34.963 -22.723 -17.099  0.00  0.00    -0.235 N 
ATOM      6  C   UNL     1      36.127 -22.703 -16.322  0.00  0.00    +0.315 C 
ATOM      7  C   UNL     1      34.714 -23.533 -14.528  0.00  0.00    +0.082 C 
ATOM      8  C   UNL     1      33.605 -23.550 -15.276  0.00  0.00    +0.103 C 
ATOM      9  C   UNL     1      33.694 -23.113 -16.695  0.00  0.00    +0.260 C 
ATOM     10  H   UNL     1      35.054 -22.429 -18.034  0.00  0.00    +0.159 HD
ENDROOT
BRANCH   4  13
ATOM     11  O4* UNL     1      37.884 -24.309 -14.358  0.00  0.00    -0.335 OA
ATOM     12  C3* UNL     1      37.747 -24.076 -12.003  0.00  0.00    +0.144 C 
ATOM     13  C1* UNL     1      37.069 -23.163 -14.075  0.00  0.00    +0.202 C 
ATOM     14  C2* UNL     1      36.632 -23.265 -12.623  0.00  0.00    +0.083 C 
ATOM     15  C4* UNL     1      38.162 -25.009 -13.131  0.00  0.00    +0.173 C 
BRANCH  12  16
ATOM     16  O3* UNL     1      38.832 -23.215 -11.660  0.00  0.00    -0.382 OA
ATOM     17  H3* UNL     1      39.557 -23.341 -12.293  0.00  0.00    +0.210 HD
ENDBRANCH  12  16
BRANCH  15  18
ATOM     18  C5* UNL     1      37.371 -26.311 -13.145  0.00  0.00    +0.169 C 
BRANCH  18  19
ATOM     19  O5* UNL     1      36.859 -26.550 -11.845  0.00  0.00    -0.379 OA
ATOM     20  H5* UNL     1      36.185 -27.248 -11.886  0.00  0.00    +0.211 HD
ENDBRANCH  18  19
ENDBRANCH  15  18
ENDBRANCH   4  13
TORSDOF 4
ENDMDL
MODEL 4
REMARK VINA RESULT:      -7.5      2.170      3.188
REMARK  Name = 6035
REMARK  4 active torsions:
REMARK  status: ('A' for Active; 'I' for Inactive)
REMARK    1  A    between atoms: N_4  and  C1*_13
REMARK    2  A    between atoms: C3*_12  and  O3*_16
REMARK    3  A    between atoms: C4*_15  and  C5*_18
REMARK    4  A    between atoms: C5*_18  and  O5*_19
REMARK                            x       y       z     vdW  Elec       q    Type
REMARK                         _______ _______ _______ _____ _____    ______ ____
ROOT
ATOM      1 BR   UNL     1      33.499 -22.418 -18.673  0.00  0.00    -0.043 Br
ATOM      2  O   UNL     1      32.392 -24.632 -13.260  0.00  0.00    -0.252 OA
ATOM      3  O   UNL     1      30.847 -22.624 -17.093  0.00  0.00    -0.269 OA
ATOM      4  N   UNL     1      33.937 -24.167 -14.946  0.00  0.00    -0.218 N 
ATOM      5  N   UNL     1      31.639 -23.629 -15.179  0.00  0.00    -0.235 N 
ATOM      6  C   UNL     1      32.646 -24.178 -14.377  0.00  0.00    +0.315 C 
ATOM      7  C   UNL     1      34.141 -23.637 -16.214  0.00  0.00    +0.082 C 
ATOM      8  C   UNL     1      33.174 -23.114 -16.976  0.00  0.00    +0.103 C 
ATOM      9  C   UNL     1      31.783 -23.088 -16.449  0.00  0.00    +0.260 C 
ATOM     10  H   UNL     1      30.730 -23.626 -14.803  0.00  0.00    +0.159 HD
ENDROOT
BRANCH   4  13
ATOM     11  O4* UNL     1      35.925 -23.619 -13.840  0.00  0.00    -0.335 OA
ATOM     12  C3* UNL     1      37.294 -25.416 -14.559  0.00  0.00    +0.144 C 
ATOM     13  C1* UNL     1      35.066 -24.697 -14.238  0.00  0.00    +0.202 C 
ATOM     14  C2* UNL     1      35.895 -25.651 -15.082  0.00  0.00    +0.083 C 
ATOM     15  C4* UNL     1      37.284 -23.938 -14.197  0.00  0.00    +0.173 C 
BRANCH  12  16
ATOM     16  O3* UNL     1      37.507 -26.202 -13.387  0.00  0.00    -0.382 OA
ATOM     17  H3* UNL     1      36.678 -26.638 -13.135  0.00  0.00    +0.210 HD
ENDBRANCH  12  16
BRANCH  15  18
ATOM     18  C5* UNL     1      37.685 -23.040 -15.360  0.00  0.00    +0.169 C 
BRANCH  18  19
ATOM     19  O5* UNL     1      38.867 -23.554 -15.950  0.00  0.00    -0.379 OA
ATOM     20  H5* UNL     1      39.323 -24.129 -15.314  0.00  0.00    +0.211 HD
ENDBRANCH  18  19
ENDBRANCH  15  18
ENDBRANCH   4  13
TORSDOF 4
ENDMDL
MODEL 5
REMARK VINA RESULT:      -7.5      2.494      3.531
REMARK  Name = 6035
REMARK  4 active torsions:
REMARK  status: ('A' for Active; 'I' for Inactive)
REMARK    1  A    between atoms: N_4  and  C1*_13
REMARK    2  A    between atoms: C3*_12  and  O3*_16
REMARK    3  A    between atoms: C4*_15  and  C5*_18
REMARK    4  A    between atoms: C5*_18  and  O5*_19
REMARK                            x       y       z     vdW  Elec       q    Type
REMARK                         _______ _______ _______ _____ _____    ______ ____
ROOT
ATOM      1 BR   UNL     1      35.966 -21.410 -19.716  0.00  0.00    -0.043 Br
ATOM      2  O   UNL     1      31.953 -23.694 -15.960  0.00  0.00    -0.252 OA
ATOM      3  O   UNL     1      32.902 -21.726 -20.003  0.00  0.00    -0.269 OA
ATOM      4  N   UNL     1      34.179 -23.161 -16.417  0.00  0.00    -0.218 N 
ATOM      5  N   UNL     1      32.445 -22.711 -17.972  0.00  0.00    -0.235 N 
ATOM      6  C   UNL     1      32.802 -23.225 -16.720  0.00  0.00    +0.315 C 
ATOM      7  C   UNL     1      35.073 -22.618 -17.331  0.00  0.00    +0.082 C 
ATOM      8  C   UNL     1      34.725 -22.128 -18.526  0.00  0.00    +0.103 C 
ATOM      9  C   UNL     1      33.292 -22.157 -18.922  0.00  0.00    +0.260 C 
ATOM     10  H   UNL     1      31.489 -22.744 -18.205  0.00  0.00    +0.159 HD
ENDROOT
BRANCH   4  13
ATOM     11  O4* UNL     1      35.742 -22.789 -14.716  0.00  0.00    -0.335 OA
ATOM     12  C3* UNL     1      36.384 -25.026 -14.264  0.00  0.00    +0.144 C 
ATOM     13  C1* UNL     1      34.688 -23.651 -15.170  0.00  0.00    +0.202 C 
ATOM     14  C2* UNL     1      35.265 -25.053 -15.280  0.00  0.00    +0.083 C 
ATOM     15  C4* UNL     1      36.877 -23.588 -14.333  0.00  0.00    +0.173 C 
BRANCH  12  16
ATOM     16  O3* UNL     1      35.860 -25.298 -12.966  0.00  0.00    -0.382 OA
ATOM     17  H3* UNL     1      36.565 -25.645 -12.398  0.00  0.00    +0.210 HD
ENDBRANCH  12  16
BRANCH  15  18
ATOM     18  C5* UNL     1      37.967 -23.384 -15.377  0.00  0.00    +0.169 C 
BRANCH  18  19
ATOM     19  O5* UNL     1      38.948 -24.396 -15.219  0.00  0.00    -0.379 OA
ATOM     20  H5* UNL     1      39.234 -24.708 -16.093  0.00  0.00    +0.211 HD
ENDBRANCH  18  19
ENDBRANCH  15  18
ENDBRANCH   4  13
TORSDOF 4
ENDMDL
MODEL 6
REMARK VINA RESULT:      -7.4      8.507     10.085
REMARK  Name = 6035
REMARK  4 active torsions:
REMARK  status: ('A' for Active; 'I' for Inactive)
REMARK    1  A    between atoms: N_4  and  C1*_13
REMARK    2  A    between atoms: C3*_12  and  O3*_16
REMARK    3  A    between atoms: C4*_15  and  C5*_18
REMARK    4  A    between atoms: C5*_18  and  O5*_19
REMARK                            x       y       z     vdW  Elec       q    Type
REMARK                         _______ _______ _______ _____ _____    ______ ____
ROOT
ATOM      1 BR   UNL     1      32.780 -13.484 -22.375  0.00  0.00    -0.043 Br
ATOM      2  O   UNL     1      34.854 -17.988 -25.668  0.00  0.00    -0.252 OA
ATOM      3  O   UNL     1      32.650 -13.963 -25.429  0.00  0.00    -0.269 OA
ATOM      4  N   UNL     1      34.584 -17.016 -23.563  0.00  0.00    -0.218 N 
ATOM      5  N   UNL     1      33.756 -15.980 -25.529  0.00  0.00    -0.235 N 
ATOM      6  C   UNL     1      34.432 -17.067 -24.965  0.00  0.00    +0.315 C 
ATOM      7  C   UNL     1      34.081 -15.940 -22.842  0.00  0.00    +0.082 C 
ATOM      8  C   UNL     1      33.435 -14.903 -23.388  0.00  0.00    +0.103 C 
ATOM      9  C   UNL     1      33.233 -14.882 -24.861  0.00  0.00    +0.260 C 
ATOM     10  H   UNL     1      33.638 -15.995 -26.507  0.00  0.00    +0.159 HD
ENDROOT
BRANCH   4  13
ATOM     11  O4* UNL     1      34.431 -19.235 -22.836  0.00  0.00    -0.335 OA
ATOM     12  C3* UNL     1      35.441 -19.030 -20.701  0.00  0.00    +0.144 C 
ATOM     13  C1* UNL     1      35.257 -18.062 -22.850  0.00  0.00    +0.202 C 
ATOM     14  C2* UNL     1      35.548 -17.695 -21.403  0.00  0.00    +0.083 C 
ATOM     15  C4* UNL     1      34.359 -19.750 -21.493  0.00  0.00    +0.173 C 
BRANCH  12  16
ATOM     16  O3* UNL     1      36.676 -19.733 -20.815  0.00  0.00    -0.382 OA
ATOM     17  H3* UNL     1      37.242 -19.289 -21.466  0.00  0.00    +0.210 HD
ENDBRANCH  12  16
BRANCH  15  18
ATOM     18  C5* UNL     1      32.957 -19.480 -20.963  0.00  0.00    +0.169 C 
BRANCH  18  19
ATOM     19  O5* UNL     1      32.664 -20.420 -19.942  0.00  0.00    -0.379 OA
ATOM     20  H5* UNL     1      33.333 -20.356 -19.242  0.00  0.00    +0.211 HD
ENDBRANCH  18  19
ENDBRANCH  15  18
ENDBRANCH   4  13
TORSDOF 4
ENDMDL
MODEL 7
REMARK VINA RESULT:      -7.2      7.400      9.735
REMARK  Name = 6035
REMARK  4 active torsions:
REMARK  status: ('A' for Active; 'I' for Inactive)
REMARK    1  A    between atoms: N_4  and  C1*_13
REMARK    2  A    between atoms: C3*_12  and  O3*_16
REMARK    3  A    between atoms: C4*_15  and  C5*_18
REMARK    4  A    between atoms: C5*_18  and  O5*_19
REMARK                            x       y       z     vdW  Elec       q    Type
REMARK                         _______ _______ _______ _____ _____    ______ ____
ROOT
ATOM      1 BR   UNL     1      32.946 -20.798 -19.976  0.00  0.00    -0.043 Br
ATOM      2  O   UNL     1      38.125 -18.612 -21.933  0.00  0.00    -0.252 OA
ATOM      3  O   UNL     1      35.819 -21.171 -18.891  0.00  0.00    -0.269 OA
ATOM      4  N   UNL     1      35.809 -18.771 -22.175  0.00  0.00    -0.218 N 
ATOM      5  N   UNL     1      36.958 -19.884 -20.424  0.00  0.00    -0.235 N 
ATOM      6  C   UNL     1      37.041 -19.052 -21.545  0.00  0.00    +0.315 C 
ATOM      7  C   UNL     1      34.629 -19.308 -21.676  0.00  0.00    +0.082 C 
ATOM      8  C   UNL     1      34.556 -20.103 -20.603  0.00  0.00    +0.103 C 
ATOM      9  C   UNL     1      35.811 -20.447 -19.882  0.00  0.00    +0.260 C 
ATOM     10  H   UNL     1      37.805 -20.093 -19.968  0.00  0.00    +0.159 HD
ENDROOT
BRANCH   4  13
ATOM     11  O4* UNL     1      35.739 -16.557 -22.928  0.00  0.00    -0.335 OA
ATOM     12  C3* UNL     1      34.205 -16.790 -24.720  0.00  0.00    +0.144 C 
ATOM     13  C1* UNL     1      35.742 -17.932 -23.336  0.00  0.00    +0.202 C 
ATOM     14  C2* UNL     1      34.485 -18.165 -24.158  0.00  0.00    +0.083 C 
ATOM     15  C4* UNL     1      34.680 -15.861 -23.612  0.00  0.00    +0.173 C 
BRANCH  12  16
ATOM     16  O3* UNL     1      34.986 -16.583 -25.896  0.00  0.00    -0.382 OA
ATOM     17  H3* UNL     1      35.841 -17.030 -25.798  0.00  0.00    +0.210 HD
ENDBRANCH  12  16
BRANCH  15  18
ATOM     18  C5* UNL     1      33.592 -15.548 -22.593  0.00  0.00    +0.169 C 
BRANCH  18  19
ATOM     19  O5* UNL     1      34.169 -15.528 -21.298  0.00  0.00    -0.379 OA
ATOM     20  H5* UNL     1      35.134 -15.603 -21.372  0.00  0.00    +0.211 HD
ENDBRANCH  18  19
ENDBRANCH  15  18
ENDBRANCH   4  13
TORSDOF 4
ENDMDL
MODEL 8
REMARK VINA RESULT:      -7.1      2.553      3.310
REMARK  Name = 6035
REMARK  4 active torsions:
REMARK  status: ('A' for Active; 'I' for Inactive)
REMARK    1  A    between atoms: N_4  and  C1*_13
REMARK    2  A    between atoms: C3*_12  and  O3*_16
REMARK    3  A    between atoms: C4*_15  and  C5*_18
REMARK    4  A    between atoms: C5*_18  and  O5*_19
REMARK                            x       y       z     vdW  Elec       q    Type
REMARK                         _______ _______ _______ _____ _____    ______ ____
ROOT
ATOM      1 BR   UNL     1      33.118 -23.022 -17.529  0.00  0.00    -0.043 Br
ATOM      2  O   UNL     1      34.760 -24.677 -12.053  0.00  0.00    -0.252 OA
ATOM      3  O   UNL     1      31.789 -22.484 -14.788  0.00  0.00    -0.269 OA
ATOM      4  N   UNL     1      35.181 -24.685 -14.348  0.00  0.00    -0.218 N 
ATOM      5  N   UNL     1      33.288 -23.587 -13.433  0.00  0.00    -0.235 N 
ATOM      6  C   UNL     1      34.441 -24.345 -13.196  0.00  0.00    +0.315 C 
ATOM      7  C   UNL     1      34.752 -24.273 -15.604  0.00  0.00    +0.082 C 
ATOM      8  C   UNL     1      33.649 -23.549 -15.824  0.00  0.00    +0.103 C 
ATOM      9  C   UNL     1      32.813 -23.148 -14.661  0.00  0.00    +0.260 C 
ATOM     10  H   UNL     1      32.756 -23.338 -12.643  0.00  0.00    +0.159 HD
ENDROOT
BRANCH   4  13
ATOM     11  O4* UNL     1      36.733 -25.634 -12.876  0.00  0.00    -0.335 OA
ATOM     12  C3* UNL     1      38.732 -25.237 -14.088  0.00  0.00    +0.144 C 
ATOM     13  C1* UNL     1      36.384 -25.459 -14.257  0.00  0.00    +0.202 C 
ATOM     14  C2* UNL     1      37.566 -24.792 -14.942  0.00  0.00    +0.083 C 
ATOM     15  C4* UNL     1      38.126 -25.318 -12.694  0.00  0.00    +0.173 C 
BRANCH  12  16
ATOM     16  O3* UNL     1      39.166 -26.531 -14.504  0.00  0.00    -0.382 OA
ATOM     17  H3* UNL     1      38.396 -27.065 -14.753  0.00  0.00    +0.210 HD
ENDBRANCH  12  16
BRANCH  15  18
ATOM     18  C5* UNL     1      38.211 -24.001 -11.933  0.00  0.00    +0.169 C 
BRANCH  18  19
ATOM     19  O5* UNL     1      37.315 -24.047 -10.835  0.00  0.00    -0.379 OA
ATOM     20  H5* UNL     1      37.645 -23.475 -10.124  0.00  0.00    +0.211 HD
ENDBRANCH  18  19
ENDBRANCH  15  18
ENDBRANCH   4  13
TORSDOF 4
ENDMDL
MODEL 9
REMARK VINA RESULT:      -7.1      9.265     11.165
REMARK  Name = 6035
REMARK  4 active torsions:
REMARK  status: ('A' for Active; 'I' for Inactive)
REMARK    1  A    between atoms: N_4  and  C1*_13
REMARK    2  A    between atoms: C3*_12  and  O3*_16
REMARK    3  A    between atoms: C4*_15  and  C5*_18
REMARK    4  A    between atoms: C5*_18  and  O5*_19
REMARK                            x       y       z     vdW  Elec       q    Type
REMARK                         _______ _______ _______ _____ _____    ______ ____
ROOT
ATOM      1 BR   UNL     1      32.971 -14.239 -25.895  0.00  0.00    -0.043 Br
ATOM      2  O   UNL     1      34.819 -14.982 -20.286  0.00  0.00    -0.252 OA
ATOM      3  O   UNL     1      32.900 -12.299 -23.485  0.00  0.00    -0.269 OA
ATOM      4  N   UNL     1      34.560 -15.860 -22.432  0.00  0.00    -0.218 N 
ATOM      5  N   UNL     1      33.864 -13.658 -21.895  0.00  0.00    -0.235 N 
ATOM      6  C   UNL     1      34.445 -14.851 -21.453  0.00  0.00    +0.315 C 
ATOM      7  C   UNL     1      34.112 -15.634 -23.728  0.00  0.00    +0.082 C 
ATOM      8  C   UNL     1      33.557 -14.490 -24.145  0.00  0.00    +0.103 C 
ATOM      9  C   UNL     1      33.400 -13.376 -23.173  0.00  0.00    +0.260 C 
ATOM     10  H   UNL     1      33.775 -12.939 -21.229  0.00  0.00    +0.159 HD
ENDROOT
BRANCH   4  13
ATOM     11  O4* UNL     1      35.720 -17.695 -23.306  0.00  0.00    -0.335 OA
ATOM     12  C3* UNL     1      34.648 -19.449 -22.124  0.00  0.00    +0.144 C 
ATOM     13  C1* UNL     1      35.135 -17.136 -22.121  0.00  0.00    +0.202 C 
ATOM     14  C2* UNL     1      34.111 -18.134 -21.605  0.00  0.00    +0.083 C 
ATOM     15  C4* UNL     1      35.287 -19.061 -23.450  0.00  0.00    +0.173 C 
BRANCH  12  16
ATOM     16  O3* UNL     1      35.644 -19.946 -21.232  0.00  0.00    -0.382 OA
ATOM     17  H3* UNL     1      35.342 -20.782 -20.844  0.00  0.00    +0.210 HD
ENDBRANCH  12  16
BRANCH  15  18
ATOM     18  C5* UNL     1      34.311 -19.123 -24.619  0.00  0.00    +0.169 C 
BRANCH  18  19
ATOM     19  O5* UNL     1      34.646 -18.106 -25.548  0.00  0.00    -0.379 OA
ATOM     20  H5* UNL     1      34.087 -17.327 -25.392  0.00  0.00    +0.211 HD
ENDBRANCH  18  19
ENDBRANCH  15  18
ENDBRANCH   4  13
TORSDOF 4
ENDMDL
