MODEL 1
REMARK VINA RESULT:      -9.2      0.000      0.000
REMARK  Name = 151166
REMARK  5 active torsions:
REMARK  status: ('A' for Active; 'I' for Inactive)
REMARK    1  A    between atoms: C_1  and  C_18
REMARK    2  A    between atoms: C_2  and  N_8
REMARK    3  A    between atoms: N_8  and  C_12
REMARK    4  A    between atoms: C_18  and  C_20
REMARK    5  A    between atoms: C_20  and  O_21
REMARK                            x       y       z     vdW  Elec       q    Type
REMARK                         _______ _______ _______ _____ _____    ______ ____
ROOT
ATOM      1  C   UNL     1      34.216 -15.955 -22.922  0.00  0.00    +0.002 C 
ATOM      2  C   UNL     1      33.982 -16.974 -21.997  0.00  0.00    +0.045 C 
ATOM      3  C   UNL     1      33.668 -14.690 -22.719  0.00  0.00    -0.007 C 
ATOM      4  C   UNL     1      32.884 -14.441 -21.592  0.00  0.00    -0.022 C 
ATOM      5  C   UNL     1      33.199 -16.725 -20.870  0.00  0.00    +0.014 C 
ATOM      6  C   UNL     1      32.650 -15.459 -20.668  0.00  0.00    -0.003 C 
ATOM      7  C   UNL     1      32.297 -13.087 -21.375  0.00  0.00    +0.031 C 
ENDROOT
BRANCH   2   8
ATOM      8  N   UNL     1      34.530 -18.261 -22.187  0.00  0.00    -0.310 N 
ATOM      9  H   UNL     1      34.555 -18.547 -23.128  0.00  0.00    +0.152 HD
BRANCH   8  12
ATOM     10 CL   UNL     1      32.499 -20.096 -20.859  0.00  0.00    -0.081 Cl
ATOM     11  F   UNL     1      37.243 -18.412 -21.707  0.00  0.00    -0.203 F 
ATOM     12  C   UNL     1      35.046 -19.217 -21.292  0.00  0.00    +0.087 C 
ATOM     13  C   UNL     1      34.210 -20.114 -20.622  0.00  0.00    +0.073 C 
ATOM     14  C   UNL     1      36.426 -19.265 -21.073  0.00  0.00    +0.154 C 
ATOM     15  C   UNL     1      34.749 -21.052 -19.740  0.00  0.00    +0.013 C 
ATOM     16  C   UNL     1      36.965 -20.202 -20.191  0.00  0.00    +0.031 C 
ATOM     17  C   UNL     1      36.126 -21.095 -19.525  0.00  0.00    +0.003 C 
ENDBRANCH   8  12
ENDBRANCH   2   8
BRANCH   1  18
ATOM     18  C   UNL     1      35.050 -16.195 -24.139  0.00  0.00    +0.137 C 
BRANCH  18  20
ATOM     19  O   UNL     1      33.813 -15.808 -26.200  0.00  0.00    -0.250 OA
ATOM     20  C   UNL     1      34.240 -16.586 -25.357  0.00  0.00    +0.318 C 
BRANCH  20  21
ATOM     21  O   UNL     1      34.033 -17.928 -25.415  0.00  0.00    -0.480 OA
ATOM     22  H   UNL     1      34.460 -18.440 -26.073  0.00  0.00    +0.295 HD
ENDBRANCH  20  21
ENDBRANCH  18  20
ENDBRANCH   1  18
TORSDOF 5
ENDMDL
MODEL 2
REMARK VINA RESULT:      -9.1      1.671      2.012
REMARK  Name = 151166
REMARK  5 active torsions:
REMARK  status: ('A' for Active; 'I' for Inactive)
REMARK    1  A    between atoms: C_1  and  C_18
REMARK    2  A    between atoms: C_2  and  N_8
REMARK    3  A    between atoms: N_8  and  C_12
REMARK    4  A    between atoms: C_18  and  C_20
REMARK    5  A    between atoms: C_20  and  O_21
REMARK                            x       y       z     vdW  Elec       q    Type
REMARK                         _______ _______ _______ _____ _____    ______ ____
ROOT
ATOM      1  C   UNL     1      34.257 -16.142 -22.820  0.00  0.00    +0.002 C 
ATOM      2  C   UNL     1      33.949 -17.130 -21.884  0.00  0.00    +0.045 C 
ATOM      3  C   UNL     1      33.750 -14.853 -22.665  0.00  0.00    -0.007 C 
ATOM      4  C   UNL     1      32.935 -14.549 -21.574  0.00  0.00    -0.022 C 
ATOM      5  C   UNL     1      33.134 -16.827 -20.794  0.00  0.00    +0.014 C 
ATOM      6  C   UNL     1      32.627 -15.538 -20.639  0.00  0.00    -0.003 C 
ATOM      7  C   UNL     1      32.392 -13.170 -21.408  0.00  0.00    +0.031 C 
ENDROOT
BRANCH   2   8
ATOM      8  N   UNL     1      34.453 -18.441 -22.026  0.00  0.00    -0.310 N 
ATOM      9  H   UNL     1      34.758 -18.653 -22.937  0.00  0.00    +0.152 HD
BRANCH   8  12
ATOM     10 CL   UNL     1      37.298 -19.066 -21.147  0.00  0.00    -0.081 Cl
ATOM     11  F   UNL     1      32.253 -19.844 -21.129  0.00  0.00    -0.203 F 
ATOM     12  C   UNL     1      34.605 -19.506 -21.117  0.00  0.00    +0.087 C 
ATOM     13  C   UNL     1      35.863 -19.885 -20.642  0.00  0.00    +0.073 C 
ATOM     14  C   UNL     1      33.468 -20.194 -20.684  0.00  0.00    +0.154 C 
ATOM     15  C   UNL     1      35.985 -20.944 -19.742  0.00  0.00    +0.013 C 
ATOM     16  C   UNL     1      33.589 -21.253 -19.784  0.00  0.00    +0.031 C 
ATOM     17  C   UNL     1      34.847 -21.628 -19.314  0.00  0.00    +0.003 C 
ENDBRANCH   8  12
ENDBRANCH   2   8
BRANCH   1  18
ATOM     18  C   UNL     1      35.126 -16.440 -23.998  0.00  0.00    +0.137 C 
BRANCH  18  20
ATOM     19  O   UNL     1      33.998 -15.947 -26.099  0.00  0.00    -0.250 OA
ATOM     20  C   UNL     1      34.347 -16.762 -25.256  0.00  0.00    +0.318 C 
BRANCH  20  21
ATOM     21  O   UNL     1      34.069 -18.089 -25.351  0.00  0.00    -0.480 OA
ATOM     22  H   UNL     1      34.726 -18.722 -25.140  0.00  0.00    +0.295 HD
ENDBRANCH  20  21
ENDBRANCH  18  20
ENDBRANCH   1  18
TORSDOF 5
ENDMDL
MODEL 3
REMARK VINA RESULT:      -9.1      2.155      3.196
REMARK  Name = 151166
REMARK  5 active torsions:
REMARK  status: ('A' for Active; 'I' for Inactive)
REMARK    1  A    between atoms: C_1  and  C_18
REMARK    2  A    between atoms: C_2  and  N_8
REMARK    3  A    between atoms: N_8  and  C_12
REMARK    4  A    between atoms: C_18  and  C_20
REMARK    5  A    between atoms: C_20  and  O_21
REMARK                            x       y       z     vdW  Elec       q    Type
REMARK                         _______ _______ _______ _____ _____    ______ ____
ROOT
ATOM      1  C   UNL     1      34.465 -16.293 -22.202  0.00  0.00    +0.002 C 
ATOM      2  C   UNL     1      34.957 -17.598 -22.213  0.00  0.00    +0.045 C 
ATOM      3  C   UNL     1      34.053 -15.692 -23.390  0.00  0.00    -0.007 C 
ATOM      4  C   UNL     1      34.135 -16.395 -24.593  0.00  0.00    -0.022 C 
ATOM      5  C   UNL     1      35.039 -18.301 -23.415  0.00  0.00    +0.014 C 
ATOM      6  C   UNL     1      34.627 -17.700 -24.604  0.00  0.00    -0.003 C 
ATOM      7  C   UNL     1      33.695 -15.753 -25.865  0.00  0.00    +0.031 C 
ENDROOT
BRANCH   2   8
ATOM      8  N   UNL     1      35.378 -18.222 -21.019  0.00  0.00    -0.310 N 
ATOM      9  H   UNL     1      35.844 -17.617 -20.398  0.00  0.00    +0.152 HD
BRANCH   8  12
ATOM     10 CL   UNL     1      32.549 -19.281 -20.657  0.00  0.00    -0.081 Cl
ATOM     11  F   UNL     1      37.632 -19.714 -20.464  0.00  0.00    -0.203 F 
ATOM     12  C   UNL     1      35.263 -19.542 -20.543  0.00  0.00    +0.087 C 
ATOM     13  C   UNL     1      34.016 -20.137 -20.337  0.00  0.00    +0.073 C 
ATOM     14  C   UNL     1      36.427 -20.269 -20.272  0.00  0.00    +0.154 C 
ATOM     15  C   UNL     1      33.931 -21.447 -19.865  0.00  0.00    +0.013 C 
ATOM     16  C   UNL     1      36.342 -21.578 -19.800  0.00  0.00    +0.031 C 
ATOM     17  C   UNL     1      35.094 -22.167 -19.596  0.00  0.00    +0.003 C 
ENDBRANCH   8  12
ENDBRANCH   2   8
BRANCH   1  18
ATOM     18  C   UNL     1      34.368 -15.516 -20.929  0.00  0.00    +0.137 C 
BRANCH  18  20
ATOM     19  O   UNL     1      32.699 -13.776 -20.591  0.00  0.00    -0.250 OA
ATOM     20  C   UNL     1      32.983 -14.964 -20.663  0.00  0.00    +0.318 C 
BRANCH  20  21
ATOM     21  O   UNL     1      32.066 -15.955 -20.511  0.00  0.00    -0.480 OA
ATOM     22  H   UNL     1      31.411 -15.890 -19.845  0.00  0.00    +0.295 HD
ENDBRANCH  20  21
ENDBRANCH  18  20
ENDBRANCH   1  18
TORSDOF 5
ENDMDL
MODEL 4
REMARK VINA RESULT:      -8.8      2.657      3.799
REMARK  Name = 151166
REMARK  5 active torsions:
REMARK  status: ('A' for Active; 'I' for Inactive)
REMARK    1  A    between atoms: C_1  and  C_18
REMARK    2  A    between atoms: C_2  and  N_8
REMARK    3  A    between atoms: N_8  and  C_12
REMARK    4  A    between atoms: C_18  and  C_20
REMARK    5  A    between atoms: C_20  and  O_21
REMARK                            x       y       z     vdW  Elec       q    Type
REMARK                         _______ _______ _______ _____ _____    ______ ____
ROOT
ATOM      1  C   UNL     1      34.372 -16.462 -22.194  0.00  0.00    +0.002 C 
ATOM      2  C   UNL     1      34.862 -17.767 -22.259  0.00  0.00    +0.045 C 
ATOM      3  C   UNL     1      34.013 -15.793 -23.363  0.00  0.00    -0.007 C 
ATOM      4  C   UNL     1      34.145 -16.427 -24.599  0.00  0.00    -0.022 C 
ATOM      5  C   UNL     1      34.994 -18.401 -23.495  0.00  0.00    +0.014 C 
ATOM      6  C   UNL     1      34.635 -17.731 -24.664  0.00  0.00    -0.003 C 
ATOM      7  C   UNL     1      33.761 -15.711 -25.850  0.00  0.00    +0.031 C 
ENDROOT
BRANCH   2   8
ATOM      8  N   UNL     1      35.231 -18.460 -21.086  0.00  0.00    -0.310 N 
ATOM      9  H   UNL     1      35.910 -17.994 -20.547  0.00  0.00    +0.152 HD
BRANCH   8  12
ATOM     10 CL   UNL     1      37.442 -20.368 -20.236  0.00  0.00    -0.081 Cl
ATOM     11  F   UNL     1      32.547 -19.043 -20.819  0.00  0.00    -0.203 F 
ATOM     12  C   UNL     1      34.817 -19.688 -20.536  0.00  0.00    +0.087 C 
ATOM     13  C   UNL     1      35.741 -20.644 -20.109  0.00  0.00    +0.073 C 
ATOM     14  C   UNL     1      33.448 -19.949 -20.416  0.00  0.00    +0.154 C 
ATOM     15  C   UNL     1      35.303 -21.853 -19.568  0.00  0.00    +0.013 C 
ATOM     16  C   UNL     1      33.010 -21.158 -19.874  0.00  0.00    +0.031 C 
ATOM     17  C   UNL     1      33.938 -22.109 -19.450  0.00  0.00    +0.003 C 
ENDBRANCH   8  12
ENDBRANCH   2   8
BRANCH   1  18
ATOM     18  C   UNL     1      34.223 -15.759 -20.884  0.00  0.00    +0.137 C 
BRANCH  18  20
ATOM     19  O   UNL     1      31.842 -16.043 -20.460  0.00  0.00    -0.250 OA
ATOM     20  C   UNL     1      32.806 -15.303 -20.603  0.00  0.00    +0.318 C 
BRANCH  20  21
ATOM     21  O   UNL     1      32.718 -13.949 -20.525  0.00  0.00    -0.480 OA
ATOM     22  H   UNL     1      31.971 -13.550 -20.125  0.00  0.00    +0.295 HD
ENDBRANCH  20  21
ENDBRANCH  18  20
ENDBRANCH   1  18
TORSDOF 5
ENDMDL
MODEL 5
REMARK VINA RESULT:      -8.7      5.286      7.429
REMARK  Name = 151166
REMARK  5 active torsions:
REMARK  status: ('A' for Active; 'I' for Inactive)
REMARK    1  A    between atoms: C_1  and  C_18
REMARK    2  A    between atoms: C_2  and  N_8
REMARK    3  A    between atoms: N_8  and  C_12
REMARK    4  A    between atoms: C_18  and  C_20
REMARK    5  A    between atoms: C_20  and  O_21
REMARK                            x       y       z     vdW  Elec       q    Type
REMARK                         _______ _______ _______ _____ _____    ______ ____
ROOT
ATOM      1  C   UNL     1      32.527  -9.657 -22.242  0.00  0.00    +0.002 C 
ATOM      2  C   UNL     1      32.766 -10.821 -22.974  0.00  0.00    +0.045 C 
ATOM      3  C   UNL     1      33.205  -8.481 -22.560  0.00  0.00    -0.007 C 
ATOM      4  C   UNL     1      34.124  -8.468 -23.610  0.00  0.00    -0.022 C 
ATOM      5  C   UNL     1      33.685 -10.807 -24.023  0.00  0.00    +0.014 C 
ATOM      6  C   UNL     1      34.363  -9.631 -24.341  0.00  0.00    -0.003 C 
ATOM      7  C   UNL     1      34.850  -7.210 -23.950  0.00  0.00    +0.031 C 
ENDROOT
BRANCH   2   8
ATOM      8  N   UNL     1      32.088 -12.020 -22.666  0.00  0.00    -0.310 N 
ATOM      9  H   UNL     1      31.113 -11.967 -22.788  0.00  0.00    +0.152 HD
BRANCH   8  12
ATOM     10 CL   UNL     1      33.052 -13.950 -24.811  0.00  0.00    -0.081 Cl
ATOM     11  F   UNL     1      32.066 -12.639 -19.977  0.00  0.00    -0.203 F 
ATOM     12  C   UNL     1      32.535 -13.278 -22.217  0.00  0.00    +0.087 C 
ATOM     13  C   UNL     1      33.001 -14.247 -23.110  0.00  0.00    +0.073 C 
ATOM     14  C   UNL     1      32.509 -13.557 -20.847  0.00  0.00    +0.154 C 
ATOM     15  C   UNL     1      33.437 -15.485 -22.638  0.00  0.00    +0.013 C 
ATOM     16  C   UNL     1      32.946 -14.795 -20.376  0.00  0.00    +0.031 C 
ATOM     17  C   UNL     1      33.410 -15.758 -21.271  0.00  0.00    +0.003 C 
ENDBRANCH   8  12
ENDBRANCH   2   8
BRANCH   1  18
ATOM     18  C   UNL     1      31.549  -9.644 -21.112  0.00  0.00    +0.137 C 
BRANCH  18  20
ATOM     19  O   UNL     1      31.950  -7.750 -19.636  0.00  0.00    -0.250 OA
ATOM     20  C   UNL     1      32.069  -8.944 -19.874  0.00  0.00    +0.318 C 
BRANCH  20  21
ATOM     21  O   UNL     1      32.698  -9.807 -19.033  0.00  0.00    -0.480 OA
ATOM     22  H   UNL     1      32.972 -10.647 -19.343  0.00  0.00    +0.295 HD
ENDBRANCH  20  21
ENDBRANCH  18  20
ENDBRANCH   1  18
TORSDOF 5
ENDMDL
MODEL 6
REMARK VINA RESULT:      -8.6      4.526      6.500
REMARK  Name = 151166
REMARK  5 active torsions:
REMARK  status: ('A' for Active; 'I' for Inactive)
REMARK    1  A    between atoms: C_1  and  C_18
REMARK    2  A    between atoms: C_2  and  N_8
REMARK    3  A    between atoms: N_8  and  C_12
REMARK    4  A    between atoms: C_18  and  C_20
REMARK    5  A    between atoms: C_20  and  O_21
REMARK                            x       y       z     vdW  Elec       q    Type
REMARK                         _______ _______ _______ _____ _____    ______ ____
ROOT
ATOM      1  C   UNL     1      32.436 -10.764 -22.845  0.00  0.00    +0.002 C 
ATOM      2  C   UNL     1      33.149 -11.730 -23.556  0.00  0.00    +0.045 C 
ATOM      3  C   UNL     1      32.835  -9.429 -22.891  0.00  0.00    -0.007 C 
ATOM      4  C   UNL     1      33.947  -9.058 -23.646  0.00  0.00    -0.022 C 
ATOM      5  C   UNL     1      34.261 -11.359 -24.312  0.00  0.00    +0.014 C 
ATOM      6  C   UNL     1      34.660 -10.024 -24.357  0.00  0.00    -0.003 C 
ATOM      7  C   UNL     1      34.375  -7.630 -23.695  0.00  0.00    +0.031 C 
ENDROOT
BRANCH   2   8
ATOM      8  N   UNL     1      32.759 -13.086 -23.522  0.00  0.00    -0.310 N 
ATOM      9  H   UNL     1      31.815 -13.221 -23.280  0.00  0.00    +0.152 HD
BRANCH   8  12
ATOM     10 CL   UNL     1      32.498 -14.251 -26.320  0.00  0.00    -0.081 Cl
ATOM     11  F   UNL     1      34.264 -14.261 -21.530  0.00  0.00    -0.203 F 
ATOM     12  C   UNL     1      33.457 -14.284 -23.765  0.00  0.00    +0.087 C 
ATOM     13  C   UNL     1      33.414 -14.913 -25.012  0.00  0.00    +0.073 C 
ATOM     14  C   UNL     1      34.210 -14.851 -22.732  0.00  0.00    +0.154 C 
ATOM     15  C   UNL     1      34.116 -16.099 -25.226  0.00  0.00    +0.013 C 
ATOM     16  C   UNL     1      34.912 -16.037 -22.946  0.00  0.00    +0.031 C 
ATOM     17  C   UNL     1      34.865 -16.661 -24.193  0.00  0.00    +0.003 C 
ENDBRANCH   8  12
ENDBRANCH   2   8
BRANCH   1  18
ATOM     18  C   UNL     1      31.242 -11.133 -22.027  0.00  0.00    +0.137 C 
BRANCH  18  20
ATOM     19  O   UNL     1      31.427 -10.500 -19.683  0.00  0.00    -0.250 OA
ATOM     20  C   UNL     1      31.558 -11.343 -20.560  0.00  0.00    +0.318 C 
BRANCH  20  21
ATOM     21  O   UNL     1      32.014 -12.600 -20.317  0.00  0.00    -0.480 OA
ATOM     22  H   UNL     1      32.934 -12.774 -20.324  0.00  0.00    +0.295 HD
ENDBRANCH  20  21
ENDBRANCH  18  20
ENDBRANCH   1  18
TORSDOF 5
ENDMDL
MODEL 7
REMARK VINA RESULT:      -8.6      3.923      7.215
REMARK  Name = 151166
REMARK  5 active torsions:
REMARK  status: ('A' for Active; 'I' for Inactive)
REMARK    1  A    between atoms: C_1  and  C_18
REMARK    2  A    between atoms: C_2  and  N_8
REMARK    3  A    between atoms: N_8  and  C_12
REMARK    4  A    between atoms: C_18  and  C_20
REMARK    5  A    between atoms: C_20  and  O_21
REMARK                            x       y       z     vdW  Elec       q    Type
REMARK                         _______ _______ _______ _____ _____    ______ ____
ROOT
ATOM      1  C   UNL     1      33.555 -14.280 -23.347  0.00  0.00    +0.002 C 
ATOM      2  C   UNL     1      32.756 -13.580 -22.443  0.00  0.00    +0.045 C 
ATOM      3  C   UNL     1      34.250 -15.415 -22.931  0.00  0.00    -0.007 C 
ATOM      4  C   UNL     1      34.147 -15.851 -21.609  0.00  0.00    -0.022 C 
ATOM      5  C   UNL     1      32.653 -14.016 -21.121  0.00  0.00    +0.014 C 
ATOM      6  C   UNL     1      33.347 -15.151 -20.705  0.00  0.00    -0.003 C 
ATOM      7  C   UNL     1      34.890 -17.064 -21.163  0.00  0.00    +0.031 C 
ENDROOT
BRANCH   2   8
ATOM      8  N   UNL     1      32.045 -12.430 -22.847  0.00  0.00    -0.310 N 
ATOM      9  H   UNL     1      31.243 -12.627 -23.382  0.00  0.00    +0.152 HD
BRANCH   8  12
ATOM     10 CL   UNL     1      30.708 -11.221 -20.396  0.00  0.00    -0.081 Cl
ATOM     11  F   UNL     1      33.603 -10.969 -24.594  0.00  0.00    -0.203 F 
ATOM     12  C   UNL     1      32.260 -11.055 -22.635  0.00  0.00    +0.087 C 
ATOM     13  C   UNL     1      31.698 -10.389 -21.543  0.00  0.00    +0.073 C 
ATOM     14  C   UNL     1      33.055 -10.346 -23.540  0.00  0.00    +0.154 C 
ATOM     15  C   UNL     1      31.927  -9.025 -21.357  0.00  0.00    +0.013 C 
ATOM     16  C   UNL     1      33.285  -8.982 -23.354  0.00  0.00    +0.031 C 
ATOM     17  C   UNL     1      32.721  -8.323 -22.263  0.00  0.00    +0.003 C 
ENDBRANCH   8  12
ENDBRANCH   2   8
BRANCH   1  18
ATOM     18  C   UNL     1      33.685 -13.835 -24.767  0.00  0.00    +0.137 C 
BRANCH  18  20
ATOM     19  O   UNL     1      33.915 -15.898 -26.039  0.00  0.00    -0.250 OA
ATOM     20  C   UNL     1      33.273 -14.892 -25.770  0.00  0.00    +0.318 C 
BRANCH  20  21
ATOM     21  O   UNL     1      32.083 -14.596 -26.355  0.00  0.00    -0.480 OA
ATOM     22  H   UNL     1      31.699 -13.750 -26.236  0.00  0.00    +0.295 HD
ENDBRANCH  20  21
ENDBRANCH  18  20
ENDBRANCH   1  18
TORSDOF 5
ENDMDL
MODEL 8
REMARK VINA RESULT:      -8.6      2.876      3.733
REMARK  Name = 151166
REMARK  5 active torsions:
REMARK  status: ('A' for Active; 'I' for Inactive)
REMARK    1  A    between atoms: C_1  and  C_18
REMARK    2  A    between atoms: C_2  and  N_8
REMARK    3  A    between atoms: N_8  and  C_12
REMARK    4  A    between atoms: C_18  and  C_20
REMARK    5  A    between atoms: C_20  and  O_21
REMARK                            x       y       z     vdW  Elec       q    Type
REMARK                         _______ _______ _______ _____ _____    ______ ____
ROOT
ATOM      1  C   UNL     1      33.095 -13.292 -23.121  0.00  0.00    +0.002 C 
ATOM      2  C   UNL     1      33.677 -14.194 -22.230  0.00  0.00    +0.045 C 
ATOM      3  C   UNL     1      32.126 -12.395 -22.672  0.00  0.00    -0.007 C 
ATOM      4  C   UNL     1      31.737 -12.400 -21.333  0.00  0.00    -0.022 C 
ATOM      5  C   UNL     1      33.288 -14.198 -20.890  0.00  0.00    +0.014 C 
ATOM      6  C   UNL     1      32.319 -13.302 -20.442  0.00  0.00    -0.003 C 
ATOM      7  C   UNL     1      30.700 -11.442 -20.853  0.00  0.00    +0.031 C 
ENDROOT
BRANCH   2   8
ATOM      8  N   UNL     1      34.660 -15.108 -22.666  0.00  0.00    -0.310 N 
ATOM      9  H   UNL     1      35.448 -14.680 -23.071  0.00  0.00    +0.152 HD
BRANCH   8  12
ATOM     10 CL   UNL     1      34.286 -16.532 -25.328  0.00  0.00    -0.081 Cl
ATOM     11  F   UNL     1      35.119 -16.438 -20.292  0.00  0.00    -0.203 F 
ATOM     12  C   UNL     1      34.733 -16.514 -22.636  0.00  0.00    +0.087 C 
ATOM     13  C   UNL     1      34.577 -17.276 -23.796  0.00  0.00    +0.073 C 
ATOM     14  C   UNL     1      34.967 -17.154 -21.415  0.00  0.00    +0.154 C 
ATOM     15  C   UNL     1      34.654 -18.668 -23.738  0.00  0.00    +0.013 C 
ATOM     16  C   UNL     1      35.044 -18.546 -21.357  0.00  0.00    +0.031 C 
ATOM     17  C   UNL     1      34.887 -19.302 -22.518  0.00  0.00    +0.003 C 
ENDBRANCH   8  12
ENDBRANCH   2   8
BRANCH   1  18
ATOM     18  C   UNL     1      33.492 -13.266 -24.561  0.00  0.00    +0.137 C 
BRANCH  18  20
ATOM     19  O   UNL     1      34.018 -11.500 -26.153  0.00  0.00    -0.250 OA
ATOM     20  C   UNL     1      34.051 -11.931 -25.008  0.00  0.00    +0.318 C 
BRANCH  20  21
ATOM     21  O   UNL     1      34.607 -11.246 -23.975  0.00  0.00    -0.480 OA
ATOM     22  H   UNL     1      34.925 -10.375 -24.106  0.00  0.00    +0.295 HD
ENDBRANCH  20  21
ENDBRANCH  18  20
ENDBRANCH   1  18
TORSDOF 5
ENDMDL
MODEL 9
REMARK VINA RESULT:      -8.6      4.693      6.686
REMARK  Name = 151166
REMARK  5 active torsions:
REMARK  status: ('A' for Active; 'I' for Inactive)
REMARK    1  A    between atoms: C_1  and  C_18
REMARK    2  A    between atoms: C_2  and  N_8
REMARK    3  A    between atoms: N_8  and  C_12
REMARK    4  A    between atoms: C_18  and  C_20
REMARK    5  A    between atoms: C_20  and  O_21
REMARK                            x       y       z     vdW  Elec       q    Type
REMARK                         _______ _______ _______ _____ _____    ______ ____
ROOT
ATOM      1  C   UNL     1      32.382 -10.732 -22.853  0.00  0.00    +0.002 C 
ATOM      2  C   UNL     1      33.120 -11.705 -23.527  0.00  0.00    +0.045 C 
ATOM      3  C   UNL     1      32.777  -9.396 -22.905  0.00  0.00    -0.007 C 
ATOM      4  C   UNL     1      33.911  -9.031 -23.631  0.00  0.00    -0.022 C 
ATOM      5  C   UNL     1      34.255 -11.341 -24.252  0.00  0.00    +0.014 C 
ATOM      6  C   UNL     1      34.650 -10.005 -24.305  0.00  0.00    -0.003 C 
ATOM      7  C   UNL     1      34.335  -7.603 -23.687  0.00  0.00    +0.031 C 
ENDROOT
BRANCH   2   8
ATOM      8  N   UNL     1      32.735 -13.062 -23.485  0.00  0.00    -0.310 N 
ATOM      9  H   UNL     1      31.855 -13.212 -23.069  0.00  0.00    +0.152 HD
BRANCH   8  12
ATOM     10 CL   UNL     1      34.497 -14.480 -21.450  0.00  0.00    -0.081 Cl
ATOM     11  F   UNL     1      32.348 -13.989 -26.055  0.00  0.00    -0.203 F 
ATOM     12  C   UNL     1      33.363 -14.244 -23.921  0.00  0.00    +0.087 C 
ATOM     13  C   UNL     1      34.195 -14.982 -23.076  0.00  0.00    +0.073 C 
ATOM     14  C   UNL     1      33.144 -14.685 -25.230  0.00  0.00    +0.154 C 
ATOM     15  C   UNL     1      34.805 -16.150 -23.534  0.00  0.00    +0.013 C 
ATOM     16  C   UNL     1      33.753 -15.853 -25.688  0.00  0.00    +0.031 C 
ATOM     17  C   UNL     1      34.584 -16.585 -24.840  0.00  0.00    +0.003 C 
ENDBRANCH   8  12
ENDBRANCH   2   8
BRANCH   1  18
ATOM     18  C   UNL     1      31.164 -11.095 -22.067  0.00  0.00    +0.137 C 
BRANCH  18  20
ATOM     19  O   UNL     1      32.037 -12.503 -20.283  0.00  0.00    -0.250 OA
ATOM     20  C   UNL     1      31.465 -11.480 -20.633  0.00  0.00    +0.318 C 
BRANCH  20  21
ATOM     21  O   UNL     1      31.020 -10.543 -19.755  0.00  0.00    -0.480 OA
ATOM     22  H   UNL     1      30.395  -9.902 -20.030  0.00  0.00    +0.295 HD
ENDBRANCH  20  21
ENDBRANCH  18  20
ENDBRANCH   1  18
TORSDOF 5
ENDMDL
