MODEL 1
REMARK VINA RESULT:      -8.6      0.000      0.000
REMARK  Name = 71496458
REMARK  9 active torsions:
REMARK  status: ('A' for Active; 'I' for Inactive)
REMARK    1  A    between atoms: C_1  and  N_33
REMARK    2  A    between atoms: C_2  and  N_26
REMARK    3  A    between atoms: C_4  and  N_7
REMARK    4  A    between atoms: C_5  and  O_31
REMARK    5  A    between atoms: C_10  and  C_18
REMARK    6  A    between atoms: C_27  and  C_29
REMARK    7  A    between atoms: N_33  and  C_35
REMARK    8  A    between atoms: C_35  and  C_36
REMARK    9  A    between atoms: C_36  and  N_37
REMARK                            x       y       z     vdW  Elec       q    Type
REMARK                         _______ _______ _______ _____ _____    ______ ____
ROOT
ATOM      1  C   UNL     1      32.914 -12.323 -23.271  0.00  0.00    +0.065 C 
ATOM      2  C   UNL     1      33.281 -11.083 -23.795  0.00  0.00    +0.065 C 
ATOM      3  C   UNL     1      32.067 -12.390 -22.165  0.00  0.00    +0.054 C 
ATOM      4  C   UNL     1      31.953  -9.978 -22.106  0.00  0.00    +0.093 C 
ATOM      5  C   UNL     1      31.586 -11.217 -21.583  0.00  0.00    +0.154 C 
ATOM      6  C   UNL     1      32.800  -9.911 -23.213  0.00  0.00    +0.034 C 
ENDROOT
BRANCH   4   7
ATOM      7  N   UNL     1      31.476  -8.787 -21.528  0.00  0.00    -0.244 N 
ATOM      8  N   UNL     1      32.168  -7.186 -23.097  0.00  0.00    -0.337 NA
ATOM      9  N   UNL     1      30.961  -6.534 -21.116  0.00  0.00    -0.170 NA
ATOM     10  C   UNL     1      32.209  -5.885 -23.455  0.00  0.00    +0.147 C 
ATOM     11  C   UNL     1      31.537  -7.435 -21.934  0.00  0.00    +0.149 C 
ATOM     12  C   UNL     1      31.656  -4.866 -22.706  0.00  0.00    +0.055 C 
ATOM     13  C   UNL     1      31.039  -5.255 -21.534  0.00  0.00    +0.114 C 
ATOM     14  H   UNL     1      31.006  -8.922 -20.673  0.00  0.00    +0.165 HD
BRANCH  10  18
ATOM     15  N   UNL     1      34.415  -5.739 -26.286  0.00  0.00    -0.284 N 
ATOM     16  C   UNL     1      32.534  -4.680 -25.723  0.00  0.00    +0.017 C 
ATOM     17  C   UNL     1      33.514  -4.787 -26.711  0.00  0.00    +0.052 C 
ATOM     18  C   UNL     1      32.877  -5.598 -24.692  0.00  0.00    +0.047 C 
ATOM     19  C   UNL     1      34.037  -6.234 -25.067  0.00  0.00    +0.068 C 
ATOM     20  C   UNL     1      31.480  -3.763 -25.910  0.00  0.00    +0.001 C 
ATOM     21  C   UNL     1      33.494  -4.022 -27.883  0.00  0.00    +0.015 C 
ATOM     22  C   UNL     1      35.592  -6.165 -27.011  0.00  0.00    +0.117 C 
ATOM     23  C   UNL     1      31.446  -2.991 -27.078  0.00  0.00    +0.000 C 
ATOM     24  C   UNL     1      32.439  -3.120 -28.047  0.00  0.00    +0.001 C 
ENDBRANCH  10  18
ENDBRANCH   4   7
BRANCH   2  26
ATOM     25  O   UNL     1      35.610  -9.260 -24.313  0.00  0.00    -0.270 OA
ATOM     26  N   UNL     1      34.129 -10.991 -24.902  0.00  0.00    -0.279 N 
ATOM     27  C   UNL     1      35.206 -10.116 -25.091  0.00  0.00    +0.250 C 
ATOM     28  H   UNL     1      33.947 -11.617 -25.639  0.00  0.00    +0.155 HD
BRANCH  27  29
ATOM     29  C   UNL     1      35.863 -10.334 -26.412  0.00  0.00    +0.058 C 
ATOM     30  C   UNL     1      35.401 -11.261 -27.256  0.00  0.00    +0.005 C 
ENDBRANCH  27  29
ENDBRANCH   2  26
BRANCH   5  31
ATOM     31  O   UNL     1      30.759 -11.304 -20.502  0.00  0.00    -0.470 OA
ATOM     32  C   UNL     1      31.363 -11.198 -19.215  0.00  0.00    +0.253 C 
ENDBRANCH   5  31
BRANCH   1  33
ATOM     33  N   UNL     1      33.389 -13.524 -23.846  0.00  0.00    -0.307 N 
ATOM     34  C   UNL     1      32.838 -14.005 -25.096  0.00  0.00    +0.112 C 
BRANCH  33  35
ATOM     35  C   UNL     1      34.438 -14.281 -23.194  0.00  0.00    +0.068 C 
BRANCH  35  36
ATOM     36  C   UNL     1      34.072 -15.760 -23.189  0.00  0.00    -0.056 C 
BRANCH  36  37
ATOM     37  N   UNL     1      35.170 -16.555 -23.727  0.00  0.00    +0.385 N 
ATOM     38  C   UNL     1      35.517 -17.642 -22.810  0.00  0.00    -0.101 C 
ATOM     39  C   UNL     1      34.820 -17.094 -25.043  0.00  0.00    -0.101 C 
ATOM     40  H   UNL     1      35.982 -15.946 -23.831  0.00  0.00    -0.080 HD
ENDBRANCH  36  37
ENDBRANCH  35  36
ENDBRANCH  33  35
ENDBRANCH   1  33
TORSDOF 9
ENDMDL
MODEL 2
REMARK VINA RESULT:      -8.5      2.082      3.398
REMARK  Name = 71496458
REMARK  9 active torsions:
REMARK  status: ('A' for Active; 'I' for Inactive)
REMARK    1  A    between atoms: C_1  and  N_33
REMARK    2  A    between atoms: C_2  and  N_26
REMARK    3  A    between atoms: C_4  and  N_7
REMARK    4  A    between atoms: C_5  and  O_31
REMARK    5  A    between atoms: C_10  and  C_18
REMARK    6  A    between atoms: C_27  and  C_29
REMARK    7  A    between atoms: N_33  and  C_35
REMARK    8  A    between atoms: C_35  and  C_36
REMARK    9  A    between atoms: C_36  and  N_37
REMARK                            x       y       z     vdW  Elec       q    Type
REMARK                         _______ _______ _______ _____ _____    ______ ____
ROOT
ATOM      1  C   UNL     1      33.322 -14.532 -23.847  0.00  0.00    +0.065 C 
ATOM      2  C   UNL     1      33.324 -13.136 -23.836  0.00  0.00    +0.065 C 
ATOM      3  C   UNL     1      32.880 -15.236 -22.727  0.00  0.00    +0.054 C 
ATOM      4  C   UNL     1      32.444 -13.151 -21.586  0.00  0.00    +0.093 C 
ATOM      5  C   UNL     1      32.441 -14.545 -21.597  0.00  0.00    +0.154 C 
ATOM      6  C   UNL     1      32.885 -12.446 -22.708  0.00  0.00    +0.034 C 
ENDROOT
BRANCH   4   7
ATOM      7  N   UNL     1      32.005 -12.442 -20.453  0.00  0.00    -0.244 N 
ATOM      8  N   UNL     1      32.200 -10.219 -21.178  0.00  0.00    -0.337 NA
ATOM      9  N   UNL     1      31.403 -10.732 -18.962  0.00  0.00    -0.170 NA
ATOM     10  C   UNL     1      32.051  -8.909 -20.888  0.00  0.00    +0.147 C 
ATOM     11  C   UNL     1      31.862 -11.062 -20.184  0.00  0.00    +0.149 C 
ATOM     12  C   UNL     1      31.590  -8.440 -19.675  0.00  0.00    +0.055 C 
ATOM     13  C   UNL     1      31.278  -9.407 -18.741  0.00  0.00    +0.114 C 
ATOM     14  H   UNL     1      31.747 -13.020 -19.699  0.00  0.00    +0.165 HD
BRANCH  10  18
ATOM     15  N   UNL     1      33.522  -7.180 -23.672  0.00  0.00    -0.284 N 
ATOM     16  C   UNL     1      31.828  -6.742 -22.287  0.00  0.00    +0.017 C 
ATOM     17  C   UNL     1      32.546  -6.253 -23.380  0.00  0.00    +0.052 C 
ATOM     18  C   UNL     1      32.406  -7.993 -21.933  0.00  0.00    +0.047 C 
ATOM     19  C   UNL     1      33.445  -8.235 -22.802  0.00  0.00    +0.068 C 
ATOM     20  C   UNL     1      30.759  -5.976 -21.779  0.00  0.00    +0.001 C 
ATOM     21  C   UNL     1      32.248  -5.031 -23.994  0.00  0.00    +0.015 C 
ATOM     22  C   UNL     1      34.493  -7.070 -24.738  0.00  0.00    +0.117 C 
ATOM     23  C   UNL     1      30.449  -4.752 -22.384  0.00  0.00    +0.000 C 
ATOM     24  C   UNL     1      31.184  -4.289 -23.474  0.00  0.00    +0.001 C 
ENDBRANCH  10  18
ENDBRANCH   4   7
BRANCH   2  26
ATOM     25  O   UNL     1      34.932 -10.605 -23.991  0.00  0.00    -0.270 OA
ATOM     26  N   UNL     1      33.763 -12.409 -24.947  0.00  0.00    -0.279 N 
ATOM     27  C   UNL     1      34.514 -11.228 -24.960  0.00  0.00    +0.250 C 
ATOM     28  H   UNL     1      33.512 -12.771 -25.827  0.00  0.00    +0.155 HD
BRANCH  27  29
ATOM     29  C   UNL     1      34.779 -10.762 -26.352  0.00  0.00    +0.058 C 
ATOM     30  C   UNL     1      35.993 -10.328 -26.704  0.00  0.00    +0.005 C 
ENDBRANCH  27  29
ENDBRANCH   2  26
BRANCH   5  31
ATOM     31  O   UNL     1      32.014 -15.252 -20.512  0.00  0.00    -0.470 OA
ATOM     32  C   UNL     1      31.994 -16.672 -20.632  0.00  0.00    +0.253 C 
ENDBRANCH   5  31
BRANCH   1  33
ATOM     33  N   UNL     1      33.761 -15.251 -24.981  0.00  0.00    -0.307 N 
ATOM     34  C   UNL     1      32.997 -15.216 -26.210  0.00  0.00    +0.112 C 
BRANCH  33  35
ATOM     35  C   UNL     1      34.984 -16.024 -24.927  0.00  0.00    +0.068 C 
BRANCH  35  36
ATOM     36  C   UNL     1      34.650 -17.510 -24.894  0.00  0.00    -0.056 C 
BRANCH  36  37
ATOM     37  N   UNL     1      35.465 -18.191 -23.896  0.00  0.00    +0.385 N 
ATOM     38  C   UNL     1      35.643 -17.347 -22.713  0.00  0.00    -0.101 C 
ATOM     39  C   UNL     1      34.858 -19.470 -23.521  0.00  0.00    -0.101 C 
ATOM     40  H   UNL     1      36.381 -18.374 -24.305  0.00  0.00    -0.080 HD
ENDBRANCH  36  37
ENDBRANCH  35  36
ENDBRANCH  33  35
ENDBRANCH   1  33
TORSDOF 9
ENDMDL
MODEL 3
REMARK VINA RESULT:      -8.2      8.247     15.637
REMARK  Name = 71496458
REMARK  9 active torsions:
REMARK  status: ('A' for Active; 'I' for Inactive)
REMARK    1  A    between atoms: C_1  and  N_33
REMARK    2  A    between atoms: C_2  and  N_26
REMARK    3  A    between atoms: C_4  and  N_7
REMARK    4  A    between atoms: C_5  and  O_31
REMARK    5  A    between atoms: C_10  and  C_18
REMARK    6  A    between atoms: C_27  and  C_29
REMARK    7  A    between atoms: N_33  and  C_35
REMARK    8  A    between atoms: C_35  and  C_36
REMARK    9  A    between atoms: C_36  and  N_37
REMARK                            x       y       z     vdW  Elec       q    Type
REMARK                         _______ _______ _______ _____ _____    ______ ____
ROOT
ATOM      1  C   UNL     1      34.849 -20.042 -21.113  0.00  0.00    +0.065 C 
ATOM      2  C   UNL     1      33.674 -19.403 -20.713  0.00  0.00    +0.065 C 
ATOM      3  C   UNL     1      35.139 -21.324 -20.646  0.00  0.00    +0.054 C 
ATOM      4  C   UNL     1      33.082 -21.328 -19.378  0.00  0.00    +0.093 C 
ATOM      5  C   UNL     1      34.255 -21.967 -19.779  0.00  0.00    +0.154 C 
ATOM      6  C   UNL     1      32.791 -20.046 -19.846  0.00  0.00    +0.034 C 
ENDROOT
BRANCH   4   7
ATOM      7  N   UNL     1      32.183 -21.965 -18.503  0.00  0.00    -0.244 N 
ATOM      8  N   UNL     1      33.625 -22.746 -16.825  0.00  0.00    -0.337 NA
ATOM      9  N   UNL     1      31.252 -23.148 -16.702  0.00  0.00    -0.170 NA
ATOM     10  C   UNL     1      33.760 -23.410 -15.658  0.00  0.00    +0.147 C 
ATOM     11  C   UNL     1      32.362 -22.654 -17.283  0.00  0.00    +0.149 C 
ATOM     12  C   UNL     1      32.703 -23.963 -14.964  0.00  0.00    +0.055 C 
ATOM     13  C   UNL     1      31.460 -23.799 -15.539  0.00  0.00    +0.114 C 
ATOM     14  H   UNL     1      31.245 -21.922 -18.799  0.00  0.00    +0.165 HD
BRANCH  10  18
ATOM     15  N   UNL     1      37.318 -23.554 -15.184  0.00  0.00    -0.284 N 
ATOM     16  C   UNL     1      35.558 -23.756 -13.828  0.00  0.00    +0.017 C 
ATOM     17  C   UNL     1      36.953 -23.772 -13.874  0.00  0.00    +0.052 C 
ATOM     18  C   UNL     1      35.098 -23.520 -15.153  0.00  0.00    +0.047 C 
ATOM     19  C   UNL     1      36.203 -23.400 -15.964  0.00  0.00    +0.068 C 
ATOM     20  C   UNL     1      34.918 -23.958 -12.588  0.00  0.00    +0.001 C 
ATOM     21  C   UNL     1      37.745 -23.982 -12.739  0.00  0.00    +0.015 C 
ATOM     22  C   UNL     1      38.676 -23.491 -15.679  0.00  0.00    +0.117 C 
ATOM     23  C   UNL     1      35.697 -24.168 -11.444  0.00  0.00    +0.000 C 
ATOM     24  C   UNL     1      37.088 -24.179 -11.521  0.00  0.00    +0.001 C 
ENDBRANCH  10  18
ENDBRANCH   4   7
BRANCH   2  26
ATOM     25  O   UNL     1      35.001 -16.767 -20.154  0.00  0.00    -0.270 OA
ATOM     26  N   UNL     1      33.362 -18.118 -21.167  0.00  0.00    -0.279 N 
ATOM     27  C   UNL     1      34.020 -16.918 -20.872  0.00  0.00    +0.250 C 
ATOM     28  H   UNL     1      32.585 -18.049 -21.767  0.00  0.00    +0.155 HD
BRANCH  27  29
ATOM     29  C   UNL     1      33.376 -15.759 -21.556  0.00  0.00    +0.058 C 
ATOM     30  C   UNL     1      32.758 -14.810 -20.846  0.00  0.00    +0.005 C 
ENDBRANCH  27  29
ENDBRANCH   2  26
BRANCH   5  31
ATOM     31  O   UNL     1      34.557 -23.220 -19.333  0.00  0.00    -0.470 OA
ATOM     32  C   UNL     1      34.154 -24.313 -20.154  0.00  0.00    +0.253 C 
ENDBRANCH   5  31
BRANCH   1  33
ATOM     33  N   UNL     1      35.757 -19.409 -21.991  0.00  0.00    -0.307 N 
ATOM     34  C   UNL     1      37.019 -18.900 -21.497  0.00  0.00    +0.112 C 
BRANCH  33  35
ATOM     35  C   UNL     1      35.437 -19.272 -23.397  0.00  0.00    +0.068 C 
BRANCH  35  36
ATOM     36  C   UNL     1      35.517 -17.804 -23.799  0.00  0.00    -0.056 C 
BRANCH  36  37
ATOM     37  N   UNL     1      34.843 -17.591 -25.073  0.00  0.00    +0.385 N 
ATOM     38  C   UNL     1      33.852 -18.641 -25.316  0.00  0.00    -0.101 C 
ATOM     39  C   UNL     1      34.203 -16.273 -25.103  0.00  0.00    -0.101 C 
ATOM     40  H   UNL     1      35.543 -17.628 -25.813  0.00  0.00    -0.080 HD
ENDBRANCH  36  37
ENDBRANCH  35  36
ENDBRANCH  33  35
ENDBRANCH   1  33
TORSDOF 9
ENDMDL
MODEL 4
REMARK VINA RESULT:      -8.1      1.726      8.450
REMARK  Name = 71496458
REMARK  9 active torsions:
REMARK  status: ('A' for Active; 'I' for Inactive)
REMARK    1  A    between atoms: C_1  and  N_33
REMARK    2  A    between atoms: C_2  and  N_26
REMARK    3  A    between atoms: C_4  and  N_7
REMARK    4  A    between atoms: C_5  and  O_31
REMARK    5  A    between atoms: C_10  and  C_18
REMARK    6  A    between atoms: C_27  and  C_29
REMARK    7  A    between atoms: N_33  and  C_35
REMARK    8  A    between atoms: C_35  and  C_36
REMARK    9  A    between atoms: C_36  and  N_37
REMARK                            x       y       z     vdW  Elec       q    Type
REMARK                         _______ _______ _______ _____ _____    ______ ____
ROOT
ATOM      1  C   UNL     1      33.169  -6.457 -24.380  0.00  0.00    +0.065 C 
ATOM      2  C   UNL     1      33.660  -7.714 -24.027  0.00  0.00    +0.065 C 
ATOM      3  C   UNL     1      32.251  -5.809 -23.553  0.00  0.00    +0.054 C 
ATOM      4  C   UNL     1      32.316  -7.677 -22.020  0.00  0.00    +0.093 C 
ATOM      5  C   UNL     1      31.826  -6.420 -22.372  0.00  0.00    +0.154 C 
ATOM      6  C   UNL     1      33.235  -8.324 -22.848  0.00  0.00    +0.034 C 
ENDROOT
BRANCH   4   7
ATOM      7  N   UNL     1      31.894  -8.304 -20.833  0.00  0.00    -0.244 N 
ATOM      8  N   UNL     1      32.222 -10.569 -21.350  0.00  0.00    -0.337 NA
ATOM      9  N   UNL     1      31.355  -9.903 -19.202  0.00  0.00    -0.170 NA
ATOM     10  C   UNL     1      32.138 -11.853 -20.944  0.00  0.00    +0.147 C 
ATOM     11  C   UNL     1      31.820  -9.659 -20.442  0.00  0.00    +0.149 C 
ATOM     12  C   UNL     1      31.680 -12.235 -19.700  0.00  0.00    +0.055 C 
ATOM     13  C   UNL     1      31.299 -11.207 -18.862  0.00  0.00    +0.114 C 
ATOM     14  H   UNL     1      31.591  -7.675 -20.139  0.00  0.00    +0.165 HD
BRANCH  10  18
ATOM     15  N   UNL     1      32.813 -13.826 -23.869  0.00  0.00    -0.284 N 
ATOM     16  C   UNL     1      33.305 -14.036 -21.703  0.00  0.00    +0.017 C 
ATOM     17  C   UNL     1      33.449 -14.636 -22.956  0.00  0.00    +0.052 C 
ATOM     18  C   UNL     1      32.561 -12.839 -21.897  0.00  0.00    +0.047 C 
ATOM     19  C   UNL     1      32.274 -12.737 -23.238  0.00  0.00    +0.068 C 
ATOM     20  C   UNL     1      33.871 -14.669 -20.578  0.00  0.00    +0.001 C 
ATOM     21  C   UNL     1      34.133 -15.843 -23.141  0.00  0.00    +0.015 C 
ATOM     22  C   UNL     1      32.720 -14.074 -25.292  0.00  0.00    +0.117 C 
ATOM     23  C   UNL     1      34.559 -15.876 -20.749  0.00  0.00    +0.000 C 
ATOM     24  C   UNL     1      34.687 -16.452 -22.011  0.00  0.00    +0.001 C 
ENDBRANCH  10  18
ENDBRANCH   4   7
BRANCH   2  26
ATOM     25  O   UNL     1      34.461 -10.608 -24.088  0.00  0.00    -0.270 OA
ATOM     26  N   UNL     1      34.580  -8.382 -24.841  0.00  0.00    -0.279 N 
ATOM     27  C   UNL     1      34.915  -9.741 -24.826  0.00  0.00    +0.250 C 
ATOM     28  H   UNL     1      35.050  -7.829 -25.506  0.00  0.00    +0.155 HD
BRANCH  27  29
ATOM     29  C   UNL     1      35.945 -10.064 -25.855  0.00  0.00    +0.058 C 
ATOM     30  C   UNL     1      35.629 -10.802 -26.924  0.00  0.00    +0.005 C 
ENDBRANCH  27  29
ENDBRANCH   2  26
BRANCH   5  31
ATOM     31  O   UNL     1      30.928  -5.771 -21.577  0.00  0.00    -0.470 OA
ATOM     32  C   UNL     1      30.432  -4.520 -22.047  0.00  0.00    +0.253 C 
ENDBRANCH   5  31
BRANCH   1  33
ATOM     33  N   UNL     1      33.588  -5.820 -25.570  0.00  0.00    -0.307 N 
ATOM     34  C   UNL     1      34.965  -5.920 -26.008  0.00  0.00    +0.112 C 
BRANCH  33  35
ATOM     35  C   UNL     1      32.642  -5.068 -26.368  0.00  0.00    +0.068 C 
BRANCH  35  36
ATOM     36  C   UNL     1      33.392  -4.082 -27.256  0.00  0.00    -0.056 C 
BRANCH  36  37
ATOM     37  N   UNL     1      32.980  -4.236 -28.645  0.00  0.00    +0.385 N 
ATOM     38  C   UNL     1      31.986  -3.222 -29.004  0.00  0.00    -0.101 C 
ATOM     39  C   UNL     1      34.137  -4.151 -29.538  0.00  0.00    -0.101 C 
ATOM     40  H   UNL     1      32.556  -5.157 -28.750  0.00  0.00    -0.080 HD
ENDBRANCH  36  37
ENDBRANCH  35  36
ENDBRANCH  33  35
ENDBRANCH   1  33
TORSDOF 9
ENDMDL
MODEL 5
REMARK VINA RESULT:      -7.8      1.659      2.772
REMARK  Name = 71496458
REMARK  9 active torsions:
REMARK  status: ('A' for Active; 'I' for Inactive)
REMARK    1  A    between atoms: C_1  and  N_33
REMARK    2  A    between atoms: C_2  and  N_26
REMARK    3  A    between atoms: C_4  and  N_7
REMARK    4  A    between atoms: C_5  and  O_31
REMARK    5  A    between atoms: C_10  and  C_18
REMARK    6  A    between atoms: C_27  and  C_29
REMARK    7  A    between atoms: N_33  and  C_35
REMARK    8  A    between atoms: C_35  and  C_36
REMARK    9  A    between atoms: C_36  and  N_37
REMARK                            x       y       z     vdW  Elec       q    Type
REMARK                         _______ _______ _______ _____ _____    ______ ____
ROOT
ATOM      1  C   UNL     1      33.065 -13.479 -24.148  0.00  0.00    +0.065 C 
ATOM      2  C   UNL     1      33.413 -12.128 -24.168  0.00  0.00    +0.065 C 
ATOM      3  C   UNL     1      32.491 -14.034 -23.004  0.00  0.00    +0.054 C 
ATOM      4  C   UNL     1      32.615 -11.888 -21.900  0.00  0.00    +0.093 C 
ATOM      5  C   UNL     1      32.266 -13.238 -21.880  0.00  0.00    +0.154 C 
ATOM      6  C   UNL     1      33.188 -11.332 -23.045  0.00  0.00    +0.034 C 
ENDROOT
BRANCH   4   7
ATOM      7  N   UNL     1      32.394 -11.075 -20.773  0.00  0.00    -0.244 N 
ATOM      8  N   UNL     1      32.235  -8.946 -21.747  0.00  0.00    -0.337 NA
ATOM      9  N   UNL     1      32.017  -9.235 -19.365  0.00  0.00    -0.170 NA
ATOM     10  C   UNL     1      32.052  -7.621 -21.565  0.00  0.00    +0.147 C 
ATOM     11  C   UNL     1      32.205  -9.683 -20.621  0.00  0.00    +0.149 C 
ATOM     12  C   UNL     1      31.848  -7.038 -20.332  0.00  0.00    +0.055 C 
ATOM     13  C   UNL     1      31.840  -7.903 -19.256  0.00  0.00    +0.114 C 
ATOM     14  H   UNL     1      32.365 -11.573 -19.924  0.00  0.00    +0.165 HD
BRANCH  10  18
ATOM     15  N   UNL     1      31.366  -5.384 -24.291  0.00  0.00    -0.284 N 
ATOM     16  C   UNL     1      33.098  -6.676 -23.737  0.00  0.00    +0.017 C 
ATOM     17  C   UNL     1      32.625  -5.772 -24.690  0.00  0.00    +0.052 C 
ATOM     18  C   UNL     1      32.080  -6.818 -22.754  0.00  0.00    +0.047 C 
ATOM     19  C   UNL     1      31.028  -6.011 -23.122  0.00  0.00    +0.068 C 
ATOM     20  C   UNL     1      34.381  -7.234 -23.908  0.00  0.00    +0.001 C 
ATOM     21  C   UNL     1      33.374  -5.395 -25.811  0.00  0.00    +0.015 C 
ATOM     22  C   UNL     1      30.512  -4.451 -24.993  0.00  0.00    +0.117 C 
ATOM     23  C   UNL     1      35.142  -6.865 -25.025  0.00  0.00    +0.000 C 
ATOM     24  C   UNL     1      34.644  -5.960 -25.959  0.00  0.00    +0.001 C 
ENDBRANCH  10  18
ENDBRANCH   4   7
BRANCH   2  26
ATOM     25  O   UNL     1      35.753 -10.262 -24.424  0.00  0.00    -0.270 OA
ATOM     26  N   UNL     1      33.990 -11.549 -25.302  0.00  0.00    -0.279 N 
ATOM     27  C   UNL     1      35.087 -10.681 -25.363  0.00  0.00    +0.250 C 
ATOM     28  H   UNL     1      33.573 -11.780 -26.164  0.00  0.00    +0.155 HD
BRANCH  27  29
ATOM     29  C   UNL     1      35.394 -10.284 -26.767  0.00  0.00    +0.058 C 
ATOM     30  C   UNL     1      35.909 -11.169 -27.627  0.00  0.00    +0.005 C 
ENDBRANCH  27  29
ENDBRANCH   2  26
BRANCH   5  31
ATOM     31  O   UNL     1      31.705 -13.800 -20.772  0.00  0.00    -0.470 OA
ATOM     32  C   UNL     1      32.399 -14.894 -20.178  0.00  0.00    +0.253 C 
ENDBRANCH   5  31
BRANCH   1  33
ATOM     33  N   UNL     1      33.283 -14.302 -25.275  0.00  0.00    -0.307 N 
ATOM     34  C   UNL     1      33.294 -13.732 -26.606  0.00  0.00    +0.112 C 
BRANCH  33  35
ATOM     35  C   UNL     1      33.505 -15.724 -25.109  0.00  0.00    +0.068 C 
BRANCH  35  36
ATOM     36  C   UNL     1      34.991 -16.029 -25.256  0.00  0.00    -0.056 C 
BRANCH  36  37
ATOM     37  N   UNL     1      35.417 -16.976 -24.233  0.00  0.00    +0.385 N 
ATOM     38  C   UNL     1      35.107 -16.464 -22.896  0.00  0.00    -0.101 C 
ATOM     39  C   UNL     1      34.778 -18.278 -24.438  0.00  0.00    -0.101 C 
ATOM     40  H   UNL     1      36.426 -17.093 -24.310  0.00  0.00    -0.080 HD
ENDBRANCH  36  37
ENDBRANCH  35  36
ENDBRANCH  33  35
ENDBRANCH   1  33
TORSDOF 9
ENDMDL
MODEL 6
REMARK VINA RESULT:      -7.5      1.977      8.929
REMARK  Name = 71496458
REMARK  9 active torsions:
REMARK  status: ('A' for Active; 'I' for Inactive)
REMARK    1  A    between atoms: C_1  and  N_33
REMARK    2  A    between atoms: C_2  and  N_26
REMARK    3  A    between atoms: C_4  and  N_7
REMARK    4  A    between atoms: C_5  and  O_31
REMARK    5  A    between atoms: C_10  and  C_18
REMARK    6  A    between atoms: C_27  and  C_29
REMARK    7  A    between atoms: N_33  and  C_35
REMARK    8  A    between atoms: C_35  and  C_36
REMARK    9  A    between atoms: C_36  and  N_37
REMARK                            x       y       z     vdW  Elec       q    Type
REMARK                         _______ _______ _______ _____ _____    ______ ____
ROOT
ATOM      1  C   UNL     1      33.339  -5.971 -25.295  0.00  0.00    +0.065 C 
ATOM      2  C   UNL     1      32.160  -5.590 -24.653  0.00  0.00    +0.065 C 
ATOM      3  C   UNL     1      34.093  -7.032 -24.796  0.00  0.00    +0.054 C 
ATOM      4  C   UNL     1      32.491  -7.332 -23.012  0.00  0.00    +0.093 C 
ATOM      5  C   UNL     1      33.669  -7.713 -23.654  0.00  0.00    +0.154 C 
ATOM      6  C   UNL     1      31.736  -6.270 -23.512  0.00  0.00    +0.034 C 
ENDROOT
BRANCH   4   7
ATOM      7  N   UNL     1      32.053  -8.009 -21.859  0.00  0.00    -0.244 N 
ATOM      8  N   UNL     1      32.419 -10.249 -22.455  0.00  0.00    -0.337 NA
ATOM      9  N   UNL     1      31.501  -9.677 -20.302  0.00  0.00    -0.170 NA
ATOM     10  C   UNL     1      32.343 -11.549 -22.100  0.00  0.00    +0.147 C 
ATOM     11  C   UNL     1      31.988  -9.379 -21.522  0.00  0.00    +0.149 C 
ATOM     12  C   UNL     1      31.865 -11.984 -20.882  0.00  0.00    +0.055 C 
ATOM     13  C   UNL     1      31.454 -10.993 -20.013  0.00  0.00    +0.114 C 
ATOM     14  H   UNL     1      31.728  -7.411 -21.148  0.00  0.00    +0.165 HD
BRANCH  10  18
ATOM     15  N   UNL     1      33.198 -13.346 -25.091  0.00  0.00    -0.284 N 
ATOM     16  C   UNL     1      33.422 -13.758 -22.910  0.00  0.00    +0.017 C 
ATOM     17  C   UNL     1      33.663 -14.273 -24.186  0.00  0.00    +0.052 C 
ATOM     18  C   UNL     1      32.797 -12.492 -23.082  0.00  0.00    +0.047 C 
ATOM     19  C   UNL     1      32.674 -12.266 -24.433  0.00  0.00    +0.068 C 
ATOM     20  C   UNL     1      33.806 -14.520 -21.788  0.00  0.00    +0.001 C 
ATOM     21  C   UNL     1      34.271 -15.516 -24.397  0.00  0.00    +0.015 C 
ATOM     22  C   UNL     1      33.251 -13.477 -26.531  0.00  0.00    +0.117 C 
ATOM     23  C   UNL     1      34.416 -15.765 -21.984  0.00  0.00    +0.000 C 
ATOM     24  C   UNL     1      34.644 -16.253 -23.269  0.00  0.00    +0.001 C 
ENDBRANCH  10  18
ENDBRANCH   4   7
BRANCH   2  26
ATOM     25  O   UNL     1      31.612  -2.887 -23.465  0.00  0.00    -0.270 OA
ATOM     26  N   UNL     1      31.388  -4.529 -25.135  0.00  0.00    -0.279 N 
ATOM     27  C   UNL     1      31.166  -3.284 -24.535  0.00  0.00    +0.250 C 
ATOM     28  H   UNL     1      30.945  -4.676 -26.002  0.00  0.00    +0.155 HD
BRANCH  27  29
ATOM     29  C   UNL     1      30.278  -2.424 -25.370  0.00  0.00    +0.058 C 
ATOM     30  C   UNL     1      30.761  -1.786 -26.440  0.00  0.00    +0.005 C 
ENDBRANCH  27  29
ENDBRANCH   2  26
BRANCH   5  31
ATOM     31  O   UNL     1      34.421  -8.747 -23.181  0.00  0.00    -0.470 OA
ATOM     32  C   UNL     1      35.170  -9.493 -24.137  0.00  0.00    +0.253 C 
ENDBRANCH   5  31
BRANCH   1  33
ATOM     33  N   UNL     1      33.786  -5.296 -26.453  0.00  0.00    -0.307 N 
ATOM     34  C   UNL     1      35.203  -5.146 -26.712  0.00  0.00    +0.112 C 
BRANCH  33  35
ATOM     35  C   UNL     1      32.831  -4.755 -27.398  0.00  0.00    +0.068 C 
BRANCH  35  36
ATOM     36  C   UNL     1      33.424  -3.528 -28.079  0.00  0.00    -0.056 C 
BRANCH  36  37
ATOM     37  N   UNL     1      33.104  -3.533 -29.501  0.00  0.00    +0.385 N 
ATOM     38  C   UNL     1      32.650  -4.860 -29.923  0.00  0.00    -0.101 C 
ATOM     39  C   UNL     1      32.081  -2.529 -29.802  0.00  0.00    -0.101 C 
ATOM     40  H   UNL     1      33.951  -3.300 -30.018  0.00  0.00    -0.080 HD
ENDBRANCH  36  37
ENDBRANCH  35  36
ENDBRANCH  33  35
ENDBRANCH   1  33
TORSDOF 9
ENDMDL
MODEL 7
REMARK VINA RESULT:      -7.3      2.123      9.571
REMARK  Name = 71496458
REMARK  9 active torsions:
REMARK  status: ('A' for Active; 'I' for Inactive)
REMARK    1  A    between atoms: C_1  and  N_33
REMARK    2  A    between atoms: C_2  and  N_26
REMARK    3  A    between atoms: C_4  and  N_7
REMARK    4  A    between atoms: C_5  and  O_31
REMARK    5  A    between atoms: C_10  and  C_18
REMARK    6  A    between atoms: C_27  and  C_29
REMARK    7  A    between atoms: N_33  and  C_35
REMARK    8  A    between atoms: C_35  and  C_36
REMARK    9  A    between atoms: C_36  and  N_37
REMARK                            x       y       z     vdW  Elec       q    Type
REMARK                         _______ _______ _______ _____ _____    ______ ____
ROOT
ATOM      1  C   UNL     1      32.937  -7.808 -22.158  0.00  0.00    +0.065 C 
ATOM      2  C   UNL     1      32.502  -9.133 -22.110  0.00  0.00    +0.065 C 
ATOM      3  C   UNL     1      33.584  -7.328 -23.296  0.00  0.00    +0.054 C 
ATOM      4  C   UNL     1      33.362  -9.497 -24.338  0.00  0.00    +0.093 C 
ATOM      5  C   UNL     1      33.796  -8.173 -24.386  0.00  0.00    +0.154 C 
ATOM      6  C   UNL     1      32.714  -9.977 -23.199  0.00  0.00    +0.034 C 
ENDROOT
BRANCH   4   7
ATOM      7  N   UNL     1      33.571 -10.359 -25.430  0.00  0.00    -0.244 N 
ATOM      8  N   UNL     1      33.574 -12.459 -24.382  0.00  0.00    -0.337 NA
ATOM      9  N   UNL     1      33.886 -12.264 -26.765  0.00  0.00    -0.170 NA
ATOM     10  C   UNL     1      33.686 -13.797 -24.515  0.00  0.00    +0.147 C 
ATOM     11  C   UNL     1      33.682 -11.764 -25.531  0.00  0.00    +0.149 C 
ATOM     12  C   UNL     1      33.894 -14.433 -25.722  0.00  0.00    +0.055 C 
ATOM     13  C   UNL     1      33.986 -13.608 -26.824  0.00  0.00    +0.114 C 
ATOM     14  H   UNL     1      33.656  -9.893 -26.293  0.00  0.00    +0.165 HD
BRANCH  10  18
ATOM     15  N   UNL     1      32.900 -15.085 -21.255  0.00  0.00    -0.284 N 
ATOM     16  C   UNL     1      34.183 -15.789 -22.938  0.00  0.00    +0.017 C 
ATOM     17  C   UNL     1      33.745 -16.098 -21.649  0.00  0.00    +0.052 C 
ATOM     18  C   UNL     1      33.574 -14.557 -23.303  0.00  0.00    +0.047 C 
ATOM     19  C   UNL     1      32.791 -14.149 -22.249  0.00  0.00    +0.068 C 
ATOM     20  C   UNL     1      35.071 -16.675 -23.583  0.00  0.00    +0.001 C 
ATOM     21  C   UNL     1      34.150 -17.253 -20.969  0.00  0.00    +0.015 C 
ATOM     22  C   UNL     1      32.219 -15.006 -19.981  0.00  0.00    +0.117 C 
ATOM     23  C   UNL     1      35.484 -17.834 -22.915  0.00  0.00    +0.000 C 
ATOM     24  C   UNL     1      35.029 -18.116 -21.629  0.00  0.00    +0.001 C 
ENDBRANCH  10  18
ENDBRANCH   4   7
BRANCH   2  26
ATOM     25  O   UNL     1      30.591 -11.433 -21.829  0.00  0.00    -0.270 OA
ATOM     26  N   UNL     1      31.851  -9.637 -20.979  0.00  0.00    -0.279 N 
ATOM     27  C   UNL     1      30.966 -10.719 -20.906  0.00  0.00    +0.250 C 
ATOM     28  H   UNL     1      32.039  -9.174 -20.131  0.00  0.00    +0.155 HD
BRANCH  27  29
ATOM     29  C   UNL     1      30.485 -10.940 -19.512  0.00  0.00    +0.058 C 
ATOM     30  C   UNL     1      31.314 -10.789 -18.475  0.00  0.00    +0.005 C 
ENDBRANCH  27  29
ENDBRANCH   2  26
BRANCH   5  31
ATOM     31  O   UNL     1      34.431  -7.684 -25.489  0.00  0.00    -0.470 OA
ATOM     32  C   UNL     1      34.524  -6.266 -25.609  0.00  0.00    +0.253 C 
ENDBRANCH   5  31
BRANCH   1  33
ATOM     33  N   UNL     1      32.731  -6.935 -21.066  0.00  0.00    -0.307 N 
ATOM     34  C   UNL     1      33.133  -7.326 -19.731  0.00  0.00    +0.112 C 
BRANCH  33  35
ATOM     35  C   UNL     1      32.122  -5.637 -21.273  0.00  0.00    +0.068 C 
BRANCH  35  36
ATOM     36  C   UNL     1      30.745  -5.813 -21.901  0.00  0.00    -0.056 C 
BRANCH  36  37
ATOM     37  N   UNL     1      30.575  -4.888 -23.015  0.00  0.00    +0.385 N 
ATOM     38  C   UNL     1      31.446  -3.722 -22.855  0.00  0.00    -0.101 C 
ATOM     39  C   UNL     1      30.855  -5.558 -24.287  0.00  0.00    -0.101 C 
ATOM     40  H   UNL     1      29.606  -4.572 -23.021  0.00  0.00    -0.080 HD
ENDBRANCH  36  37
ENDBRANCH  35  36
ENDBRANCH  33  35
ENDBRANCH   1  33
TORSDOF 9
ENDMDL
MODEL 8
REMARK VINA RESULT:      -7.0      3.244      6.503
REMARK  Name = 71496458
REMARK  9 active torsions:
REMARK  status: ('A' for Active; 'I' for Inactive)
REMARK    1  A    between atoms: C_1  and  N_33
REMARK    2  A    between atoms: C_2  and  N_26
REMARK    3  A    between atoms: C_4  and  N_7
REMARK    4  A    between atoms: C_5  and  O_31
REMARK    5  A    between atoms: C_10  and  C_18
REMARK    6  A    between atoms: C_27  and  C_29
REMARK    7  A    between atoms: N_33  and  C_35
REMARK    8  A    between atoms: C_35  and  C_36
REMARK    9  A    between atoms: C_36  and  N_37
REMARK                            x       y       z     vdW  Elec       q    Type
REMARK                         _______ _______ _______ _____ _____    ______ ____
ROOT
ATOM      1  C   UNL     1      31.960  -6.065 -23.044  0.00  0.00    +0.065 C 
ATOM      2  C   UNL     1      32.531  -6.379 -24.278  0.00  0.00    +0.065 C 
ATOM      3  C   UNL     1      31.259  -4.870 -22.885  0.00  0.00    +0.054 C 
ATOM      4  C   UNL     1      31.700  -4.303 -25.192  0.00  0.00    +0.093 C 
ATOM      5  C   UNL     1      31.129  -3.989 -23.960  0.00  0.00    +0.154 C 
ATOM      6  C   UNL     1      32.402  -5.499 -25.351  0.00  0.00    +0.034 C 
ENDROOT
BRANCH   4   7
ATOM      7  N   UNL     1      31.577  -3.423 -26.283  0.00  0.00    -0.244 N 
ATOM      8  N   UNL     1      33.708  -3.573 -27.256  0.00  0.00    -0.337 NA
ATOM      9  N   UNL     1      32.012  -2.146 -28.204  0.00  0.00    -0.170 NA
ATOM     10  C   UNL     1      34.541  -3.173 -28.240  0.00  0.00    +0.147 C 
ATOM     11  C   UNL     1      32.477  -3.028 -27.299  0.00  0.00    +0.149 C 
ATOM     12  C   UNL     1      34.187  -2.277 -29.227  0.00  0.00    +0.055 C 
ATOM     13  C   UNL     1      32.897  -1.791 -29.158  0.00  0.00    +0.114 C 
ATOM     14  H   UNL     1      30.691  -3.001 -26.354  0.00  0.00    +0.165 HD
BRANCH  10  18
ATOM     15  N   UNL     1      37.465  -5.237 -28.543  0.00  0.00    -0.284 N 
ATOM     16  C   UNL     1      37.074  -3.206 -27.706  0.00  0.00    +0.017 C 
ATOM     17  C   UNL     1      38.067  -4.163 -27.925  0.00  0.00    +0.052 C 
ATOM     18  C   UNL     1      35.857  -3.742 -28.213  0.00  0.00    +0.047 C 
ATOM     19  C   UNL     1      36.130  -4.991 -28.721  0.00  0.00    +0.068 C 
ATOM     20  C   UNL     1      37.426  -1.994 -27.079  0.00  0.00    +0.001 C 
ATOM     21  C   UNL     1      39.400  -3.969 -27.548  0.00  0.00    +0.015 C 
ATOM     22  C   UNL     1      38.133  -6.454 -28.951  0.00  0.00    +0.117 C 
ATOM     23  C   UNL     1      38.757  -1.786 -26.697  0.00  0.00    +0.000 C 
ATOM     24  C   UNL     1      39.727  -2.759 -26.928  0.00  0.00    +0.001 C 
ENDBRANCH  10  18
ENDBRANCH   4   7
BRANCH   2  26
ATOM     25  O   UNL     1      35.285  -7.165 -23.370  0.00  0.00    -0.270 OA
ATOM     26  N   UNL     1      33.240  -7.570 -24.461  0.00  0.00    -0.279 N 
ATOM     27  C   UNL     1      34.529  -7.883 -24.013  0.00  0.00    +0.250 C 
ATOM     28  H   UNL     1      32.775  -8.275 -24.967  0.00  0.00    +0.155 HD
BRANCH  27  29
ATOM     29  C   UNL     1      34.929  -9.263 -24.415  0.00  0.00    +0.058 C 
ATOM     30  C   UNL     1      34.161 -10.311 -24.100  0.00  0.00    +0.005 C 
ENDBRANCH  27  29
ENDBRANCH   2  26
BRANCH   5  31
ATOM     31  O   UNL     1      30.439  -2.826 -23.784  0.00  0.00    -0.470 OA
ATOM     32  C   UNL     1      30.455  -2.256 -22.477  0.00  0.00    +0.253 C 
ENDBRANCH   5  31
BRANCH   1  33
ATOM     33  N   UNL     1      32.079  -6.943 -21.943  0.00  0.00    -0.307 N 
ATOM     34  C   UNL     1      32.693  -6.494 -20.711  0.00  0.00    +0.112 C 
BRANCH  33  35
ATOM     35  C   UNL     1      31.579  -8.299 -22.034  0.00  0.00    +0.068 C 
BRANCH  35  36
ATOM     36  C   UNL     1      32.237  -9.159 -20.962  0.00  0.00    -0.056 C 
BRANCH  36  37
ATOM     37  N   UNL     1      31.332 -10.221 -20.539  0.00  0.00    +0.385 N 
ATOM     38  C   UNL     1      31.462 -11.389 -21.412  0.00  0.00    -0.101 C 
ATOM     39  C   UNL     1      31.593 -10.596 -19.147  0.00  0.00    -0.101 C 
ATOM     40  H   UNL     1      30.377  -9.870 -20.606  0.00  0.00    -0.080 HD
ENDBRANCH  36  37
ENDBRANCH  35  36
ENDBRANCH  33  35
ENDBRANCH   1  33
TORSDOF 9
ENDMDL
MODEL 9
REMARK VINA RESULT:      -6.4      2.309     10.119
REMARK  Name = 71496458
REMARK  9 active torsions:
REMARK  status: ('A' for Active; 'I' for Inactive)
REMARK    1  A    between atoms: C_1  and  N_33
REMARK    2  A    between atoms: C_2  and  N_26
REMARK    3  A    between atoms: C_4  and  N_7
REMARK    4  A    between atoms: C_5  and  O_31
REMARK    5  A    between atoms: C_10  and  C_18
REMARK    6  A    between atoms: C_27  and  C_29
REMARK    7  A    between atoms: N_33  and  C_35
REMARK    8  A    between atoms: C_35  and  C_36
REMARK    9  A    between atoms: C_36  and  N_37
REMARK                            x       y       z     vdW  Elec       q    Type
REMARK                         _______ _______ _______ _____ _____    ______ ____
ROOT
ATOM      1  C   UNL     1      33.754  -9.514 -23.659  0.00  0.00    +0.065 C 
ATOM      2  C   UNL     1      32.808 -10.487 -23.336  0.00  0.00    +0.065 C 
ATOM      3  C   UNL     1      34.541  -9.659 -24.801  0.00  0.00    +0.054 C 
ATOM      4  C   UNL     1      33.436 -11.750 -25.297  0.00  0.00    +0.093 C 
ATOM      5  C   UNL     1      34.382 -10.778 -25.620  0.00  0.00    +0.154 C 
ATOM      6  C   UNL     1      32.649 -11.604 -24.154  0.00  0.00    +0.034 C 
ENDROOT
BRANCH   4   7
ATOM      7  N   UNL     1      33.266 -12.884 -26.114  0.00  0.00    -0.244 N 
ATOM      8  N   UNL     1      33.788 -14.623 -24.627  0.00  0.00    -0.337 NA
ATOM      9  N   UNL     1      33.163 -15.090 -26.907  0.00  0.00    -0.170 NA
ATOM     10  C   UNL     1      33.918 -15.952 -24.430  0.00  0.00    +0.147 C 
ATOM     11  C   UNL     1      33.412 -14.268 -25.871  0.00  0.00    +0.149 C 
ATOM     12  C   UNL     1      33.691 -16.898 -25.409  0.00  0.00    +0.055 C 
ATOM     13  C   UNL     1      33.312 -16.403 -26.640  0.00  0.00    +0.114 C 
ATOM     14  H   UNL     1      32.991 -12.671 -27.034  0.00  0.00    +0.165 HD
BRANCH  10  18
ATOM     15  N   UNL     1      34.743 -16.166 -20.940  0.00  0.00    -0.284 N 
ATOM     16  C   UNL     1      34.768 -17.615 -22.637  0.00  0.00    +0.017 C 
ATOM     17  C   UNL     1      35.028 -17.472 -21.273  0.00  0.00    +0.052 C 
ATOM     18  C   UNL     1      34.317 -16.351 -23.111  0.00  0.00    +0.047 C 
ATOM     19  C   UNL     1      34.312 -15.482 -22.046  0.00  0.00    +0.068 C 
ATOM     20  C   UNL     1      34.981 -18.870 -23.240  0.00  0.00    +0.001 C 
ATOM     21  C   UNL     1      35.493 -18.526 -20.477  0.00  0.00    +0.015 C 
ATOM     22  C   UNL     1      34.872 -15.587 -19.621  0.00  0.00    +0.117 C 
ATOM     23  C   UNL     1      35.445 -19.934 -22.457  0.00  0.00    +0.000 C 
ATOM     24  C   UNL     1      35.696 -19.762 -21.097  0.00  0.00    +0.001 C 
ENDBRANCH  10  18
ENDBRANCH   4   7
BRANCH   2  26
ATOM     25  O   UNL     1      31.831 -12.574 -21.409  0.00  0.00    -0.270 OA
ATOM     26  N   UNL     1      32.008 -10.363 -22.196  0.00  0.00    -0.279 N 
ATOM     27  C   UNL     1      31.582 -11.377 -21.329  0.00  0.00    +0.250 C 
ATOM     28  H   UNL     1      31.708  -9.452 -21.975  0.00  0.00    +0.155 HD
BRANCH  27  29
ATOM     29  C   UNL     1      30.738 -10.835 -20.225  0.00  0.00    +0.058 C 
ATOM     30  C   UNL     1      31.303 -10.310 -19.133  0.00  0.00    +0.005 C 
ENDBRANCH  27  29
ENDBRANCH   2  26
BRANCH   5  31
ATOM     31  O   UNL     1      35.161 -10.901 -26.733  0.00  0.00    -0.470 OA
ATOM     32  C   UNL     1      36.368 -10.144 -26.765  0.00  0.00    +0.253 C 
ENDBRANCH   5  31
BRANCH   1  33
ATOM     33  N   UNL     1      33.931  -8.373 -22.845  0.00  0.00    -0.307 N 
ATOM     34  C   UNL     1      35.006  -7.441 -23.114  0.00  0.00    +0.112 C 
BRANCH  33  35
ATOM     35  C   UNL     1      33.033  -8.120 -21.737  0.00  0.00    +0.068 C 
BRANCH  35  36
ATOM     36  C   UNL     1      32.438  -6.724 -21.869  0.00  0.00    -0.056 C 
BRANCH  36  37
ATOM     37  N   UNL     1      31.938  -6.512 -23.222  0.00  0.00    +0.385 N 
ATOM     38  C   UNL     1      30.718  -7.289 -23.449  0.00  0.00    -0.101 C 
ATOM     39  C   UNL     1      31.685  -5.089 -23.460  0.00  0.00    -0.101 C 
ATOM     40  H   UNL     1      32.652  -6.829 -23.877  0.00  0.00    -0.080 HD
ENDBRANCH  36  37
ENDBRANCH  35  36
ENDBRANCH  33  35
ENDBRANCH   1  33
TORSDOF 9
ENDMDL
