MODEL 1
REMARK VINA RESULT:      -6.5      0.000      0.000
REMARK  Name = 15624
REMARK  3 active torsions:
REMARK  status: ('A' for Active; 'I' for Inactive)
REMARK    1  A    between atoms: C_1  and  C_9
REMARK    2  A    between atoms: C_2  and  O_7
REMARK    3  A    between atoms: C_9  and  C_10
REMARK                            x       y       z     vdW  Elec       q    Type
REMARK                         _______ _______ _______ _____ _____    ______ ____
ROOT
ATOM      1  C   UNL     1      34.825 -21.184 -19.605  0.00  0.00    +0.016 C 
ATOM      2  C   UNL     1      33.439 -21.090 -19.739  0.00  0.00    +0.130 C 
ATOM      3  C   UNL     1      35.657 -20.384 -20.388  0.00  0.00    -0.001 C 
ATOM      4  C   UNL     1      32.887 -20.195 -20.656  0.00  0.00    +0.036 C 
ATOM      5  C   UNL     1      35.104 -19.489 -21.305  0.00  0.00    -0.000 C 
ATOM      6  C   UNL     1      33.719 -19.394 -21.438  0.00  0.00    +0.003 C 
ENDROOT
BRANCH   2   7
ATOM      7  O   UNL     1      32.611 -21.863 -18.983  0.00  0.00    -0.506 OA
ATOM      8  H   UNL     1      32.915 -22.685 -18.648  0.00  0.00    +0.292 HD
ENDBRANCH   2   7
BRANCH   1   9
ATOM      9  C   UNL     1      35.434 -22.136 -18.630  0.00  0.00    +0.055 C 
BRANCH   9  10
ATOM     10  C   UNL     1      36.698 -21.608 -18.003  0.00  0.00    -0.021 C 
ATOM     11  C   UNL     1      37.103 -21.906 -16.765  0.00  0.00    -0.005 C 
ENDBRANCH   9  10
ENDBRANCH   1   9
TORSDOF 3
ENDMDL
MODEL 2
REMARK VINA RESULT:      -6.5      2.941      4.341
REMARK  Name = 15624
REMARK  3 active torsions:
REMARK  status: ('A' for Active; 'I' for Inactive)
REMARK    1  A    between atoms: C_1  and  C_9
REMARK    2  A    between atoms: C_2  and  O_7
REMARK    3  A    between atoms: C_9  and  C_10
REMARK                            x       y       z     vdW  Elec       q    Type
REMARK                         _______ _______ _______ _____ _____    ______ ____
ROOT
ATOM      1  C   UNL     1      34.915 -18.644 -22.124  0.00  0.00    +0.016 C 
ATOM      2  C   UNL     1      35.073 -17.288 -21.834  0.00  0.00    +0.130 C 
ATOM      3  C   UNL     1      34.747 -19.059 -23.444  0.00  0.00    -0.001 C 
ATOM      4  C   UNL     1      35.064 -16.349 -22.866  0.00  0.00    +0.036 C 
ATOM      5  C   UNL     1      34.737 -18.120 -24.476  0.00  0.00    -0.000 C 
ATOM      6  C   UNL     1      34.897 -16.765 -24.187  0.00  0.00    +0.003 C 
ENDROOT
BRANCH   2   7
ATOM      7  O   UNL     1      35.239 -16.864 -20.550  0.00  0.00    -0.506 OA
ATOM      8  H   UNL     1      34.540 -16.421 -20.110  0.00  0.00    +0.292 HD
ENDBRANCH   2   7
BRANCH   1   9
ATOM      9  C   UNL     1      34.922 -19.663 -21.033  0.00  0.00    +0.055 C 
BRANCH   9  10
ATOM     10  C   UNL     1      33.538 -20.043 -20.574  0.00  0.00    -0.021 C 
ATOM     11  C   UNL     1      33.274 -21.060 -19.749  0.00  0.00    -0.005 C 
ENDBRANCH   9  10
ENDBRANCH   1   9
TORSDOF 3
ENDMDL
MODEL 3
REMARK VINA RESULT:      -6.4      1.485      3.991
REMARK  Name = 15624
REMARK  3 active torsions:
REMARK  status: ('A' for Active; 'I' for Inactive)
REMARK    1  A    between atoms: C_1  and  C_9
REMARK    2  A    between atoms: C_2  and  O_7
REMARK    3  A    between atoms: C_9  and  C_10
REMARK                            x       y       z     vdW  Elec       q    Type
REMARK                         _______ _______ _______ _____ _____    ______ ____
ROOT
ATOM      1  C   UNL     1      34.726 -19.805 -20.772  0.00  0.00    +0.016 C 
ATOM      2  C   UNL     1      33.654 -20.549 -20.278  0.00  0.00    +0.130 C 
ATOM      3  C   UNL     1      36.032 -20.153 -20.430  0.00  0.00    -0.001 C 
ATOM      4  C   UNL     1      33.890 -21.642 -19.443  0.00  0.00    +0.036 C 
ATOM      5  C   UNL     1      36.268 -21.245 -19.595  0.00  0.00    -0.000 C 
ATOM      6  C   UNL     1      35.197 -21.990 -19.102  0.00  0.00    +0.003 C 
ENDROOT
BRANCH   2   7
ATOM      7  O   UNL     1      32.371 -20.224 -20.602  0.00  0.00    -0.506 OA
ATOM      8  H   UNL     1      32.203 -19.625 -21.303  0.00  0.00    +0.292 HD
ENDBRANCH   2   7
BRANCH   1   9
ATOM      9  C   UNL     1      34.493 -18.632 -21.666  0.00  0.00    +0.055 C 
BRANCH   9  10
ATOM     10  C   UNL     1      35.291 -18.697 -22.942  0.00  0.00    -0.021 C 
ATOM     11  C   UNL     1      34.826 -19.190 -24.095  0.00  0.00    -0.005 C 
ENDBRANCH   9  10
ENDBRANCH   1   9
TORSDOF 3
ENDMDL
MODEL 4
REMARK VINA RESULT:      -6.3      2.042      4.488
REMARK  Name = 15624
REMARK  3 active torsions:
REMARK  status: ('A' for Active; 'I' for Inactive)
REMARK    1  A    between atoms: C_1  and  C_9
REMARK    2  A    between atoms: C_2  and  O_7
REMARK    3  A    between atoms: C_9  and  C_10
REMARK                            x       y       z     vdW  Elec       q    Type
REMARK                         _______ _______ _______ _____ _____    ______ ____
ROOT
ATOM      1  C   UNL     1      34.547 -19.909 -20.634  0.00  0.00    +0.016 C 
ATOM      2  C   UNL     1      35.782 -20.374 -20.179  0.00  0.00    +0.130 C 
ATOM      3  C   UNL     1      33.374 -20.561 -20.255  0.00  0.00    -0.001 C 
ATOM      4  C   UNL     1      35.842 -21.490 -19.344  0.00  0.00    +0.036 C 
ATOM      5  C   UNL     1      33.435 -21.678 -19.420  0.00  0.00    -0.000 C 
ATOM      6  C   UNL     1      34.668 -22.142 -18.965  0.00  0.00    +0.003 C 
ENDROOT
BRANCH   2   7
ATOM      7  O   UNL     1      36.938 -19.749 -20.539  0.00  0.00    -0.506 OA
ATOM      8  H   UNL     1      37.095 -18.865 -20.270  0.00  0.00    +0.292 HD
ENDBRANCH   2   7
BRANCH   1   9
ATOM      9  C   UNL     1      34.464 -18.716 -21.528  0.00  0.00    +0.055 C 
BRANCH   9  10
ATOM     10  C   UNL     1      34.587 -19.066 -22.989  0.00  0.00    -0.021 C 
ATOM     11  C   UNL     1      35.248 -18.326 -23.884  0.00  0.00    -0.005 C 
ENDBRANCH   9  10
ENDBRANCH   1   9
TORSDOF 3
ENDMDL
MODEL 5
REMARK VINA RESULT:      -6.3      4.260      5.948
REMARK  Name = 15624
REMARK  3 active torsions:
REMARK  status: ('A' for Active; 'I' for Inactive)
REMARK    1  A    between atoms: C_1  and  C_9
REMARK    2  A    between atoms: C_2  and  O_7
REMARK    3  A    between atoms: C_9  and  C_10
REMARK                            x       y       z     vdW  Elec       q    Type
REMARK                         _______ _______ _______ _____ _____    ______ ____
ROOT
ATOM      1  C   UNL     1      34.695 -17.039 -21.706  0.00  0.00    +0.016 C 
ATOM      2  C   UNL     1      35.112 -16.938 -23.034  0.00  0.00    +0.130 C 
ATOM      3  C   UNL     1      34.341 -18.281 -21.180  0.00  0.00    -0.001 C 
ATOM      4  C   UNL     1      35.176 -18.079 -23.834  0.00  0.00    +0.036 C 
ATOM      5  C   UNL     1      34.405 -19.422 -21.980  0.00  0.00    -0.000 C 
ATOM      6  C   UNL     1      34.823 -19.322 -23.306  0.00  0.00    +0.003 C 
ENDROOT
BRANCH   2   7
ATOM      7  O   UNL     1      35.461 -15.733 -23.566  0.00  0.00    -0.506 OA
ATOM      8  H   UNL     1      35.709 -15.026 -23.001  0.00  0.00    +0.292 HD
ENDBRANCH   2   7
BRANCH   1   9
ATOM      9  C   UNL     1      34.619 -15.828 -20.836  0.00  0.00    +0.055 C 
BRANCH   9  10
ATOM     10  C   UNL     1      33.216 -15.304 -20.677  0.00  0.00    -0.021 C 
ATOM     11  C   UNL     1      32.608 -14.507 -21.561  0.00  0.00    -0.005 C 
ENDBRANCH   9  10
ENDBRANCH   1   9
TORSDOF 3
ENDMDL
MODEL 6
REMARK VINA RESULT:      -6.2      1.931      2.700
REMARK  Name = 15624
REMARK  3 active torsions:
REMARK  status: ('A' for Active; 'I' for Inactive)
REMARK    1  A    between atoms: C_1  and  C_9
REMARK    2  A    between atoms: C_2  and  O_7
REMARK    3  A    between atoms: C_9  and  C_10
REMARK                            x       y       z     vdW  Elec       q    Type
REMARK                         _______ _______ _______ _____ _____    ______ ____
ROOT
ATOM      1  C   UNL     1      34.390 -21.290 -19.644  0.00  0.00    +0.016 C 
ATOM      2  C   UNL     1      35.495 -20.671 -20.230  0.00  0.00    +0.130 C 
ATOM      3  C   UNL     1      33.106 -20.806 -19.894  0.00  0.00    -0.001 C 
ATOM      4  C   UNL     1      35.315 -19.569 -21.065  0.00  0.00    +0.036 C 
ATOM      5  C   UNL     1      32.926 -19.704 -20.730  0.00  0.00    -0.000 C 
ATOM      6  C   UNL     1      34.030 -19.085 -21.316  0.00  0.00    +0.003 C 
ENDROOT
BRANCH   2   7
ATOM      7  O   UNL     1      36.756 -21.130 -19.997  0.00  0.00    -0.506 OA
ATOM      8  H   UNL     1      37.208 -21.615 -20.660  0.00  0.00    +0.292 HD
ENDBRANCH   2   7
BRANCH   1   9
ATOM      9  C   UNL     1      34.563 -22.471 -18.747  0.00  0.00    +0.055 C 
BRANCH   9  10
ATOM     10  C   UNL     1      33.300 -22.846 -18.017  0.00  0.00    -0.021 C 
ATOM     11  C   UNL     1      33.266 -23.299 -16.760  0.00  0.00    -0.005 C 
ENDBRANCH   9  10
ENDBRANCH   1   9
TORSDOF 3
ENDMDL
MODEL 7
REMARK VINA RESULT:      -6.2      2.342      4.479
REMARK  Name = 15624
REMARK  3 active torsions:
REMARK  status: ('A' for Active; 'I' for Inactive)
REMARK    1  A    between atoms: C_1  and  C_9
REMARK    2  A    between atoms: C_2  and  O_7
REMARK    3  A    between atoms: C_9  and  C_10
REMARK                            x       y       z     vdW  Elec       q    Type
REMARK                         _______ _______ _______ _____ _____    ______ ____
ROOT
ATOM      1  C   UNL     1      34.646 -19.255 -20.988  0.00  0.00    +0.016 C 
ATOM      2  C   UNL     1      35.775 -19.927 -20.518  0.00  0.00    +0.130 C 
ATOM      3  C   UNL     1      33.373 -19.757 -20.716  0.00  0.00    -0.001 C 
ATOM      4  C   UNL     1      35.630 -21.099 -19.775  0.00  0.00    +0.036 C 
ATOM      5  C   UNL     1      33.229 -20.929 -19.972  0.00  0.00    -0.000 C 
ATOM      6  C   UNL     1      34.357 -21.599 -19.502  0.00  0.00    +0.003 C 
ENDROOT
BRANCH   2   7
ATOM      7  O   UNL     1      37.026 -19.452 -20.775  0.00  0.00    -0.506 OA
ATOM      8  H   UNL     1      37.666 -19.427 -20.091  0.00  0.00    +0.292 HD
ENDBRANCH   2   7
BRANCH   1   9
ATOM      9  C   UNL     1      34.781 -18.001 -21.785  0.00  0.00    +0.055 C 
BRANCH   9  10
ATOM     10  C   UNL     1      34.930 -16.771 -20.927  0.00  0.00    -0.021 C 
ATOM     11  C   UNL     1      34.130 -15.703 -21.001  0.00  0.00    -0.005 C 
ENDBRANCH   9  10
ENDBRANCH   1   9
TORSDOF 3
ENDMDL
MODEL 8
REMARK VINA RESULT:      -6.1      3.881      5.316
REMARK  Name = 15624
REMARK  3 active torsions:
REMARK  status: ('A' for Active; 'I' for Inactive)
REMARK    1  A    between atoms: C_1  and  C_9
REMARK    2  A    between atoms: C_2  and  O_7
REMARK    3  A    between atoms: C_9  and  C_10
REMARK                            x       y       z     vdW  Elec       q    Type
REMARK                         _______ _______ _______ _____ _____    ______ ____
ROOT
ATOM      1  C   UNL     1      35.057 -17.104 -21.735  0.00  0.00    +0.016 C 
ATOM      2  C   UNL     1      35.084 -16.633 -23.048  0.00  0.00    +0.130 C 
ATOM      3  C   UNL     1      34.667 -16.255 -20.699  0.00  0.00    -0.001 C 
ATOM      4  C   UNL     1      34.720 -15.315 -23.325  0.00  0.00    +0.036 C 
ATOM      5  C   UNL     1      34.303 -14.937 -20.976  0.00  0.00    -0.000 C 
ATOM      6  C   UNL     1      34.329 -14.467 -22.288  0.00  0.00    +0.003 C 
ENDROOT
BRANCH   2   7
ATOM      7  O   UNL     1      35.462 -17.447 -24.073  0.00  0.00    -0.506 OA
ATOM      8  H   UNL     1      35.842 -18.285 -23.890  0.00  0.00    +0.292 HD
ENDBRANCH   2   7
BRANCH   1   9
ATOM      9  C   UNL     1      35.443 -18.511 -21.420  0.00  0.00    +0.055 C 
BRANCH   9  10
ATOM     10  C   UNL     1      34.311 -19.487 -21.604  0.00  0.00    -0.021 C 
ATOM     11  C   UNL     1      33.572 -19.977 -20.604  0.00  0.00    -0.005 C 
ENDBRANCH   9  10
ENDBRANCH   1   9
TORSDOF 3
ENDMDL
MODEL 9
REMARK VINA RESULT:      -6.1     11.204     12.909
REMARK  Name = 15624
REMARK  3 active torsions:
REMARK  status: ('A' for Active; 'I' for Inactive)
REMARK    1  A    between atoms: C_1  and  C_9
REMARK    2  A    between atoms: C_2  and  O_7
REMARK    3  A    between atoms: C_9  and  C_10
REMARK                            x       y       z     vdW  Elec       q    Type
REMARK                         _______ _______ _______ _____ _____    ______ ____
ROOT
ATOM      1  C   UNL     1      32.231  -8.697 -21.608  0.00  0.00    +0.016 C 
ATOM      2  C   UNL     1      32.351  -8.729 -20.218  0.00  0.00    +0.130 C 
ATOM      3  C   UNL     1      31.645  -9.769 -22.281  0.00  0.00    -0.001 C 
ATOM      4  C   UNL     1      31.884  -9.833 -19.503  0.00  0.00    +0.036 C 
ATOM      5  C   UNL     1      31.179 -10.872 -21.566  0.00  0.00    -0.000 C 
ATOM      6  C   UNL     1      31.298 -10.904 -20.178  0.00  0.00    +0.003 C 
ENDROOT
BRANCH   2   7
ATOM      7  O   UNL     1      32.920  -7.692 -19.543  0.00  0.00    -0.506 OA
ATOM      8  H   UNL     1      33.819  -7.474 -19.692  0.00  0.00    +0.292 HD
ENDBRANCH   2   7
BRANCH   1   9
ATOM      9  C   UNL     1      32.725  -7.525 -22.389  0.00  0.00    +0.055 C 
BRANCH   9  10
ATOM     10  C   UNL     1      34.142  -7.694 -22.872  0.00  0.00    -0.021 C 
ATOM     11  C   UNL     1      34.593  -7.247 -24.047  0.00  0.00    -0.005 C 
ENDBRANCH   9  10
ENDBRANCH   1   9
TORSDOF 3
ENDMDL
