MODEL 1
REMARK VINA RESULT:      -7.4      0.000      0.000
REMARK  Name = 24856354
REMARK  8 active torsions:
REMARK  status: ('A' for Active; 'I' for Inactive)
REMARK    1  A    between atoms: N_2  and  C_15
REMARK    2  A    between atoms: C_3  and  C_7
REMARK    3  A    between atoms: C_8  and  C_12
REMARK    4  A    between atoms: C_15  and  C_16
REMARK    5  A    between atoms: C_16  and  C_17
REMARK    6  A    between atoms: C_17  and  C_18
REMARK    7  A    between atoms: C_18  and  N_19
REMARK    8  A    between atoms: N_19  and  C_22
REMARK                            x       y       z     vdW  Elec       q    Type
REMARK                         _______ _______ _______ _____ _____    ______ ____
ROOT
ATOM      1  O   UNL     1      31.591 -22.334 -17.517  0.00  0.00    -0.268 OA
ATOM      2  N   UNL     1      33.683 -22.704 -18.451  0.00  0.00    -0.299 N 
ATOM      3  C   UNL     1      32.736 -22.772 -17.435  0.00  0.00    +0.272 C 
ATOM      4  H   UNL     1      34.576 -23.085 -18.291  0.00  0.00    +0.150 HD
ENDROOT
BRANCH   3   7
ATOM      5  S   UNL     1      33.270 -24.284 -13.790  0.00  0.00    -0.073 S 
ATOM      6  N   UNL     1      34.448 -23.947 -16.066  0.00  0.00    -0.393 NA
ATOM      7  C   UNL     1      33.182 -23.403 -16.166  0.00  0.00    +0.174 C 
ATOM      8  C   UNL     1      34.604 -24.440 -14.857  0.00  0.00    +0.171 C 
ATOM      9  C   UNL     1      32.397 -23.490 -15.035  0.00  0.00    +0.128 C 
BRANCH   8  12
ATOM     10  S   UNL     1      37.811 -25.901 -13.029  0.00  0.00    -0.108 S 
ATOM     11  N   UNL     1      36.641 -25.806 -15.333  0.00  0.00    -0.259 NA
ATOM     12  C   UNL     1      35.864 -25.094 -14.439  0.00  0.00    +0.101 C 
ATOM     13  C   UNL     1      36.335 -25.034 -13.146  0.00  0.00    +0.108 C 
ATOM     14  C   UNL     1      37.692 -26.276 -14.700  0.00  0.00    +0.183 C 
ENDBRANCH   8  12
ENDBRANCH   3   7
BRANCH   2  15
ATOM     15  C   UNL     1      33.409 -22.102 -19.727  0.00  0.00    +0.090 C 
BRANCH  15  16
ATOM     16  C   UNL     1      34.150 -20.782 -19.917  0.00  0.00    +0.023 C 
BRANCH  16  17
ATOM     17  C   UNL     1      35.566 -20.978 -20.471  0.00  0.00    +0.028 C 
BRANCH  17  18
ATOM     18  C   UNL     1      36.634 -20.872 -19.387  0.00  0.00    +0.129 C 
BRANCH  18  19
ATOM     19  N   UNL     1      36.491 -21.979 -18.439  0.00  0.00    -0.240 NA
BRANCH  19  22
ATOM     20  N   UNL     1      37.484 -22.859 -16.437  0.00  0.00    -0.370 N 
ATOM     21  N   UNL     1      37.457 -20.615 -16.835  0.00  0.00    -0.370 N 
ATOM     22  C   UNL     1      37.105 -21.858 -17.304  0.00  0.00    +0.189 C 
ATOM     23  H   UNL     1      37.290 -23.799 -16.655  0.00  0.00    +0.159 HD
ATOM     24  H   UNL     1      37.949 -22.635 -15.599  0.00  0.00    +0.159 HD
ATOM     25  H   UNL     1      37.244 -19.811 -17.361  0.00  0.00    +0.159 HD
ATOM     26  H   UNL     1      37.924 -20.529 -15.971  0.00  0.00    +0.159 HD
ENDBRANCH  19  22
ENDBRANCH  18  19
ENDBRANCH  17  18
ENDBRANCH  16  17
ENDBRANCH  15  16
ENDBRANCH   2  15
TORSDOF 8
ENDMDL
MODEL 2
REMARK VINA RESULT:      -7.4      4.468      7.946
REMARK  Name = 24856354
REMARK  8 active torsions:
REMARK  status: ('A' for Active; 'I' for Inactive)
REMARK    1  A    between atoms: N_2  and  C_15
REMARK    2  A    between atoms: C_3  and  C_7
REMARK    3  A    between atoms: C_8  and  C_12
REMARK    4  A    between atoms: C_15  and  C_16
REMARK    5  A    between atoms: C_16  and  C_17
REMARK    6  A    between atoms: C_17  and  C_18
REMARK    7  A    between atoms: C_18  and  N_19
REMARK    8  A    between atoms: N_19  and  C_22
REMARK                            x       y       z     vdW  Elec       q    Type
REMARK                         _______ _______ _______ _____ _____    ______ ____
ROOT
ATOM      1  O   UNL     1      32.687 -21.700 -19.875  0.00  0.00    -0.268 OA
ATOM      2  N   UNL     1      34.404 -22.398 -18.479  0.00  0.00    -0.299 N 
ATOM      3  C   UNL     1      33.855 -21.630 -19.499  0.00  0.00    +0.272 C 
ATOM      4  H   UNL     1      35.353 -22.268 -18.249  0.00  0.00    +0.150 HD
ENDROOT
BRANCH   3   7
ATOM      5  S   UNL     1      36.841 -19.390 -20.888  0.00  0.00    -0.073 S 
ATOM      6  N   UNL     1      34.308 -19.835 -21.160  0.00  0.00    -0.393 NA
ATOM      7  C   UNL     1      34.780 -20.686 -20.179  0.00  0.00    +0.174 C 
ATOM      8  C   UNL     1      35.307 -19.105 -21.605  0.00  0.00    +0.171 C 
ATOM      9  C   UNL     1      36.126 -20.590 -19.893  0.00  0.00    +0.128 C 
BRANCH   8  12
ATOM     10  S   UNL     1      34.711 -17.008 -24.922  0.00  0.00    -0.108 S 
ATOM     11  N   UNL     1      35.188 -16.739 -22.395  0.00  0.00    -0.259 NA
ATOM     12  C   UNL     1      35.120 -18.092 -22.667  0.00  0.00    +0.101 C 
ATOM     13  C   UNL     1      34.871 -18.431 -23.979  0.00  0.00    +0.108 C 
ATOM     14  C   UNL     1      34.988 -16.072 -23.510  0.00  0.00    +0.183 C 
ENDBRANCH   8  12
ENDBRANCH   3   7
BRANCH   2  15
ATOM     15  C   UNL     1      33.643 -23.371 -17.745  0.00  0.00    +0.090 C 
BRANCH  15  16
ATOM     16  C   UNL     1      33.778 -23.197 -16.236  0.00  0.00    +0.023 C 
BRANCH  16  17
ATOM     17  C   UNL     1      35.186 -23.531 -15.729  0.00  0.00    +0.028 C 
BRANCH  17  18
ATOM     18  C   UNL     1      35.202 -24.760 -14.826  0.00  0.00    +0.129 C 
BRANCH  18  19
ATOM     19  N   UNL     1      35.987 -25.827 -15.453  0.00  0.00    -0.240 NA
BRANCH  19  22
ATOM     20  N   UNL     1      38.370 -25.693 -15.183  0.00  0.00    -0.370 N 
ATOM     21  N   UNL     1      37.117 -27.031 -13.828  0.00  0.00    -0.370 N 
ATOM     22  C   UNL     1      37.105 -26.144 -14.878  0.00  0.00    +0.189 C 
ATOM     23  H   UNL     1      38.500 -25.052 -15.918  0.00  0.00    +0.159 HD
ATOM     24  H   UNL     1      39.145 -26.013 -14.667  0.00  0.00    +0.159 HD
ATOM     25  H   UNL     1      36.276 -27.429 -13.509  0.00  0.00    +0.159 HD
ATOM     26  H   UNL     1      37.970 -27.269 -13.395  0.00  0.00    +0.159 HD
ENDBRANCH  19  22
ENDBRANCH  18  19
ENDBRANCH  17  18
ENDBRANCH  16  17
ENDBRANCH  15  16
ENDBRANCH   2  15
TORSDOF 8
ENDMDL
MODEL 3
REMARK VINA RESULT:      -7.3      3.473      4.161
REMARK  Name = 24856354
REMARK  8 active torsions:
REMARK  status: ('A' for Active; 'I' for Inactive)
REMARK    1  A    between atoms: N_2  and  C_15
REMARK    2  A    between atoms: C_3  and  C_7
REMARK    3  A    between atoms: C_8  and  C_12
REMARK    4  A    between atoms: C_15  and  C_16
REMARK    5  A    between atoms: C_16  and  C_17
REMARK    6  A    between atoms: C_17  and  C_18
REMARK    7  A    between atoms: C_18  and  N_19
REMARK    8  A    between atoms: N_19  and  C_22
REMARK                            x       y       z     vdW  Elec       q    Type
REMARK                         _______ _______ _______ _____ _____    ______ ____
ROOT
ATOM      1  O   UNL     1      33.989 -23.562 -19.359  0.00  0.00    -0.268 OA
ATOM      2  N   UNL     1      33.048 -21.485 -18.932  0.00  0.00    -0.299 N 
ATOM      3  C   UNL     1      33.472 -22.762 -18.583  0.00  0.00    +0.272 C 
ATOM      4  H   UNL     1      32.645 -20.916 -18.237  0.00  0.00    +0.150 HD
ENDROOT
BRANCH   3   7
ATOM      5  S   UNL     1      32.164 -23.713 -14.944  0.00  0.00    -0.073 S 
ATOM      6  N   UNL     1      34.311 -23.535 -16.373  0.00  0.00    -0.393 NA
ATOM      7  C   UNL     1      33.245 -23.165 -17.171  0.00  0.00    +0.174 C 
ATOM      8  C   UNL     1      33.859 -23.845 -15.178  0.00  0.00    +0.171 C 
ATOM      9  C   UNL     1      32.003 -23.198 -16.572  0.00  0.00    +0.128 C 
BRANCH   8  12
ATOM     10  S   UNL     1      36.751 -25.250 -12.851  0.00  0.00    -0.108 S 
ATOM     11  N   UNL     1      34.427 -24.120 -12.762  0.00  0.00    -0.259 NA
ATOM     12  C   UNL     1      34.763 -24.284 -14.092  0.00  0.00    +0.101 C 
ATOM     13  C   UNL     1      35.982 -24.877 -14.338  0.00  0.00    +0.108 C 
ATOM     14  C   UNL     1      35.401 -24.594 -12.018  0.00  0.00    +0.183 C 
ENDBRANCH   8  12
ENDBRANCH   3   7
BRANCH   2  15
ATOM     15  C   UNL     1      33.177 -20.961 -20.264  0.00  0.00    +0.090 C 
BRANCH  15  16
ATOM     16  C   UNL     1      34.465 -20.166 -20.455  0.00  0.00    +0.023 C 
BRANCH  16  17
ATOM     17  C   UNL     1      34.270 -18.940 -21.355  0.00  0.00    +0.028 C 
BRANCH  17  18
ATOM     18  C   UNL     1      35.466 -17.995 -21.317  0.00  0.00    +0.129 C 
BRANCH  18  19
ATOM     19  N   UNL     1      35.010 -16.610 -21.452  0.00  0.00    -0.240 NA
BRANCH  19  22
ATOM     20  N   UNL     1      35.489 -16.458 -23.800  0.00  0.00    -0.370 N 
ATOM     21  N   UNL     1      33.702 -15.365 -22.903  0.00  0.00    -0.370 N 
ATOM     22  C   UNL     1      34.775 -16.187 -22.654  0.00  0.00    +0.189 C 
ATOM     23  H   UNL     1      36.285 -17.036 -23.759  0.00  0.00    +0.159 HD
ATOM     24  H   UNL     1      35.205 -16.072 -24.660  0.00  0.00    +0.159 HD
ATOM     25  H   UNL     1      33.107 -15.094 -22.166  0.00  0.00    +0.159 HD
ATOM     26  H   UNL     1      33.527 -15.046 -23.819  0.00  0.00    +0.159 HD
ENDBRANCH  19  22
ENDBRANCH  18  19
ENDBRANCH  17  18
ENDBRANCH  16  17
ENDBRANCH  15  16
ENDBRANCH   2  15
TORSDOF 8
ENDMDL
MODEL 4
REMARK VINA RESULT:      -7.3      6.737      9.849
REMARK  Name = 24856354
REMARK  8 active torsions:
REMARK  status: ('A' for Active; 'I' for Inactive)
REMARK    1  A    between atoms: N_2  and  C_15
REMARK    2  A    between atoms: C_3  and  C_7
REMARK    3  A    between atoms: C_8  and  C_12
REMARK    4  A    between atoms: C_15  and  C_16
REMARK    5  A    between atoms: C_16  and  C_17
REMARK    6  A    between atoms: C_17  and  C_18
REMARK    7  A    between atoms: C_18  and  N_19
REMARK    8  A    between atoms: N_19  and  C_22
REMARK                            x       y       z     vdW  Elec       q    Type
REMARK                         _______ _______ _______ _____ _____    ______ ____
ROOT
ATOM      1  O   UNL     1      36.310 -18.550 -20.808  0.00  0.00    -0.268 OA
ATOM      2  N   UNL     1      34.107 -19.234 -21.053  0.00  0.00    -0.299 N 
ATOM      3  C   UNL     1      35.138 -18.302 -21.078  0.00  0.00    +0.272 C 
ATOM      4  H   UNL     1      33.197 -18.938 -21.287  0.00  0.00    +0.150 HD
ENDROOT
BRANCH   3   7
ATOM      5  S   UNL     1      34.201 -14.439 -21.331  0.00  0.00    -0.073 S 
ATOM      6  N   UNL     1      34.458 -16.588 -22.747  0.00  0.00    -0.393 NA
ATOM      7  C   UNL     1      34.755 -16.911 -21.437  0.00  0.00    +0.174 C 
ATOM      8  C   UNL     1      34.152 -15.310 -22.809  0.00  0.00    +0.171 C 
ATOM      9  C   UNL     1      34.670 -15.879 -20.526  0.00  0.00    +0.128 C 
BRANCH   8  12
ATOM     10  S   UNL     1      33.096 -14.293 -26.498  0.00  0.00    -0.108 S 
ATOM     11  N   UNL     1      33.741 -13.282 -24.207  0.00  0.00    -0.259 NA
ATOM     12  C   UNL     1      33.784 -14.658 -24.085  0.00  0.00    +0.101 C 
ATOM     13  C   UNL     1      33.467 -15.374 -25.218  0.00  0.00    +0.108 C 
ATOM     14  C   UNL     1      33.389 -12.977 -25.436  0.00  0.00    +0.183 C 
ENDBRANCH   8  12
ENDBRANCH   3   7
BRANCH   2  15
ATOM     15  C   UNL     1      34.315 -20.612 -20.701  0.00  0.00    +0.090 C 
BRANCH  15  16
ATOM     16  C   UNL     1      33.285 -21.117 -19.696  0.00  0.00    +0.023 C 
BRANCH  16  17
ATOM     17  C   UNL     1      33.856 -22.187 -18.757  0.00  0.00    +0.028 C 
BRANCH  17  18
ATOM     18  C   UNL     1      35.362 -22.045 -18.563  0.00  0.00    +0.129 C 
BRANCH  18  19
ATOM     19  N   UNL     1      35.742 -22.547 -17.240  0.00  0.00    -0.240 NA
BRANCH  19  22
ATOM     20  N   UNL     1      37.853 -22.944 -16.166  0.00  0.00    -0.370 N 
ATOM     21  N   UNL     1      37.284 -20.856 -16.882  0.00  0.00    -0.370 N 
ATOM     22  C   UNL     1      36.895 -22.171 -16.782  0.00  0.00    +0.189 C 
ATOM     23  H   UNL     1      37.697 -23.907 -16.031  0.00  0.00    +0.159 HD
ATOM     24  H   UNL     1      38.694 -22.535 -15.860  0.00  0.00    +0.159 HD
ATOM     25  H   UNL     1      36.688 -20.196 -17.303  0.00  0.00    +0.159 HD
ATOM     26  H   UNL     1      38.161 -20.575 -16.532  0.00  0.00    +0.159 HD
ENDBRANCH  19  22
ENDBRANCH  18  19
ENDBRANCH  17  18
ENDBRANCH  16  17
ENDBRANCH  15  16
ENDBRANCH   2  15
TORSDOF 8
ENDMDL
MODEL 5
REMARK VINA RESULT:      -7.3     10.725     12.943
REMARK  Name = 24856354
REMARK  8 active torsions:
REMARK  status: ('A' for Active; 'I' for Inactive)
REMARK    1  A    between atoms: N_2  and  C_15
REMARK    2  A    between atoms: C_3  and  C_7
REMARK    3  A    between atoms: C_8  and  C_12
REMARK    4  A    between atoms: C_15  and  C_16
REMARK    5  A    between atoms: C_16  and  C_17
REMARK    6  A    between atoms: C_17  and  C_18
REMARK    7  A    between atoms: C_18  and  N_19
REMARK    8  A    between atoms: N_19  and  C_22
REMARK                            x       y       z     vdW  Elec       q    Type
REMARK                         _______ _______ _______ _____ _____    ______ ____
ROOT
ATOM      1  O   UNL     1      33.722 -12.029 -25.529  0.00  0.00    -0.268 OA
ATOM      2  N   UNL     1      34.456 -10.820 -23.689  0.00  0.00    -0.299 N 
ATOM      3  C   UNL     1      33.950 -11.949 -24.324  0.00  0.00    +0.272 C 
ATOM      4  H   UNL     1      34.605 -10.853 -22.717  0.00  0.00    +0.150 HD
ENDROOT
BRANCH   3   7
ATOM      5  S   UNL     1      32.589 -14.665 -21.750  0.00  0.00    -0.073 S 
ATOM      6  N   UNL     1      34.452 -14.237 -23.491  0.00  0.00    -0.393 NA
ATOM      7  C   UNL     1      33.650 -13.113 -23.451  0.00  0.00    +0.174 C 
ATOM      8  C   UNL     1      33.986 -15.121 -22.636  0.00  0.00    +0.171 C 
ATOM      9  C   UNL     1      32.591 -13.158 -22.568  0.00  0.00    +0.128 C 
BRANCH   8  12
ATOM     10  S   UNL     1      35.686 -18.475 -21.365  0.00  0.00    -0.108 S 
ATOM     11  N   UNL     1      34.952 -17.249 -23.518  0.00  0.00    -0.259 NA
ATOM     12  C   UNL     1      34.633 -16.438 -22.446  0.00  0.00    +0.101 C 
ATOM     13  C   UNL     1      34.955 -16.933 -21.200  0.00  0.00    +0.108 C 
ATOM     14  C   UNL     1      35.512 -18.349 -23.067  0.00  0.00    +0.183 C 
ENDBRANCH   8  12
ENDBRANCH   3   7
BRANCH   2  15
ATOM     15  C   UNL     1      34.771  -9.609 -24.395  0.00  0.00    +0.090 C 
BRANCH  15  16
ATOM     16  C   UNL     1      34.380  -8.360 -23.611  0.00  0.00    +0.023 C 
BRANCH  16  17
ATOM     17  C   UNL     1      32.877  -8.064 -23.691  0.00  0.00    +0.028 C 
BRANCH  17  18
ATOM     18  C   UNL     1      32.287  -7.685 -22.337  0.00  0.00    +0.129 C 
BRANCH  18  19
ATOM     19  N   UNL     1      32.209  -8.870 -21.480  0.00  0.00    -0.240 NA
BRANCH  19  22
ATOM     20  N   UNL     1      32.227  -9.579 -19.185  0.00  0.00    -0.370 N 
ATOM     21  N   UNL     1      32.973  -7.506 -19.770  0.00  0.00    -0.370 N 
ATOM     22  C   UNL     1      32.444  -8.693 -20.217  0.00  0.00    +0.189 C 
ATOM     23  H   UNL     1      31.849 -10.469 -19.371  0.00  0.00    +0.159 HD
ATOM     24  H   UNL     1      32.450  -9.323 -18.261  0.00  0.00    +0.159 HD
ATOM     25  H   UNL     1      33.175  -6.785 -20.409  0.00  0.00    +0.159 HD
ATOM     26  H   UNL     1      33.150  -7.377 -18.809  0.00  0.00    +0.159 HD
ENDBRANCH  19  22
ENDBRANCH  18  19
ENDBRANCH  17  18
ENDBRANCH  16  17
ENDBRANCH  15  16
ENDBRANCH   2  15
TORSDOF 8
ENDMDL
MODEL 6
REMARK VINA RESULT:      -7.1      2.598      3.175
REMARK  Name = 24856354
REMARK  8 active torsions:
REMARK  status: ('A' for Active; 'I' for Inactive)
REMARK    1  A    between atoms: N_2  and  C_15
REMARK    2  A    between atoms: C_3  and  C_7
REMARK    3  A    between atoms: C_8  and  C_12
REMARK    4  A    between atoms: C_15  and  C_16
REMARK    5  A    between atoms: C_16  and  C_17
REMARK    6  A    between atoms: C_17  and  C_18
REMARK    7  A    between atoms: C_18  and  N_19
REMARK    8  A    between atoms: N_19  and  C_22
REMARK                            x       y       z     vdW  Elec       q    Type
REMARK                         _______ _______ _______ _____ _____    ______ ____
ROOT
ATOM      1  O   UNL     1      32.117 -22.447 -18.134  0.00  0.00    -0.268 OA
ATOM      2  N   UNL     1      34.356 -22.601 -18.723  0.00  0.00    -0.299 N 
ATOM      3  C   UNL     1      33.272 -22.774 -17.870  0.00  0.00    +0.272 C 
ATOM      4  H   UNL     1      35.245 -22.896 -18.421  0.00  0.00    +0.150 HD
ENDROOT
BRANCH   3   7
ATOM      5  S   UNL     1      33.400 -24.170 -14.143  0.00  0.00    -0.073 S 
ATOM      6  N   UNL     1      34.792 -23.978 -16.314  0.00  0.00    -0.393 NA
ATOM      7  C   UNL     1      33.570 -23.378 -16.545  0.00  0.00    +0.174 C 
ATOM      8  C   UNL     1      34.815 -24.432 -15.080  0.00  0.00    +0.171 C 
ATOM      9  C   UNL     1      32.684 -23.383 -15.488  0.00  0.00    +0.128 C 
BRANCH   8  12
ATOM     10  S   UNL     1      37.821 -25.904 -12.946  0.00  0.00    -0.108 S 
ATOM     11  N   UNL     1      36.728 -26.024 -15.286  0.00  0.00    -0.259 NA
ATOM     12  C   UNL     1      35.996 -25.131 -14.527  0.00  0.00    +0.101 C 
ATOM     13  C   UNL     1      36.436 -24.935 -13.236  0.00  0.00    +0.108 C 
ATOM     14  C   UNL     1      37.714 -26.493 -14.554  0.00  0.00    +0.183 C 
ENDBRANCH   8  12
ENDBRANCH   3   7
BRANCH   2  15
ATOM     15  C   UNL     1      34.231 -22.009 -20.026  0.00  0.00    +0.090 C 
BRANCH  15  16
ATOM     16  C   UNL     1      34.640 -20.539 -20.040  0.00  0.00    +0.023 C 
BRANCH  16  17
ATOM     17  C   UNL     1      36.131 -20.347 -20.340  0.00  0.00    +0.028 C 
BRANCH  17  18
ATOM     18  C   UNL     1      36.423 -19.002 -20.997  0.00  0.00    +0.129 C 
BRANCH  18  19
ATOM     19  N   UNL     1      35.265 -18.116 -20.853  0.00  0.00    -0.240 NA
BRANCH  19  22
ATOM     20  N   UNL     1      34.715 -15.837 -21.371  0.00  0.00    -0.370 N 
ATOM     21  N   UNL     1      35.686 -17.185 -22.931  0.00  0.00    -0.370 N 
ATOM     22  C   UNL     1      35.211 -17.092 -21.645  0.00  0.00    +0.189 C 
ATOM     23  H   UNL     1      34.343 -15.638 -20.481  0.00  0.00    +0.159 HD
ATOM     24  H   UNL     1      34.732 -15.138 -22.064  0.00  0.00    +0.159 HD
ATOM     25  H   UNL     1      36.069 -18.031 -23.256  0.00  0.00    +0.159 HD
ATOM     26  H   UNL     1      35.643 -16.403 -23.529  0.00  0.00    +0.159 HD
ENDBRANCH  19  22
ENDBRANCH  18  19
ENDBRANCH  17  18
ENDBRANCH  16  17
ENDBRANCH  15  16
ENDBRANCH   2  15
TORSDOF 8
ENDMDL
MODEL 7
REMARK VINA RESULT:      -7.1      8.119     10.076
REMARK  Name = 24856354
REMARK  8 active torsions:
REMARK  status: ('A' for Active; 'I' for Inactive)
REMARK    1  A    between atoms: N_2  and  C_15
REMARK    2  A    between atoms: C_3  and  C_7
REMARK    3  A    between atoms: C_8  and  C_12
REMARK    4  A    between atoms: C_15  and  C_16
REMARK    5  A    between atoms: C_16  and  C_17
REMARK    6  A    between atoms: C_17  and  C_18
REMARK    7  A    between atoms: C_18  and  N_19
REMARK    8  A    between atoms: N_19  and  C_22
REMARK                            x       y       z     vdW  Elec       q    Type
REMARK                         _______ _______ _______ _____ _____    ______ ____
ROOT
ATOM      1  O   UNL     1      34.775 -14.790 -20.811  0.00  0.00    -0.268 OA
ATOM      2  N   UNL     1      33.837 -14.557 -22.921  0.00  0.00    -0.299 N 
ATOM      3  C   UNL     1      34.397 -15.279 -21.873  0.00  0.00    +0.272 C 
ATOM      4  H   UNL     1      33.564 -15.039 -23.733  0.00  0.00    +0.150 HD
ENDROOT
BRANCH   3   7
ATOM      5  S   UNL     1      34.921 -19.008 -23.168  0.00  0.00    -0.073 S 
ATOM      6  N   UNL     1      34.461 -17.620 -21.036  0.00  0.00    -0.393 NA
ATOM      7  C   UNL     1      34.557 -16.740 -22.096  0.00  0.00    +0.174 C 
ATOM      8  C   UNL     1      34.637 -18.844 -21.484  0.00  0.00    +0.171 C 
ATOM      9  C   UNL     1      34.802 -17.305 -23.330  0.00  0.00    +0.128 C 
BRANCH   8  12
ATOM     10  S   UNL     1      33.746 -21.974 -19.210  0.00  0.00    -0.108 S 
ATOM     11  N   UNL     1      35.737 -20.526 -20.000  0.00  0.00    -0.259 NA
ATOM     12  C   UNL     1      34.592 -20.018 -20.584  0.00  0.00    +0.101 C 
ATOM     13  C   UNL     1      33.418 -20.669 -20.274  0.00  0.00    +0.108 C 
ATOM     14  C   UNL     1      35.411 -21.558 -19.255  0.00  0.00    +0.183 C 
ENDBRANCH   8  12
ENDBRANCH   3   7
BRANCH   2  15
ATOM     15  C   UNL     1      33.641 -13.134 -22.864  0.00  0.00    +0.090 C 
BRANCH  15  16
ATOM     16  C   UNL     1      32.184 -12.757 -22.617  0.00  0.00    +0.023 C 
BRANCH  16  17
ATOM     17  C   UNL     1      31.892 -12.476 -21.139  0.00  0.00    +0.028 C 
BRANCH  17  18
ATOM     18  C   UNL     1      31.015 -11.244 -20.944  0.00  0.00    +0.129 C 
BRANCH  18  19
ATOM     19  N   UNL     1      31.824 -10.030 -21.078  0.00  0.00    -0.240 NA
BRANCH  19  22
ATOM     20  N   UNL     1      32.097  -9.932 -18.694  0.00  0.00    -0.370 N 
ATOM     21  N   UNL     1      32.735  -8.186 -20.012  0.00  0.00    -0.370 N 
ATOM     22  C   UNL     1      32.186  -9.446 -19.979  0.00  0.00    +0.189 C 
ATOM     23  H   UNL     1      31.720 -10.827 -18.531  0.00  0.00    +0.159 HD
ATOM     24  H   UNL     1      32.410  -9.385 -17.937  0.00  0.00    +0.159 HD
ATOM     25  H   UNL     1      32.855  -7.723 -20.872  0.00  0.00    +0.159 HD
ATOM     26  H   UNL     1      33.009  -7.746 -19.174  0.00  0.00    +0.159 HD
ENDBRANCH  19  22
ENDBRANCH  18  19
ENDBRANCH  17  18
ENDBRANCH  16  17
ENDBRANCH  15  16
ENDBRANCH   2  15
TORSDOF 8
ENDMDL
MODEL 8
REMARK VINA RESULT:      -7.1      2.525      4.591
REMARK  Name = 24856354
REMARK  8 active torsions:
REMARK  status: ('A' for Active; 'I' for Inactive)
REMARK    1  A    between atoms: N_2  and  C_15
REMARK    2  A    between atoms: C_3  and  C_7
REMARK    3  A    between atoms: C_8  and  C_12
REMARK    4  A    between atoms: C_15  and  C_16
REMARK    5  A    between atoms: C_16  and  C_17
REMARK    6  A    between atoms: C_17  and  C_18
REMARK    7  A    between atoms: C_18  and  N_19
REMARK    8  A    between atoms: N_19  and  C_22
REMARK                            x       y       z     vdW  Elec       q    Type
REMARK                         _______ _______ _______ _____ _____    ______ ____
ROOT
ATOM      1  O   UNL     1      33.269 -23.161 -18.607  0.00  0.00    -0.268 OA
ATOM      2  N   UNL     1      32.421 -22.968 -16.456  0.00  0.00    -0.299 N 
ATOM      3  C   UNL     1      33.442 -23.049 -17.396  0.00  0.00    +0.272 C 
ATOM      4  H   UNL     1      32.660 -22.879 -15.506  0.00  0.00    +0.150 HD
ENDROOT
BRANCH   3   7
ATOM      5  S   UNL     1      37.236 -22.383 -16.384  0.00  0.00    -0.073 S 
ATOM      6  N   UNL     1      35.245 -23.977 -15.957  0.00  0.00    -0.393 NA
ATOM      7  C   UNL     1      34.828 -23.020 -16.861  0.00  0.00    +0.174 C 
ATOM      8  C   UNL     1      36.498 -23.739 -15.635  0.00  0.00    +0.171 C 
ATOM      9  C   UNL     1      35.767 -22.073 -17.214  0.00  0.00    +0.128 C 
BRANCH   8  12
ATOM     10  S   UNL     1      39.108 -25.767 -13.437  0.00  0.00    -0.108 S 
ATOM     11  N   UNL     1      36.573 -25.357 -13.734  0.00  0.00    -0.259 NA
ATOM     12  C   UNL     1      37.234 -24.596 -14.679  0.00  0.00    +0.101 C 
ATOM     13  C   UNL     1      38.608 -24.688 -14.673  0.00  0.00    +0.108 C 
ATOM     14  C   UNL     1      37.461 -26.016 -13.024  0.00  0.00    +0.183 C 
ENDBRANCH   8  12
ENDBRANCH   3   7
BRANCH   2  15
ATOM     15  C   UNL     1      31.030 -23.008 -16.817  0.00  0.00    +0.090 C 
BRANCH  15  16
ATOM     16  C   UNL     1      30.219 -23.922 -15.904  0.00  0.00    +0.023 C 
BRANCH  16  17
ATOM     17  C   UNL     1      30.065 -23.351 -14.489  0.00  0.00    +0.028 C 
BRANCH  17  18
ATOM     18  C   UNL     1      30.893 -24.115 -13.461  0.00  0.00    +0.129 C 
BRANCH  18  19
ATOM     19  N   UNL     1      32.082 -23.338 -13.103  0.00  0.00    -0.240 NA
BRANCH  19  22
ATOM     20  N   UNL     1      34.447 -23.532 -12.731  0.00  0.00    -0.370 N 
ATOM     21  N   UNL     1      33.324 -25.111 -13.931  0.00  0.00    -0.370 N 
ATOM     22  C   UNL     1      33.227 -23.933 -13.229  0.00  0.00    +0.189 C 
ATOM     23  H   UNL     1      34.516 -22.700 -12.209  0.00  0.00    +0.159 HD
ATOM     24  H   UNL     1      35.250 -24.076 -12.898  0.00  0.00    +0.159 HD
ATOM     25  H   UNL     1      32.521 -25.508 -14.340  0.00  0.00    +0.159 HD
ATOM     26  H   UNL     1      34.196 -25.558 -14.024  0.00  0.00    +0.159 HD
ENDBRANCH  19  22
ENDBRANCH  18  19
ENDBRANCH  17  18
ENDBRANCH  16  17
ENDBRANCH  15  16
ENDBRANCH   2  15
TORSDOF 8
ENDMDL
MODEL 9
REMARK VINA RESULT:      -7.0      3.002      6.264
REMARK  Name = 24856354
REMARK  8 active torsions:
REMARK  status: ('A' for Active; 'I' for Inactive)
REMARK    1  A    between atoms: N_2  and  C_15
REMARK    2  A    between atoms: C_3  and  C_7
REMARK    3  A    between atoms: C_8  and  C_12
REMARK    4  A    between atoms: C_15  and  C_16
REMARK    5  A    between atoms: C_16  and  C_17
REMARK    6  A    between atoms: C_17  and  C_18
REMARK    7  A    between atoms: C_18  and  N_19
REMARK    8  A    between atoms: N_19  and  C_22
REMARK                            x       y       z     vdW  Elec       q    Type
REMARK                         _______ _______ _______ _____ _____    ______ ____
ROOT
ATOM      1  O   UNL     1      35.705 -25.407 -15.536  0.00  0.00    -0.268 OA
ATOM      2  N   UNL     1      34.859 -23.884 -14.004  0.00  0.00    -0.299 N 
ATOM      3  C   UNL     1      35.061 -24.392 -15.282  0.00  0.00    +0.272 C 
ATOM      4  H   UNL     1      34.327 -23.062 -13.901  0.00  0.00    +0.150 HD
ENDROOT
BRANCH   3   7
ATOM      5  S   UNL     1      32.834 -22.583 -18.044  0.00  0.00    -0.073 S 
ATOM      6  N   UNL     1      35.271 -22.846 -17.219  0.00  0.00    -0.393 NA
ATOM      7  C   UNL     1      34.466 -23.612 -16.399  0.00  0.00    +0.174 C 
ATOM      8  C   UNL     1      34.518 -22.257 -18.122  0.00  0.00    +0.171 C 
ATOM      9  C   UNL     1      33.118 -23.597 -16.690  0.00  0.00    +0.128 C 
BRANCH   8  12
ATOM     10  S   UNL     1      35.316 -19.811 -21.144  0.00  0.00    -0.108 S 
ATOM     11  N   UNL     1      36.440 -21.068 -19.184  0.00  0.00    -0.259 NA
ATOM     12  C   UNL     1      35.090 -21.363 -19.152  0.00  0.00    +0.101 C 
ATOM     13  C   UNL     1      34.322 -20.775 -20.133  0.00  0.00    +0.108 C 
ATOM     14  C   UNL     1      36.673 -20.258 -20.193  0.00  0.00    +0.183 C 
ENDBRANCH   8  12
ENDBRANCH   3   7
BRANCH   2  15
ATOM     15  C   UNL     1      35.393 -24.511 -12.827  0.00  0.00    +0.090 C 
BRANCH  15  16
ATOM     16  C   UNL     1      36.007 -23.505 -11.859  0.00  0.00    +0.023 C 
BRANCH  16  17
ATOM     17  C   UNL     1      37.495 -23.259 -12.134  0.00  0.00    +0.028 C 
BRANCH  17  18
ATOM     18  C   UNL     1      38.322 -24.537 -12.048  0.00  0.00    +0.129 C 
BRANCH  18  19
ATOM     19  N   UNL     1      39.255 -24.604 -13.175  0.00  0.00    -0.240 NA
BRANCH  19  22
ATOM     20  N   UNL     1      38.593 -24.451 -15.479  0.00  0.00    -0.370 N 
ATOM     21  N   UNL     1      38.453 -26.429 -14.355  0.00  0.00    -0.370 N 
ATOM     22  C   UNL     1      38.798 -25.101 -14.282  0.00  0.00    +0.189 C 
ATOM     23  H   UNL     1      38.801 -23.492 -15.561  0.00  0.00    +0.159 HD
ATOM     24  H   UNL     1      38.239 -24.945 -16.253  0.00  0.00    +0.159 HD
ATOM     25  H   UNL     1      38.552 -27.008 -13.566  0.00  0.00    +0.159 HD
ATOM     26  H   UNL     1      38.107 -26.802 -15.199  0.00  0.00    +0.159 HD
ENDBRANCH  19  22
ENDBRANCH  18  19
ENDBRANCH  17  18
ENDBRANCH  16  17
ENDBRANCH  15  16
ENDBRANCH   2  15
TORSDOF 8
ENDMDL
