MODEL 1
REMARK VINA RESULT:      -7.3      0.000      0.000
REMARK  Name = 394347
REMARK  4 active torsions:
REMARK  status: ('A' for Active; 'I' for Inactive)
REMARK    1  A    between atoms: C_3  and  N_10
REMARK    2  A    between atoms: C_4  and  N_13
REMARK    3  A    between atoms: C_5  and  C_16
REMARK    4  A    between atoms: C_16  and  O_17
REMARK                            x       y       z     vdW  Elec       q    Type
REMARK                         _______ _______ _______ _____ _____    ______ ____
ROOT
ATOM      1  O   UNL     1      34.653 -17.262 -25.835  0.00  0.00    -0.285 OA
ATOM      2  O   UNL     1      33.667 -14.253 -21.569  0.00  0.00    -0.286 OA
ATOM      3  C   UNL     1      33.481 -14.485 -23.914  0.00  0.00    +0.089 C 
ATOM      4  C   UNL     1      34.840 -17.030 -23.489  0.00  0.00    +0.086 C 
ATOM      5  C   UNL     1      33.735 -15.255 -24.986  0.00  0.00    +0.064 C 
ATOM      6  C   UNL     1      34.586 -16.261 -22.417  0.00  0.00    +0.035 C 
ATOM      7  C   UNL     1      34.426 -16.568 -24.845  0.00  0.00    +0.208 C 
ATOM      8  C   UNL     1      33.894 -14.948 -22.558  0.00  0.00    +0.206 C 
ATOM      9  C   UNL     1      34.955 -16.622 -21.003  0.00  0.00    +0.036 C 
ENDROOT
BRANCH   3  10
ATOM     10  N   UNL     1      32.857 -13.268 -23.925  0.00  0.00    -0.302 N 
ATOM     11  C   UNL     1      33.361 -12.263 -24.857  0.00  0.00    +0.112 C 
ATOM     12  C   UNL     1      33.597 -12.129 -23.389  0.00  0.00    +0.112 C 
ENDBRANCH   3  10
BRANCH   4  13
ATOM     13  N   UNL     1      35.464 -18.248 -23.479  0.00  0.00    -0.302 N 
ATOM     14  C   UNL     1      34.891 -19.287 -22.629  0.00  0.00    +0.112 C 
ATOM     15  C   UNL     1      34.768 -19.364 -24.114  0.00  0.00    +0.112 C 
ENDBRANCH   4  13
BRANCH   5  16
ATOM     16  C   UNL     1      33.365 -14.893 -26.400  0.00  0.00    +0.168 C 
BRANCH  16  17
ATOM     17  O   UNL     1      32.323 -15.736 -26.845  0.00  0.00    -0.377 OA
ATOM     18  H   UNL     1      32.557 -16.662 -26.670  0.00  0.00    +0.211 HD
ENDBRANCH  16  17
ENDBRANCH   5  16
TORSDOF 4
ENDMDL
MODEL 2
REMARK VINA RESULT:      -7.3      1.429      4.571
REMARK  Name = 394347
REMARK  4 active torsions:
REMARK  status: ('A' for Active; 'I' for Inactive)
REMARK    1  A    between atoms: C_3  and  N_10
REMARK    2  A    between atoms: C_4  and  N_13
REMARK    3  A    between atoms: C_5  and  C_16
REMARK    4  A    between atoms: C_16  and  O_17
REMARK                            x       y       z     vdW  Elec       q    Type
REMARK                         _______ _______ _______ _____ _____    ______ ____
ROOT
ATOM      1  O   UNL     1      33.145 -14.778 -25.116  0.00  0.00    -0.285 OA
ATOM      2  O   UNL     1      34.870 -16.306 -20.330  0.00  0.00    -0.286 OA
ATOM      3  C   UNL     1      34.942 -16.659 -22.666  0.00  0.00    +0.089 C 
ATOM      4  C   UNL     1      33.072 -14.425 -22.779  0.00  0.00    +0.086 C 
ATOM      5  C   UNL     1      34.500 -16.264 -23.872  0.00  0.00    +0.064 C 
ATOM      6  C   UNL     1      33.515 -14.820 -21.574  0.00  0.00    +0.035 C 
ATOM      7  C   UNL     1      33.542 -15.129 -24.006  0.00  0.00    +0.208 C 
ATOM      8  C   UNL     1      34.473 -15.955 -21.439  0.00  0.00    +0.206 C 
ATOM      9  C   UNL     1      33.111 -14.187 -20.269  0.00  0.00    +0.036 C 
ENDROOT
BRANCH   3  10
ATOM     10  N   UNL     1      35.816 -17.684 -22.424  0.00  0.00    -0.302 N 
ATOM     11  C   UNL     1      35.437 -19.015 -22.889  0.00  0.00    +0.112 C 
ATOM     12  C   UNL     1      35.423 -18.682 -21.435  0.00  0.00    +0.112 C 
ENDBRANCH   3  10
BRANCH   4  13
ATOM     13  N   UNL     1      32.198 -13.401 -23.022  0.00  0.00    -0.302 N 
ATOM     14  C   UNL     1      32.026 -12.403 -21.971  0.00  0.00    +0.112 C 
ATOM     15  C   UNL     1      32.764 -12.069 -23.224  0.00  0.00    +0.112 C 
ENDBRANCH   4  13
BRANCH   5  16
ATOM     16  C   UNL     1      34.904 -16.897 -25.177  0.00  0.00    +0.168 C 
BRANCH  16  17
ATOM     17  O   UNL     1      33.790 -17.553 -25.747  0.00  0.00    -0.377 OA
ATOM     18  H   UNL     1      34.096 -18.204 -26.399  0.00  0.00    +0.211 HD
ENDBRANCH  16  17
ENDBRANCH   5  16
TORSDOF 4
ENDMDL
MODEL 3
REMARK VINA RESULT:      -7.2     10.383     12.924
REMARK  Name = 394347
REMARK  4 active torsions:
REMARK  status: ('A' for Active; 'I' for Inactive)
REMARK    1  A    between atoms: C_3  and  N_10
REMARK    2  A    between atoms: C_4  and  N_13
REMARK    3  A    between atoms: C_5  and  C_16
REMARK    4  A    between atoms: C_16  and  O_17
REMARK                            x       y       z     vdW  Elec       q    Type
REMARK                         _______ _______ _______ _____ _____    ______ ____
ROOT
ATOM      1  O   UNL     1      32.544 -24.140 -13.050  0.00  0.00    -0.285 OA
ATOM      2  O   UNL     1      35.937 -22.829 -16.922  0.00  0.00    -0.286 OA
ATOM      3  C   UNL     1      35.644 -23.321 -14.628  0.00  0.00    +0.089 C 
ATOM      4  C   UNL     1      32.836 -23.648 -15.343  0.00  0.00    +0.086 C 
ATOM      5  C   UNL     1      34.777 -23.653 -13.657  0.00  0.00    +0.064 C 
ATOM      6  C   UNL     1      33.703 -23.316 -16.315  0.00  0.00    +0.035 C 
ATOM      7  C   UNL     1      33.327 -23.837 -13.948  0.00  0.00    +0.208 C 
ATOM      8  C   UNL     1      35.154 -23.133 -16.023  0.00  0.00    +0.206 C 
ATOM      9  C   UNL     1      33.325 -23.099 -17.756  0.00  0.00    +0.036 C 
ENDROOT
BRANCH   3  10
ATOM     10  N   UNL     1      36.990 -23.126 -14.476  0.00  0.00    -0.302 N 
ATOM     11  C   UNL     1      37.881 -24.152 -15.011  0.00  0.00    +0.112 C 
ATOM     12  C   UNL     1      37.693 -23.996 -13.539  0.00  0.00    +0.112 C 
ENDBRANCH   3  10
BRANCH   4  13
ATOM     13  N   UNL     1      31.491 -23.842 -15.495  0.00  0.00    -0.302 N 
ATOM     14  C   UNL     1      30.598 -22.876 -14.863  0.00  0.00    +0.112 C 
ATOM     15  C   UNL     1      30.768 -22.900 -16.345  0.00  0.00    +0.112 C 
ENDBRANCH   4  13
BRANCH   5  16
ATOM     16  C   UNL     1      35.156 -23.869 -12.215  0.00  0.00    +0.168 C 
BRANCH  16  17
ATOM     17  O   UNL     1      34.774 -25.170 -11.818  0.00  0.00    -0.377 OA
ATOM     18  H   UNL     1      34.550 -25.169 -10.874  0.00  0.00    +0.211 HD
ENDBRANCH  16  17
ENDBRANCH   5  16
TORSDOF 4
ENDMDL
MODEL 4
REMARK VINA RESULT:      -7.2     10.218     12.006
REMARK  Name = 394347
REMARK  4 active torsions:
REMARK  status: ('A' for Active; 'I' for Inactive)
REMARK    1  A    between atoms: C_3  and  N_10
REMARK    2  A    between atoms: C_4  and  N_13
REMARK    3  A    between atoms: C_5  and  C_16
REMARK    4  A    between atoms: C_16  and  O_17
REMARK                            x       y       z     vdW  Elec       q    Type
REMARK                         _______ _______ _______ _____ _____    ______ ____
ROOT
ATOM      1  O   UNL     1      35.946 -22.773 -16.844  0.00  0.00    -0.285 OA
ATOM      2  O   UNL     1      32.512 -24.425 -13.143  0.00  0.00    -0.286 OA
ATOM      3  C   UNL     1      32.827 -23.715 -15.376  0.00  0.00    +0.089 C 
ATOM      4  C   UNL     1      35.631 -23.481 -14.611  0.00  0.00    +0.086 C 
ATOM      5  C   UNL     1      33.705 -23.299 -16.305  0.00  0.00    +0.064 C 
ATOM      6  C   UNL     1      34.753 -23.897 -13.683  0.00  0.00    +0.035 C 
ATOM      7  C   UNL     1      35.154 -23.155 -15.985  0.00  0.00    +0.208 C 
ATOM      8  C   UNL     1      33.304 -24.042 -14.002  0.00  0.00    +0.206 C 
ATOM      9  C   UNL     1      35.118 -24.254 -12.265  0.00  0.00    +0.036 C 
ENDROOT
BRANCH   3  10
ATOM     10  N   UNL     1      31.481 -23.882 -15.556  0.00  0.00    -0.302 N 
ATOM     11  C   UNL     1      30.790 -22.910 -16.398  0.00  0.00    +0.112 C 
ATOM     12  C   UNL     1      30.594 -22.914 -14.919  0.00  0.00    +0.112 C 
ENDBRANCH   3  10
BRANCH   4  13
ATOM     13  N   UNL     1      36.977 -23.314 -14.431  0.00  0.00    -0.302 N 
ATOM     14  C   UNL     1      37.649 -24.225 -13.510  0.00  0.00    +0.112 C 
ATOM     15  C   UNL     1      37.860 -24.338 -14.983  0.00  0.00    +0.112 C 
ENDBRANCH   4  13
BRANCH   5  16
ATOM     16  C   UNL     1      33.340 -22.943 -17.722  0.00  0.00    +0.168 C 
BRANCH  16  17
ATOM     17  O   UNL     1      33.754 -23.978 -18.589  0.00  0.00    -0.377 OA
ATOM     18  H   UNL     1      33.649 -24.835 -18.145  0.00  0.00    +0.211 HD
ENDBRANCH  16  17
ENDBRANCH   5  16
TORSDOF 4
ENDMDL
MODEL 5
REMARK VINA RESULT:      -7.1      1.000      5.425
REMARK  Name = 394347
REMARK  4 active torsions:
REMARK  status: ('A' for Active; 'I' for Inactive)
REMARK    1  A    between atoms: C_3  and  N_10
REMARK    2  A    between atoms: C_4  and  N_13
REMARK    3  A    between atoms: C_5  and  C_16
REMARK    4  A    between atoms: C_16  and  O_17
REMARK                            x       y       z     vdW  Elec       q    Type
REMARK                         _______ _______ _______ _____ _____    ______ ____
ROOT
ATOM      1  O   UNL     1      32.943 -14.846 -21.189  0.00  0.00    -0.285 OA
ATOM      2  O   UNL     1      34.679 -16.616 -25.888  0.00  0.00    -0.286 OA
ATOM      3  C   UNL     1      34.607 -16.952 -23.549  0.00  0.00    +0.089 C 
ATOM      4  C   UNL     1      33.015 -14.509 -23.529  0.00  0.00    +0.086 C 
ATOM      5  C   UNL     1      34.162 -16.495 -22.366  0.00  0.00    +0.064 C 
ATOM      6  C   UNL     1      33.460 -14.965 -24.711  0.00  0.00    +0.035 C 
ATOM      7  C   UNL     1      33.343 -15.253 -22.279  0.00  0.00    +0.208 C 
ATOM      8  C   UNL     1      34.278 -16.209 -24.799  0.00  0.00    +0.206 C 
ATOM      9  C   UNL     1      33.193 -14.300 -26.036  0.00  0.00    +0.036 C 
ENDROOT
BRANCH   3  10
ATOM     10  N   UNL     1      35.363 -18.075 -23.748  0.00  0.00    -0.302 N 
ATOM     11  C   UNL     1      34.740 -19.186 -24.462  0.00  0.00    +0.112 C 
ATOM     12  C   UNL     1      34.999 -19.271 -22.995  0.00  0.00    +0.112 C 
ENDBRANCH   3  10
BRANCH   4  13
ATOM     13  N   UNL     1      32.260 -13.386 -23.330  0.00  0.00    -0.302 N 
ATOM     14  C   UNL     1      32.472 -12.645 -22.090  0.00  0.00    +0.112 C 
ATOM     15  C   UNL     1      32.942 -12.097 -23.396  0.00  0.00    +0.112 C 
ENDBRANCH   4  13
BRANCH   5  16
ATOM     16  C   UNL     1      34.429 -17.161 -21.042  0.00  0.00    +0.168 C 
BRANCH  16  17
ATOM     17  O   UNL     1      35.156 -16.280 -20.210  0.00  0.00    -0.377 OA
ATOM     18  H   UNL     1      34.629 -15.482 -20.044  0.00  0.00    +0.211 HD
ENDBRANCH  16  17
ENDBRANCH   5  16
TORSDOF 4
ENDMDL
MODEL 6
REMARK VINA RESULT:      -7.1      1.253      3.202
REMARK  Name = 394347
REMARK  4 active torsions:
REMARK  status: ('A' for Active; 'I' for Inactive)
REMARK    1  A    between atoms: C_3  and  N_10
REMARK    2  A    between atoms: C_4  and  N_13
REMARK    3  A    between atoms: C_5  and  C_16
REMARK    4  A    between atoms: C_16  and  O_17
REMARK                            x       y       z     vdW  Elec       q    Type
REMARK                         _______ _______ _______ _____ _____    ______ ____
ROOT
ATOM      1  O   UNL     1      34.626 -14.547 -21.603  0.00  0.00    -0.285 OA
ATOM      2  O   UNL     1      33.413 -16.069 -26.546  0.00  0.00    -0.286 OA
ATOM      3  C   UNL     1      33.390 -14.326 -24.949  0.00  0.00    +0.089 C 
ATOM      4  C   UNL     1      34.648 -16.291 -23.200  0.00  0.00    +0.086 C 
ATOM      5  C   UNL     1      33.702 -13.952 -23.697  0.00  0.00    +0.064 C 
ATOM      6  C   UNL     1      34.336 -16.665 -24.452  0.00  0.00    +0.035 C 
ATOM      7  C   UNL     1      34.347 -14.902 -22.747  0.00  0.00    +0.208 C 
ATOM      8  C   UNL     1      33.692 -15.714 -25.402  0.00  0.00    +0.206 C 
ATOM      9  C   UNL     1      34.592 -18.036 -25.019  0.00  0.00    +0.036 C 
ENDROOT
BRANCH   3  10
ATOM     10  N   UNL     1      32.799 -13.542 -25.902  0.00  0.00    -0.302 N 
ATOM     11  C   UNL     1      33.461 -13.448 -27.200  0.00  0.00    +0.112 C 
ATOM     12  C   UNL     1      33.468 -12.294 -26.255  0.00  0.00    +0.112 C 
ENDBRANCH   3  10
BRANCH   4  13
ATOM     13  N   UNL     1      35.239 -17.074 -22.247  0.00  0.00    -0.302 N 
ATOM     14  C   UNL     1      34.370 -17.684 -21.245  0.00  0.00    +0.112 C 
ATOM     15  C   UNL     1      34.996 -18.513 -22.316  0.00  0.00    +0.112 C 
ENDBRANCH   4  13
BRANCH   5  16
ATOM     16  C   UNL     1      33.446 -12.580 -23.129  0.00  0.00    +0.168 C 
BRANCH  16  17
ATOM     17  O   UNL     1      32.292 -12.615 -22.315  0.00  0.00    -0.377 OA
ATOM     18  H   UNL     1      31.808 -11.779 -22.404  0.00  0.00    +0.211 HD
ENDBRANCH  16  17
ENDBRANCH   5  16
TORSDOF 4
ENDMDL
MODEL 7
REMARK VINA RESULT:      -7.1      1.486      3.350
REMARK  Name = 394347
REMARK  4 active torsions:
REMARK  status: ('A' for Active; 'I' for Inactive)
REMARK    1  A    between atoms: C_3  and  N_10
REMARK    2  A    between atoms: C_4  and  N_13
REMARK    3  A    between atoms: C_5  and  C_16
REMARK    4  A    between atoms: C_16  and  O_17
REMARK                            x       y       z     vdW  Elec       q    Type
REMARK                         _______ _______ _______ _____ _____    ______ ____
ROOT
ATOM      1  O   UNL     1      34.070 -15.895 -20.789  0.00  0.00    -0.285 OA
ATOM      2  O   UNL     1      34.650 -17.345 -25.866  0.00  0.00    -0.286 OA
ATOM      3  C   UNL     1      34.120 -15.610 -24.351  0.00  0.00    +0.089 C 
ATOM      4  C   UNL     1      34.599 -17.631 -22.304  0.00  0.00    +0.086 C 
ATOM      5  C   UNL     1      33.976 -15.254 -23.063  0.00  0.00    +0.064 C 
ATOM      6  C   UNL     1      34.743 -17.986 -23.592  0.00  0.00    +0.035 C 
ATOM      7  C   UNL     1      34.205 -16.234 -21.963  0.00  0.00    +0.208 C 
ATOM      8  C   UNL     1      34.515 -17.006 -24.692  0.00  0.00    +0.206 C 
ATOM      9  C   UNL     1      35.136 -19.364 -24.056  0.00  0.00    +0.036 C 
ENDROOT
BRANCH   3  10
ATOM     10  N   UNL     1      33.936 -14.799 -25.437  0.00  0.00    -0.302 N 
ATOM     11  C   UNL     1      32.750 -13.947 -25.447  0.00  0.00    +0.112 C 
ATOM     12  C   UNL     1      32.845 -15.133 -26.347  0.00  0.00    +0.112 C 
ENDBRANCH   3  10
BRANCH   4  13
ATOM     13  N   UNL     1      34.783 -18.441 -21.218  0.00  0.00    -0.302 N 
ATOM     14  C   UNL     1      33.697 -19.352 -20.869  0.00  0.00    +0.112 C 
ATOM     15  C   UNL     1      34.961 -19.869 -21.469  0.00  0.00    +0.112 C 
ENDBRANCH   4  13
BRANCH   5  16
ATOM     16  C   UNL     1      33.583 -13.876 -22.599  0.00  0.00    +0.168 C 
BRANCH  16  17
ATOM     17  O   UNL     1      32.326 -13.936 -21.957  0.00  0.00    -0.377 OA
ATOM     18  H   UNL     1      31.827 -13.125 -22.146  0.00  0.00    +0.211 HD
ENDBRANCH  16  17
ENDBRANCH   5  16
TORSDOF 4
ENDMDL
MODEL 8
REMARK VINA RESULT:      -7.0     10.145     12.144
REMARK  Name = 394347
REMARK  4 active torsions:
REMARK  status: ('A' for Active; 'I' for Inactive)
REMARK    1  A    between atoms: C_3  and  N_10
REMARK    2  A    between atoms: C_4  and  N_13
REMARK    3  A    between atoms: C_5  and  C_16
REMARK    4  A    between atoms: C_16  and  O_17
REMARK                            x       y       z     vdW  Elec       q    Type
REMARK                         _______ _______ _______ _____ _____    ______ ____
ROOT
ATOM      1  O   UNL     1      31.414 -22.423 -17.522  0.00  0.00    -0.285 OA
ATOM      2  O   UNL     1      33.318 -24.605 -13.069  0.00  0.00    -0.286 OA
ATOM      3  C   UNL     1      33.790 -23.823 -15.250  0.00  0.00    +0.089 C 
ATOM      4  C   UNL     1      30.942 -23.205 -15.342  0.00  0.00    +0.086 C 
ATOM      5  C   UNL     1      33.298 -23.271 -16.371  0.00  0.00    +0.064 C 
ATOM      6  C   UNL     1      31.435 -23.758 -14.221  0.00  0.00    +0.035 C 
ATOM      7  C   UNL     1      31.852 -22.928 -16.490  0.00  0.00    +0.208 C 
ATOM      8  C   UNL     1      32.881 -24.100 -14.101  0.00  0.00    +0.206 C 
ATOM      9  C   UNL     1      30.614 -24.082 -13.000  0.00  0.00    +0.036 C 
ENDROOT
BRANCH   3  10
ATOM     10  N   UNL     1      35.093 -24.178 -15.030  0.00  0.00    -0.302 N 
ATOM     11  C   UNL     1      35.861 -23.368 -14.088  0.00  0.00    +0.112 C 
ATOM     12  C   UNL     1      36.128 -23.292 -15.554  0.00  0.00    +0.112 C 
ENDBRANCH   3  10
BRANCH   4  13
ATOM     13  N   UNL     1      29.639 -22.850 -15.561  0.00  0.00    -0.302 N 
ATOM     14  C   UNL     1      28.993 -23.378 -16.759  0.00  0.00    +0.112 C 
ATOM     15  C   UNL     1      28.625 -23.889 -15.406  0.00  0.00    +0.112 C 
ENDBRANCH   4  13
BRANCH   5  16
ATOM     16  C   UNL     1      34.118 -22.946 -17.591  0.00  0.00    +0.168 C 
BRANCH  16  17
ATOM     17  O   UNL     1      33.719 -23.775 -18.662  0.00  0.00    -0.377 OA
ATOM     18  H   UNL     1      33.156 -23.270 -19.271  0.00  0.00    +0.211 HD
ENDBRANCH  16  17
ENDBRANCH   5  16
TORSDOF 4
ENDMDL
MODEL 9
REMARK VINA RESULT:      -6.9     10.077     12.355
REMARK  Name = 394347
REMARK  4 active torsions:
REMARK  status: ('A' for Active; 'I' for Inactive)
REMARK    1  A    between atoms: C_3  and  N_10
REMARK    2  A    between atoms: C_4  and  N_13
REMARK    3  A    between atoms: C_5  and  C_16
REMARK    4  A    between atoms: C_16  and  O_17
REMARK                            x       y       z     vdW  Elec       q    Type
REMARK                         _______ _______ _______ _____ _____    ______ ____
ROOT
ATOM      1  O   UNL     1      33.443 -24.350 -13.154  0.00  0.00    -0.285 OA
ATOM      2  O   UNL     1      31.446 -22.449 -17.695  0.00  0.00    -0.286 OA
ATOM      3  C   UNL     1      31.022 -23.081 -15.457  0.00  0.00    +0.089 C 
ATOM      4  C   UNL     1      33.867 -23.718 -15.393  0.00  0.00    +0.086 C 
ATOM      5  C   UNL     1      31.538 -23.562 -14.314  0.00  0.00    +0.064 C 
ATOM      6  C   UNL     1      33.351 -23.237 -16.536  0.00  0.00    +0.035 C 
ATOM      7  C   UNL     1      32.983 -23.910 -14.207  0.00  0.00    +0.208 C 
ATOM      8  C   UNL     1      31.905 -22.889 -16.642  0.00  0.00    +0.206 C 
ATOM      9  C   UNL     1      34.143 -23.002 -17.795  0.00  0.00    +0.036 C 
ENDROOT
BRANCH   3  10
ATOM     10  N   UNL     1      29.716 -22.731 -15.669  0.00  0.00    -0.302 N 
ATOM     11  C   UNL     1      28.697 -23.741 -15.395  0.00  0.00    +0.112 C 
ATOM     12  C   UNL     1      29.029 -23.352 -16.797  0.00  0.00    +0.112 C 
ENDBRANCH   3  10
BRANCH   4  13
ATOM     13  N   UNL     1      35.172 -24.068 -15.181  0.00  0.00    -0.302 N 
ATOM     14  C   UNL     1      36.199 -23.148 -15.660  0.00  0.00    +0.112 C 
ATOM     15  C   UNL     1      35.925 -23.291 -14.200  0.00  0.00    +0.112 C 
ENDBRANCH   4  13
BRANCH   5  16
ATOM     16  C   UNL     1      30.746 -23.797 -13.054  0.00  0.00    +0.168 C 
BRANCH  16  17
ATOM     17  O   UNL     1      30.640 -25.186 -12.816  0.00  0.00    -0.377 OA
ATOM     18  H   UNL     1      30.031 -25.342 -12.076  0.00  0.00    +0.211 HD
ENDBRANCH  16  17
ENDBRANCH   5  16
TORSDOF 4
ENDMDL
