MODEL 1
REMARK VINA RESULT:      -9.5      0.000      0.000
REMARK  Name = 5509
REMARK  5 active torsions:
REMARK  status: ('A' for Active; 'I' for Inactive)
REMARK    1  A    between atoms: C_2  and  C_16
REMARK    2  A    between atoms: C_3  and  C_8
REMARK    3  A    between atoms: C_8  and  C_9
REMARK    4  A    between atoms: C_16  and  C_18
REMARK    5  A    between atoms: C_18  and  O_19
REMARK                            x       y       z     vdW  Elec       q    Type
REMARK                         _______ _______ _______ _____ _____    ______ ____
ROOT
ATOM      1  N   UNL     1      34.616 -16.569 -23.062  0.00  0.00    -0.286 N 
ATOM      2  C   UNL     1      34.028 -15.351 -22.844  0.00  0.00    +0.040 C 
ATOM      3  C   UNL     1      35.074 -17.024 -21.882  0.00  0.00    +0.091 C 
ATOM      4  C   UNL     1      34.133 -15.065 -21.500  0.00  0.00    +0.012 C 
ATOM      5  C   UNL     1      34.808 -16.149 -20.889  0.00  0.00    +0.019 C 
ATOM      6  C   UNL     1      34.714 -17.233 -24.344  0.00  0.00    +0.117 C 
ENDROOT
BRANCH   3   8
ATOM      7  O   UNL     1      36.885 -18.518 -22.248  0.00  0.00    -0.285 OA
ATOM      8  C   UNL     1      35.770 -18.319 -21.734  0.00  0.00    +0.209 C 
BRANCH   8   9
ATOM      9  C   UNL     1      35.184 -19.405 -20.965  0.00  0.00    +0.040 C 
ATOM     10  C   UNL     1      33.798 -19.546 -20.901  0.00  0.00    +0.003 C 
ATOM     11  C   UNL     1      36.009 -20.305 -20.289  0.00  0.00    +0.003 C 
ATOM     12  C   UNL     1      34.060 -21.487 -19.486  0.00  0.00    -0.022 C 
ATOM     13  C   UNL     1      33.236 -20.588 -20.162  0.00  0.00    -0.004 C 
ATOM     14  C   UNL     1      35.446 -21.346 -19.550  0.00  0.00    -0.004 C 
ATOM     15  C   UNL     1      33.460 -22.601 -18.697  0.00  0.00    +0.031 C 
ENDBRANCH   8   9
ENDBRANCH   3   8
BRANCH   2  16
ATOM     16  C   UNL     1      33.414 -14.564 -23.933  0.00  0.00    +0.151 C 
BRANCH  16  18
ATOM     17  O   UNL     1      32.178 -12.750 -22.910  0.00  0.00    -0.250 OA
ATOM     18  C   UNL     1      33.191 -13.134 -23.481  0.00  0.00    +0.320 C 
BRANCH  18  19
ATOM     19  O   UNL     1      34.213 -12.307 -23.816  0.00  0.00    -0.480 OA
ATOM     20  H   UNL     1      34.533 -12.292 -24.697  0.00  0.00    +0.295 HD
ENDBRANCH  18  19
ENDBRANCH  16  18
ENDBRANCH   2  16
TORSDOF 5
ENDMDL
MODEL 2
REMARK VINA RESULT:      -9.4      1.713      2.711
REMARK  Name = 5509
REMARK  5 active torsions:
REMARK  status: ('A' for Active; 'I' for Inactive)
REMARK    1  A    between atoms: C_2  and  C_16
REMARK    2  A    between atoms: C_3  and  C_8
REMARK    3  A    between atoms: C_8  and  C_9
REMARK    4  A    between atoms: C_16  and  C_18
REMARK    5  A    between atoms: C_18  and  O_19
REMARK                            x       y       z     vdW  Elec       q    Type
REMARK                         _______ _______ _______ _____ _____    ______ ____
ROOT
ATOM      1  N   UNL     1      34.709 -16.799 -23.235  0.00  0.00    -0.286 N 
ATOM      2  C   UNL     1      34.151 -16.547 -24.462  0.00  0.00    +0.040 C 
ATOM      3  C   UNL     1      35.185 -18.057 -23.247  0.00  0.00    +0.091 C 
ATOM      4  C   UNL     1      34.295 -17.681 -25.231  0.00  0.00    +0.012 C 
ATOM      5  C   UNL     1      34.962 -18.648 -24.440  0.00  0.00    +0.019 C 
ATOM      6  C   UNL     1      34.767 -15.860 -22.135  0.00  0.00    +0.117 C 
ENDROOT
BRANCH   3   8
ATOM      7  O   UNL     1      37.047 -18.427 -21.821  0.00  0.00    -0.285 OA
ATOM      8  C   UNL     1      35.858 -18.674 -22.086  0.00  0.00    +0.209 C 
BRANCH   8   9
ATOM      9  C   UNL     1      35.148 -19.581 -21.199  0.00  0.00    +0.040 C 
ATOM     10  C   UNL     1      35.857 -20.508 -20.435  0.00  0.00    +0.003 C 
ATOM     11  C   UNL     1      33.756 -19.525 -21.113  0.00  0.00    +0.003 C 
ATOM     12  C   UNL     1      33.784 -21.323 -19.499  0.00  0.00    -0.022 C 
ATOM     13  C   UNL     1      35.175 -21.379 -19.585  0.00  0.00    -0.004 C 
ATOM     14  C   UNL     1      33.075 -20.396 -20.262  0.00  0.00    -0.004 C 
ATOM     15  C   UNL     1      33.055 -22.252 -18.589  0.00  0.00    +0.031 C 
ENDBRANCH   8   9
ENDBRANCH   3   8
BRANCH   2  16
ATOM     16  C   UNL     1      33.531 -15.249 -24.796  0.00  0.00    +0.151 C 
BRANCH  16  18
ATOM     17  O   UNL     1      33.808 -14.429 -27.057  0.00  0.00    -0.250 OA
ATOM     18  C   UNL     1      33.233 -15.181 -26.280  0.00  0.00    +0.320 C 
BRANCH  18  19
ATOM     19  O   UNL     1      32.226 -16.009 -26.657  0.00  0.00    -0.480 OA
ATOM     20  H   UNL     1      31.338 -15.712 -26.623  0.00  0.00    +0.295 HD
ENDBRANCH  18  19
ENDBRANCH  16  18
ENDBRANCH   2  16
TORSDOF 5
ENDMDL
MODEL 3
REMARK VINA RESULT:      -9.2      5.497      9.321
REMARK  Name = 5509
REMARK  5 active torsions:
REMARK  status: ('A' for Active; 'I' for Inactive)
REMARK    1  A    between atoms: C_2  and  C_16
REMARK    2  A    between atoms: C_3  and  C_8
REMARK    3  A    between atoms: C_8  and  C_9
REMARK    4  A    between atoms: C_16  and  C_18
REMARK    5  A    between atoms: C_18  and  O_19
REMARK                            x       y       z     vdW  Elec       q    Type
REMARK                         _______ _______ _______ _____ _____    ______ ____
ROOT
ATOM      1  N   UNL     1      32.617 -23.177 -16.300  0.00  0.00    -0.286 N 
ATOM      2  C   UNL     1      32.911 -23.170 -14.961  0.00  0.00    +0.040 C 
ATOM      3  C   UNL     1      33.777 -23.234 -16.977  0.00  0.00    +0.091 C 
ATOM      4  C   UNL     1      34.281 -23.224 -14.829  0.00  0.00    +0.012 C 
ATOM      5  C   UNL     1      34.830 -23.266 -16.134  0.00  0.00    +0.019 C 
ATOM      6  C   UNL     1      31.285 -23.133 -16.863  0.00  0.00    +0.117 C 
ENDROOT
BRANCH   3   8
ATOM      7  O   UNL     1      33.714 -24.318 -19.090  0.00  0.00    -0.285 OA
ATOM      8  C   UNL     1      33.847 -23.259 -18.453  0.00  0.00    +0.209 C 
BRANCH   8   9
ATOM      9  C   UNL     1      34.057 -22.039 -19.217  0.00  0.00    +0.040 C 
ATOM     10  C   UNL     1      32.964 -21.277 -19.629  0.00  0.00    +0.003 C 
ATOM     11  C   UNL     1      35.353 -21.632 -19.538  0.00  0.00    +0.003 C 
ATOM     12  C   UNL     1      34.461 -19.701 -20.684  0.00  0.00    -0.022 C 
ATOM     13  C   UNL     1      33.166 -20.108 -20.363  0.00  0.00    -0.004 C 
ATOM     14  C   UNL     1      35.554 -20.463 -20.271  0.00  0.00    -0.004 C 
ATOM     15  C   UNL     1      34.677 -18.450 -21.466  0.00  0.00    +0.031 C 
ENDBRANCH   8   9
ENDBRANCH   3   8
BRANCH   2  16
ATOM     16  C   UNL     1      31.862 -23.113 -13.922  0.00  0.00    +0.151 C 
BRANCH  16  18
ATOM     17  O   UNL     1      31.848 -25.528 -14.088  0.00  0.00    -0.250 OA
ATOM     18  C   UNL     1      31.410 -24.514 -13.561  0.00  0.00    +0.320 C 
BRANCH  18  19
ATOM     19  O   UNL     1      30.430 -24.529 -12.622  0.00  0.00    -0.480 OA
ATOM     20  H   UNL     1      29.679 -25.076 -12.739  0.00  0.00    +0.295 HD
ENDBRANCH  18  19
ENDBRANCH  16  18
ENDBRANCH   2  16
TORSDOF 5
ENDMDL
MODEL 4
REMARK VINA RESULT:      -9.1      2.981      5.482
REMARK  Name = 5509
REMARK  5 active torsions:
REMARK  status: ('A' for Active; 'I' for Inactive)
REMARK    1  A    between atoms: C_2  and  C_16
REMARK    2  A    between atoms: C_3  and  C_8
REMARK    3  A    between atoms: C_8  and  C_9
REMARK    4  A    between atoms: C_16  and  C_18
REMARK    5  A    between atoms: C_18  and  O_19
REMARK                            x       y       z     vdW  Elec       q    Type
REMARK                         _______ _______ _______ _____ _____    ______ ____
ROOT
ATOM      1  N   UNL     1      35.053 -20.944 -19.974  0.00  0.00    -0.286 N 
ATOM      2  C   UNL     1      34.781 -19.763 -20.614  0.00  0.00    +0.040 C 
ATOM      3  C   UNL     1      33.884 -21.554 -19.714  0.00  0.00    +0.091 C 
ATOM      4  C   UNL     1      33.413 -19.659 -20.743  0.00  0.00    +0.012 C 
ATOM      5  C   UNL     1      32.844 -20.818 -20.161  0.00  0.00    +0.019 C 
ATOM      6  C   UNL     1      36.377 -21.432 -19.647  0.00  0.00    +0.117 C 
ENDROOT
BRANCH   3   8
ATOM      7  O   UNL     1      34.105 -23.916 -19.603  0.00  0.00    -0.285 OA
ATOM      8  C   UNL     1      33.790 -22.859 -19.029  0.00  0.00    +0.209 C 
BRANCH   8   9
ATOM      9  C   UNL     1      33.344 -22.954 -17.648  0.00  0.00    +0.040 C 
ATOM     10  C   UNL     1      34.272 -23.151 -16.626  0.00  0.00    +0.003 C 
ATOM     11  C   UNL     1      31.985 -22.849 -17.346  0.00  0.00    +0.003 C 
ATOM     12  C   UNL     1      32.486 -23.138 -15.000  0.00  0.00    -0.022 C 
ATOM     13  C   UNL     1      33.843 -23.243 -15.302  0.00  0.00    -0.004 C 
ATOM     14  C   UNL     1      31.557 -22.940 -16.022  0.00  0.00    -0.004 C 
ATOM     15  C   UNL     1      32.027 -23.234 -13.584  0.00  0.00    +0.031 C 
ENDBRANCH   8   9
ENDBRANCH   3   8
BRANCH   2  16
ATOM     16  C   UNL     1      35.845 -18.836 -21.049  0.00  0.00    +0.151 C 
BRANCH  16  18
ATOM     17  O   UNL     1      34.925 -17.174 -22.549  0.00  0.00    -0.250 OA
ATOM     18  C   UNL     1      35.249 -17.491 -21.412  0.00  0.00    +0.320 C 
BRANCH  18  19
ATOM     19  O   UNL     1      35.153 -16.650 -20.351  0.00  0.00    -0.480 OA
ATOM     20  H   UNL     1      34.491 -16.789 -19.703  0.00  0.00    +0.295 HD
ENDBRANCH  18  19
ENDBRANCH  16  18
ENDBRANCH   2  16
TORSDOF 5
ENDMDL
MODEL 5
REMARK VINA RESULT:      -8.9      3.283      5.528
REMARK  Name = 5509
REMARK  5 active torsions:
REMARK  status: ('A' for Active; 'I' for Inactive)
REMARK    1  A    between atoms: C_2  and  C_16
REMARK    2  A    between atoms: C_3  and  C_8
REMARK    3  A    between atoms: C_8  and  C_9
REMARK    4  A    between atoms: C_16  and  C_18
REMARK    5  A    between atoms: C_18  and  O_19
REMARK                            x       y       z     vdW  Elec       q    Type
REMARK                         _______ _______ _______ _____ _____    ______ ____
ROOT
ATOM      1  N   UNL     1      34.296 -20.738 -20.127  0.00  0.00    -0.286 N 
ATOM      2  C   UNL     1      35.267 -19.826 -20.448  0.00  0.00    +0.040 C 
ATOM      3  C   UNL     1      34.891 -21.780 -19.520  0.00  0.00    +0.091 C 
ATOM      4  C   UNL     1      36.477 -20.331 -20.023  0.00  0.00    +0.012 C 
ATOM      5  C   UNL     1      36.224 -21.590 -19.427  0.00  0.00    +0.019 C 
ATOM      6  C   UNL     1      32.883 -20.585 -20.400  0.00  0.00    +0.117 C 
ENDROOT
BRANCH   3   8
ATOM      7  O   UNL     1      33.951 -23.948 -19.759  0.00  0.00    -0.285 OA
ATOM      8  C   UNL     1      34.147 -22.960 -19.032  0.00  0.00    +0.209 C 
BRANCH   8   9
ATOM      9  C   UNL     1      33.632 -23.015 -17.673  0.00  0.00    +0.040 C 
ATOM     10  C   UNL     1      32.258 -22.938 -17.444  0.00  0.00    +0.003 C 
ATOM     11  C   UNL     1      34.512 -23.144 -16.598  0.00  0.00    +0.003 C 
ATOM     12  C   UNL     1      32.644 -23.118 -15.066  0.00  0.00    -0.022 C 
ATOM     13  C   UNL     1      31.764 -22.990 -16.140  0.00  0.00    -0.004 C 
ATOM     14  C   UNL     1      34.017 -23.196 -15.295  0.00  0.00    -0.004 C 
ATOM     15  C   UNL     1      32.116 -23.176 -13.672  0.00  0.00    +0.031 C 
ENDBRANCH   8   9
ENDBRANCH   3   8
BRANCH   2  16
ATOM     16  C   UNL     1      34.961 -18.552 -21.129  0.00  0.00    +0.151 C 
BRANCH  16  18
ATOM     17  O   UNL     1      34.863 -19.551 -23.332  0.00  0.00    -0.250 OA
ATOM     18  C   UNL     1      35.283 -18.660 -22.606  0.00  0.00    +0.320 C 
BRANCH  18  19
ATOM     19  O   UNL     1      36.129 -17.689 -23.036  0.00  0.00    -0.480 OA
ATOM     20  H   UNL     1      36.614 -17.809 -23.829  0.00  0.00    +0.295 HD
ENDBRANCH  18  19
ENDBRANCH  16  18
ENDBRANCH   2  16
TORSDOF 5
ENDMDL
MODEL 6
REMARK VINA RESULT:      -8.9      5.114      9.117
REMARK  Name = 5509
REMARK  5 active torsions:
REMARK  status: ('A' for Active; 'I' for Inactive)
REMARK    1  A    between atoms: C_2  and  C_16
REMARK    2  A    between atoms: C_3  and  C_8
REMARK    3  A    between atoms: C_8  and  C_9
REMARK    4  A    between atoms: C_16  and  C_18
REMARK    5  A    between atoms: C_18  and  O_19
REMARK                            x       y       z     vdW  Elec       q    Type
REMARK                         _______ _______ _______ _____ _____    ______ ____
ROOT
ATOM      1  N   UNL     1      34.723 -22.926 -16.606  0.00  0.00    -0.286 N 
ATOM      2  C   UNL     1      34.166 -23.073 -15.362  0.00  0.00    +0.040 C 
ATOM      3  C   UNL     1      33.743 -23.051 -17.517  0.00  0.00    +0.091 C 
ATOM      4  C   UNL     1      32.816 -23.292 -15.529  0.00  0.00    +0.012 C 
ATOM      5  C   UNL     1      32.552 -23.276 -16.920  0.00  0.00    +0.019 C 
ATOM      6  C   UNL     1      36.125 -22.676 -16.869  0.00  0.00    +0.117 C 
ENDROOT
BRANCH   3   8
ATOM      7  O   UNL     1      34.088 -23.962 -19.683  0.00  0.00    -0.285 OA
ATOM      8  C   UNL     1      33.977 -22.948 -18.972  0.00  0.00    +0.209 C 
BRANCH   8   9
ATOM      9  C   UNL     1      34.070 -21.655 -19.630  0.00  0.00    +0.040 C 
ATOM     10  C   UNL     1      32.913 -20.922 -19.895  0.00  0.00    +0.003 C 
ATOM     11  C   UNL     1      35.317 -21.146 -19.995  0.00  0.00    +0.003 C 
ATOM     12  C   UNL     1      34.248 -19.174 -20.894  0.00  0.00    -0.022 C 
ATOM     13  C   UNL     1      33.003 -19.682 -20.528  0.00  0.00    -0.004 C 
ATOM     14  C   UNL     1      35.405 -19.906 -20.627  0.00  0.00    -0.004 C 
ATOM     15  C   UNL     1      34.344 -17.847 -21.567  0.00  0.00    +0.031 C 
ENDBRANCH   8   9
ENDBRANCH   3   8
BRANCH   2  16
ATOM     16  C   UNL     1      34.964 -22.991 -14.123  0.00  0.00    +0.151 C 
BRANCH  16  18
ATOM     17  O   UNL     1      36.030 -25.158 -13.948  0.00  0.00    -0.250 OA
ATOM     18  C   UNL     1      35.177 -24.376 -13.547  0.00  0.00    +0.320 C 
BRANCH  18  19
ATOM     19  O   UNL     1      34.290 -24.685 -12.567  0.00  0.00    -0.480 OA
ATOM     20  H   UNL     1      33.370 -24.675 -12.748  0.00  0.00    +0.295 HD
ENDBRANCH  18  19
ENDBRANCH  16  18
ENDBRANCH   2  16
TORSDOF 5
ENDMDL
MODEL 7
REMARK VINA RESULT:      -8.9      7.066     11.226
REMARK  Name = 5509
REMARK  5 active torsions:
REMARK  status: ('A' for Active; 'I' for Inactive)
REMARK    1  A    between atoms: C_2  and  C_16
REMARK    2  A    between atoms: C_3  and  C_8
REMARK    3  A    between atoms: C_8  and  C_9
REMARK    4  A    between atoms: C_16  and  C_18
REMARK    5  A    between atoms: C_18  and  O_19
REMARK                            x       y       z     vdW  Elec       q    Type
REMARK                         _______ _______ _______ _____ _____    ______ ____
ROOT
ATOM      1  N   UNL     1      37.069 -24.529 -14.204  0.00  0.00    -0.286 N 
ATOM      2  C   UNL     1      37.847 -25.652 -14.091  0.00  0.00    +0.040 C 
ATOM      3  C   UNL     1      36.018 -24.831 -14.987  0.00  0.00    +0.091 C 
ATOM      4  C   UNL     1      37.250 -26.654 -14.824  0.00  0.00    +0.012 C 
ATOM      5  C   UNL     1      36.073 -26.116 -15.398  0.00  0.00    +0.019 C 
ATOM      6  C   UNL     1      37.346 -23.253 -13.579  0.00  0.00    +0.117 C 
ENDROOT
BRANCH   3   8
ATOM      7  O   UNL     1      34.015 -23.629 -14.558  0.00  0.00    -0.285 OA
ATOM      8  C   UNL     1      34.963 -23.855 -15.330  0.00  0.00    +0.209 C 
BRANCH   8   9
ATOM      9  C   UNL     1      35.004 -23.110 -16.578  0.00  0.00    +0.040 C 
ATOM     10  C   UNL     1      36.165 -22.429 -16.946  0.00  0.00    +0.003 C 
ATOM     11  C   UNL     1      33.882 -23.075 -17.406  0.00  0.00    +0.003 C 
ATOM     12  C   UNL     1      35.082 -21.677 -18.970  0.00  0.00    -0.022 C 
ATOM     13  C   UNL     1      36.203 -21.712 -18.142  0.00  0.00    -0.004 C 
ATOM     14  C   UNL     1      33.922 -22.358 -18.603  0.00  0.00    -0.004 C 
ATOM     15  C   UNL     1      35.124 -20.913 -20.250  0.00  0.00    +0.031 C 
ENDBRANCH   8   9
ENDBRANCH   3   8
BRANCH   2  16
ATOM     16  C   UNL     1      39.090 -25.674 -13.294  0.00  0.00    +0.151 C 
BRANCH  16  18
ATOM     17  O   UNL     1      40.713 -26.777 -14.711  0.00  0.00    -0.250 OA
ATOM     18  C   UNL     1      40.295 -25.742 -14.210  0.00  0.00    +0.320 C 
BRANCH  18  19
ATOM     19  O   UNL     1      40.898 -24.538 -14.382  0.00  0.00    -0.480 OA
ATOM     20  H   UNL     1      40.708 -23.831 -13.796  0.00  0.00    +0.295 HD
ENDBRANCH  18  19
ENDBRANCH  16  18
ENDBRANCH   2  16
TORSDOF 5
ENDMDL
MODEL 8
REMARK VINA RESULT:      -8.8      1.792      2.645
REMARK  Name = 5509
REMARK  5 active torsions:
REMARK  status: ('A' for Active; 'I' for Inactive)
REMARK    1  A    between atoms: C_2  and  C_16
REMARK    2  A    between atoms: C_3  and  C_8
REMARK    3  A    between atoms: C_8  and  C_9
REMARK    4  A    between atoms: C_16  and  C_18
REMARK    5  A    between atoms: C_18  and  O_19
REMARK                            x       y       z     vdW  Elec       q    Type
REMARK                         _______ _______ _______ _____ _____    ______ ____
ROOT
ATOM      1  N   UNL     1      33.585 -15.422 -23.732  0.00  0.00    -0.286 N 
ATOM      2  C   UNL     1      33.517 -15.477 -25.100  0.00  0.00    +0.040 C 
ATOM      3  C   UNL     1      34.443 -16.372 -23.321  0.00  0.00    +0.091 C 
ATOM      4  C   UNL     1      34.355 -16.485 -25.523  0.00  0.00    +0.012 C 
ATOM      5  C   UNL     1      34.947 -17.056 -24.370  0.00  0.00    +0.019 C 
ATOM      6  C   UNL     1      32.854 -14.493 -22.895  0.00  0.00    +0.117 C 
ENDROOT
BRANCH   3   8
ATOM      7  O   UNL     1      34.942 -15.659 -21.111  0.00  0.00    -0.285 OA
ATOM      8  C   UNL     1      34.766 -16.605 -21.898  0.00  0.00    +0.209 C 
BRANCH   8   9
ATOM      9  C   UNL     1      34.872 -17.952 -21.361  0.00  0.00    +0.040 C 
ATOM     10  C   UNL     1      33.719 -18.689 -21.093  0.00  0.00    +0.003 C 
ATOM     11  C   UNL     1      36.128 -18.507 -21.114  0.00  0.00    +0.003 C 
ATOM     12  C   UNL     1      35.077 -20.536 -20.330  0.00  0.00    -0.022 C 
ATOM     13  C   UNL     1      33.822 -19.981 -20.577  0.00  0.00    -0.004 C 
ATOM     14  C   UNL     1      36.230 -19.799 -20.599  0.00  0.00    -0.004 C 
ATOM     15  C   UNL     1      35.187 -21.918 -19.780  0.00  0.00    +0.031 C 
ENDBRANCH   8   9
ENDBRANCH   3   8
BRANCH   2  16
ATOM     16  C   UNL     1      32.662 -14.565 -25.886  0.00  0.00    +0.151 C 
BRANCH  16  18
ATOM     17  O   UNL     1      33.753 -12.406 -25.782  0.00  0.00    -0.250 OA
ATOM     18  C   UNL     1      33.486 -13.413 -26.425  0.00  0.00    +0.320 C 
BRANCH  18  19
ATOM     19  O   UNL     1      33.862 -13.590 -27.717  0.00  0.00    -0.480 OA
ATOM     20  H   UNL     1      34.721 -13.336 -27.994  0.00  0.00    +0.295 HD
ENDBRANCH  18  19
ENDBRANCH  16  18
ENDBRANCH   2  16
TORSDOF 5
ENDMDL
MODEL 9
REMARK VINA RESULT:      -8.8      2.331      6.846
REMARK  Name = 5509
REMARK  5 active torsions:
REMARK  status: ('A' for Active; 'I' for Inactive)
REMARK    1  A    between atoms: C_2  and  C_16
REMARK    2  A    between atoms: C_3  and  C_8
REMARK    3  A    between atoms: C_8  and  C_9
REMARK    4  A    between atoms: C_16  and  C_18
REMARK    5  A    between atoms: C_18  and  O_19
REMARK                            x       y       z     vdW  Elec       q    Type
REMARK                         _______ _______ _______ _____ _____    ______ ____
ROOT
ATOM      1  N   UNL     1      35.396 -19.156 -20.879  0.00  0.00    -0.286 N 
ATOM      2  C   UNL     1      34.848 -20.370 -20.556  0.00  0.00    +0.040 C 
ATOM      3  C   UNL     1      34.391 -18.274 -21.027  0.00  0.00    +0.091 C 
ATOM      4  C   UNL     1      33.479 -20.215 -20.508  0.00  0.00    +0.012 C 
ATOM      5  C   UNL     1      33.195 -18.862 -20.812  0.00  0.00    +0.019 C 
ATOM      6  C   UNL     1      36.811 -18.891 -21.028  0.00  0.00    +0.117 C 
ENDROOT
BRANCH   3   8
ATOM      7  O   UNL     1      35.108 -16.057 -20.565  0.00  0.00    -0.285 OA
ATOM      8  C   UNL     1      34.610 -16.856 -21.377  0.00  0.00    +0.209 C 
BRANCH   8   9
ATOM      9  C   UNL     1      34.267 -16.345 -22.695  0.00  0.00    +0.040 C 
ATOM     10  C   UNL     1      33.573 -15.140 -22.817  0.00  0.00    +0.003 C 
ATOM     11  C   UNL     1      34.630 -17.060 -23.836  0.00  0.00    +0.003 C 
ATOM     12  C   UNL     1      33.606 -15.366 -25.222  0.00  0.00    -0.022 C 
ATOM     13  C   UNL     1      33.243 -14.652 -24.082  0.00  0.00    -0.004 C 
ATOM     14  C   UNL     1      34.300 -16.570 -25.100  0.00  0.00    -0.004 C 
ATOM     15  C   UNL     1      33.255 -14.843 -26.574  0.00  0.00    +0.031 C 
ENDBRANCH   8   9
ENDBRANCH   3   8
BRANCH   2  16
ATOM     16  C   UNL     1      35.672 -21.572 -20.320  0.00  0.00    +0.151 C 
BRANCH  16  18
ATOM     17  O   UNL     1      35.135 -22.627 -18.209  0.00  0.00    -0.250 OA
ATOM     18  C   UNL     1      35.815 -21.822 -18.832  0.00  0.00    +0.320 C 
BRANCH  18  19
ATOM     19  O   UNL     1      36.745 -21.026 -18.247  0.00  0.00    -0.480 OA
ATOM     20  H   UNL     1      36.475 -20.310 -17.706  0.00  0.00    +0.295 HD
ENDBRANCH  18  19
ENDBRANCH  16  18
ENDBRANCH   2  16
TORSDOF 5
ENDMDL
