MODEL 1
REMARK VINA RESULT:      -8.9      0.000      0.000
REMARK  Name = 65115
REMARK  8 active torsions:
REMARK  status: ('A' for Active; 'I' for Inactive)
REMARK    1  A    between atoms: C_2  and  O_7
REMARK    2  A    between atoms: C_3  and  O_9
REMARK    3  A    between atoms: C_4  and  O_11
REMARK    4  A    between atoms: C_5  and  C_23
REMARK    5  A    between atoms: C_6  and  O_13
REMARK    6  A    between atoms: O_13  and  C_14
REMARK    7  A    between atoms: C_19  and  N_22
REMARK    8  A    between atoms: C_23  and  O_24
REMARK                            x       y       z     vdW  Elec       q    Type
REMARK                         _______ _______ _______ _____ _____    ______ ____
ROOT
ATOM      1  O   UNL     1      36.248 -23.533 -13.486  0.00  0.00    -0.316 OA
ATOM      2  C   UNL     1      37.350 -26.159 -13.813  0.00  0.00    +0.173 C 
ATOM      3  C   UNL     1      37.854 -25.195 -12.739  0.00  0.00    +0.169 C 
ATOM      4  C   UNL     1      36.717 -25.401 -14.979  0.00  0.00    +0.210 C 
ATOM      5  C   UNL     1      36.728 -24.237 -12.333  0.00  0.00    +0.177 C 
ATOM      6  C   UNL     1      35.682 -24.394 -14.472  0.00  0.00    +0.318 C 
ENDROOT
BRANCH   2   7
ATOM      7  O   UNL     1      38.427 -26.955 -14.302  0.00  0.00    -0.379 OA
ATOM      8  H   UNL     1      38.085 -27.609 -14.932  0.00  0.00    +0.211 HD
ENDBRANCH   2   7
BRANCH   3   9
ATOM      9  O   UNL     1      38.949 -24.433 -13.254  0.00  0.00    -0.379 OA
ATOM     10  H   UNL     1      39.003 -24.555 -14.214  0.00  0.00    +0.211 HD
ENDBRANCH   3   9
BRANCH   4  11
ATOM     11  O   UNL     1      36.060 -26.329 -15.842  0.00  0.00    -0.377 OA
ATOM     12  H   UNL     1      36.350 -26.182 -16.756  0.00  0.00    +0.211 HD
ENDBRANCH   4  11
BRANCH   6  13
ATOM     13  O   UNL     1      35.239 -23.622 -15.588  0.00  0.00    -0.451 OA
BRANCH  13  14
ATOM     14  C   UNL     1      33.887 -23.460 -15.721  0.00  0.00    +0.141 C 
ATOM     15  C   UNL     1      33.340 -23.220 -16.978  0.00  0.00    +0.039 C 
ATOM     16  C   UNL     1      33.068 -23.535 -14.597  0.00  0.00    +0.039 C 
ATOM     17  C   UNL     1      31.963 -23.054 -17.113  0.00  0.00    +0.027 C 
ATOM     18  C   UNL     1      31.690 -23.369 -14.734  0.00  0.00    +0.027 C 
ATOM     19  C   UNL     1      31.137 -23.129 -15.992  0.00  0.00    +0.143 C 
BRANCH  19  22
ATOM     20  O   UNL     1      28.974 -23.461 -15.266  0.00  0.00    -0.126 OA
ATOM     21  O   UNL     1      29.293 -22.310 -17.108  0.00  0.00    -0.126 OA
ATOM     22  N   UNL     1      29.734 -22.959 -16.129  0.00  0.00    +0.058 N 
ENDBRANCH  19  22
ENDBRANCH  13  14
ENDBRANCH   6  13
BRANCH   5  23
ATOM     23  C   UNL     1      37.189 -23.194 -11.322  0.00  0.00    +0.169 C 
BRANCH  23  24
ATOM     24  O   UNL     1      37.871 -22.164 -12.014  0.00  0.00    -0.379 OA
ATOM     25  H   UNL     1      37.274 -21.760 -12.662  0.00  0.00    +0.211 HD
ENDBRANCH  23  24
ENDBRANCH   5  23
TORSDOF 8
ENDMDL
MODEL 2
REMARK VINA RESULT:      -8.8      3.843      5.904
REMARK  Name = 65115
REMARK  8 active torsions:
REMARK  status: ('A' for Active; 'I' for Inactive)
REMARK    1  A    between atoms: C_2  and  O_7
REMARK    2  A    between atoms: C_3  and  O_9
REMARK    3  A    between atoms: C_4  and  O_11
REMARK    4  A    between atoms: C_5  and  C_23
REMARK    5  A    between atoms: C_6  and  O_13
REMARK    6  A    between atoms: O_13  and  C_14
REMARK    7  A    between atoms: C_19  and  N_22
REMARK    8  A    between atoms: C_23  and  O_24
REMARK                            x       y       z     vdW  Elec       q    Type
REMARK                         _______ _______ _______ _____ _____    ______ ____
ROOT
ATOM      1  O   UNL     1      34.244 -23.866 -15.777  0.00  0.00    -0.316 OA
ATOM      2  C   UNL     1      31.598 -23.315 -14.820  0.00  0.00    +0.173 C 
ATOM      3  C   UNL     1      32.632 -24.054 -13.971  0.00  0.00    +0.169 C 
ATOM      4  C   UNL     1      31.899 -23.472 -16.311  0.00  0.00    +0.210 C 
ATOM      5  C   UNL     1      34.045 -23.620 -14.379  0.00  0.00    +0.177 C 
ATOM      6  C   UNL     1      33.358 -23.119 -16.609  0.00  0.00    +0.318 C 
ENDROOT
BRANCH   2   7
ATOM      7  O   UNL     1      30.292 -23.817 -14.552  0.00  0.00    -0.379 OA
ATOM      8  H   UNL     1      30.129 -24.602 -15.097  0.00  0.00    +0.211 HD
ENDBRANCH   2   7
BRANCH   3   9
ATOM      9  O   UNL     1      32.501 -25.463 -14.174  0.00  0.00    -0.379 OA
ATOM     10  H   UNL     1      33.010 -25.935 -13.498  0.00  0.00    +0.211 HD
ENDBRANCH   3   9
BRANCH   4  11
ATOM     11  O   UNL     1      31.059 -22.590 -17.055  0.00  0.00    -0.377 OA
ATOM     12  H   UNL     1      30.395 -22.200 -16.465  0.00  0.00    +0.211 HD
ENDBRANCH   4  11
BRANCH   6  13
ATOM     13  O   UNL     1      33.612 -23.426 -17.980  0.00  0.00    -0.451 OA
BRANCH  13  14
ATOM     14  C   UNL     1      34.019 -22.389 -18.773  0.00  0.00    +0.141 C 
ATOM     15  C   UNL     1      33.072 -21.592 -19.409  0.00  0.00    +0.039 C 
ATOM     16  C   UNL     1      35.378 -22.138 -18.938  0.00  0.00    +0.039 C 
ATOM     17  C   UNL     1      33.488 -20.535 -20.218  0.00  0.00    +0.027 C 
ATOM     18  C   UNL     1      35.793 -21.080 -19.748  0.00  0.00    +0.027 C 
ATOM     19  C   UNL     1      34.848 -20.278 -20.387  0.00  0.00    +0.143 C 
BRANCH  19  22
ATOM     20  O   UNL     1      35.099 -19.283 -22.452  0.00  0.00    -0.126 OA
ATOM     21  O   UNL     1      35.807 -18.201 -20.677  0.00  0.00    -0.126 OA
ATOM     22  N   UNL     1      35.272 -19.203 -21.211  0.00  0.00    +0.058 N 
ENDBRANCH  19  22
ENDBRANCH  13  14
ENDBRANCH   6  13
BRANCH   5  23
ATOM     23  C   UNL     1      35.127 -24.383 -13.624  0.00  0.00    +0.169 C 
BRANCH  23  24
ATOM     24  O   UNL     1      34.606 -24.783 -12.370  0.00  0.00    -0.379 OA
ATOM     25  H   UNL     1      33.730 -24.387 -12.242  0.00  0.00    +0.211 HD
ENDBRANCH  23  24
ENDBRANCH   5  23
TORSDOF 8
ENDMDL
MODEL 3
REMARK VINA RESULT:      -8.8      4.142      5.513
REMARK  Name = 65115
REMARK  8 active torsions:
REMARK  status: ('A' for Active; 'I' for Inactive)
REMARK    1  A    between atoms: C_2  and  O_7
REMARK    2  A    between atoms: C_3  and  O_9
REMARK    3  A    between atoms: C_4  and  O_11
REMARK    4  A    between atoms: C_5  and  C_23
REMARK    5  A    between atoms: C_6  and  O_13
REMARK    6  A    between atoms: O_13  and  C_14
REMARK    7  A    between atoms: C_19  and  N_22
REMARK    8  A    between atoms: C_23  and  O_24
REMARK                            x       y       z     vdW  Elec       q    Type
REMARK                         _______ _______ _______ _____ _____    ______ ____
ROOT
ATOM      1  O   UNL     1      35.720 -23.452 -16.341  0.00  0.00    -0.316 OA
ATOM      2  C   UNL     1      33.410 -23.663 -14.655  0.00  0.00    +0.173 C 
ATOM      3  C   UNL     1      34.801 -24.087 -14.184  0.00  0.00    +0.169 C 
ATOM      4  C   UNL     1      33.303 -23.726 -16.179  0.00  0.00    +0.210 C 
ATOM      5  C   UNL     1      35.869 -23.275 -14.926  0.00  0.00    +0.177 C 
ATOM      6  C   UNL     1      34.467 -22.979 -16.834  0.00  0.00    +0.318 C 
ENDROOT
BRANCH   2   7
ATOM      7  O   UNL     1      32.418 -24.511 -14.082  0.00  0.00    -0.379 OA
ATOM      8  H   UNL     1      32.846 -25.169 -13.511  0.00  0.00    +0.211 HD
ENDBRANCH   2   7
BRANCH   3   9
ATOM      9  O   UNL     1      34.998 -25.476 -14.459  0.00  0.00    -0.379 OA
ATOM     10  H   UNL     1      34.170 -25.956 -14.302  0.00  0.00    +0.211 HD
ENDBRANCH   3   9
BRANCH   4  11
ATOM     11  O   UNL     1      32.082 -23.112 -16.590  0.00  0.00    -0.377 OA
ATOM     12  H   UNL     1      32.187 -22.147 -16.585  0.00  0.00    +0.211 HD
ENDBRANCH   4  11
BRANCH   6  13
ATOM     13  O   UNL     1      34.391 -23.200 -18.243  0.00  0.00    -0.451 OA
BRANCH  13  14
ATOM     14  C   UNL     1      34.539 -22.100 -19.042  0.00  0.00    +0.141 C 
ATOM     15  C   UNL     1      35.814 -21.663 -19.387  0.00  0.00    +0.039 C 
ATOM     16  C   UNL     1      33.412 -21.425 -19.505  0.00  0.00    +0.039 C 
ATOM     17  C   UNL     1      35.965 -20.542 -20.202  0.00  0.00    +0.027 C 
ATOM     18  C   UNL     1      33.564 -20.303 -20.320  0.00  0.00    +0.027 C 
ATOM     19  C   UNL     1      34.840 -19.862 -20.669  0.00  0.00    +0.143 C 
BRANCH  19  22
ATOM     20  O   UNL     1      34.766 -18.826 -22.728  0.00  0.00    -0.126 OA
ATOM     21  O   UNL     1      35.349 -17.635 -20.978  0.00  0.00    -0.126 OA
ATOM     22  N   UNL     1      34.993 -18.719 -21.498  0.00  0.00    +0.058 N 
ENDBRANCH  19  22
ENDBRANCH  13  14
ENDBRANCH   6  13
BRANCH   5  23
ATOM     23  C   UNL     1      37.284 -23.708 -14.560  0.00  0.00    +0.169 C 
BRANCH  23  24
ATOM     24  O   UNL     1      37.665 -24.774 -15.410  0.00  0.00    -0.379 OA
ATOM     25  H   UNL     1      38.590 -25.009 -15.239  0.00  0.00    +0.211 HD
ENDBRANCH  23  24
ENDBRANCH   5  23
TORSDOF 8
ENDMDL
MODEL 4
REMARK VINA RESULT:      -8.7      2.961      4.231
REMARK  Name = 65115
REMARK  8 active torsions:
REMARK  status: ('A' for Active; 'I' for Inactive)
REMARK    1  A    between atoms: C_2  and  O_7
REMARK    2  A    between atoms: C_3  and  O_9
REMARK    3  A    between atoms: C_4  and  O_11
REMARK    4  A    between atoms: C_5  and  C_23
REMARK    5  A    between atoms: C_6  and  O_13
REMARK    6  A    between atoms: O_13  and  C_14
REMARK    7  A    between atoms: C_19  and  N_22
REMARK    8  A    between atoms: C_23  and  O_24
REMARK                            x       y       z     vdW  Elec       q    Type
REMARK                         _______ _______ _______ _____ _____    ______ ____
ROOT
ATOM      1  O   UNL     1      36.708 -24.865 -14.352  0.00  0.00    -0.316 OA
ATOM      2  C   UNL     1      35.977 -24.409 -11.618  0.00  0.00    +0.173 C 
ATOM      3  C   UNL     1      37.201 -25.239 -12.004  0.00  0.00    +0.169 C 
ATOM      4  C   UNL     1      34.939 -24.406 -12.740  0.00  0.00    +0.210 C 
ATOM      5  C   UNL     1      37.739 -24.770 -13.360  0.00  0.00    +0.177 C 
ATOM      6  C   UNL     1      35.586 -24.029 -14.075  0.00  0.00    +0.318 C 
ENDROOT
BRANCH   2   7
ATOM      7  O   UNL     1      35.383 -24.933 -10.433  0.00  0.00    -0.379 OA
ATOM      8  H   UNL     1      34.820 -24.255 -10.026  0.00  0.00    +0.211 HD
ENDBRANCH   2   7
BRANCH   3   9
ATOM      9  O   UNL     1      36.835 -26.618 -12.100  0.00  0.00    -0.379 OA
ATOM     10  H   UNL     1      36.751 -26.993 -11.210  0.00  0.00    +0.211 HD
ENDBRANCH   3   9
BRANCH   4  11
ATOM     11  O   UNL     1      33.925 -23.446 -12.441  0.00  0.00    -0.377 OA
ATOM     12  H   UNL     1      33.531 -23.124 -13.266  0.00  0.00    +0.211 HD
ENDBRANCH   4  11
BRANCH   6  13
ATOM     13  O   UNL     1      34.603 -24.188 -15.098  0.00  0.00    -0.451 OA
BRANCH  13  14
ATOM     14  C   UNL     1      34.773 -23.439 -16.230  0.00  0.00    +0.141 C 
ATOM     15  C   UNL     1      33.751 -23.371 -17.172  0.00  0.00    +0.039 C 
ATOM     16  C   UNL     1      35.966 -22.751 -16.431  0.00  0.00    +0.039 C 
ATOM     17  C   UNL     1      33.924 -22.608 -18.326  0.00  0.00    +0.027 C 
ATOM     18  C   UNL     1      36.138 -21.988 -17.586  0.00  0.00    +0.027 C 
ATOM     19  C   UNL     1      35.117 -21.915 -18.533  0.00  0.00    +0.143 C 
BRANCH  19  22
ATOM     20  O   UNL     1      36.421 -21.121 -20.261  0.00  0.00    -0.126 OA
ATOM     21  O   UNL     1      34.319 -20.493 -20.163  0.00  0.00    -0.126 OA
ATOM     22  N   UNL     1      35.294 -21.139 -19.708  0.00  0.00    +0.058 N 
ENDBRANCH  19  22
ENDBRANCH  13  14
ENDBRANCH   6  13
BRANCH   5  23
ATOM     23  C   UNL     1      38.914 -25.613 -13.842  0.00  0.00    +0.169 C 
BRANCH  23  24
ATOM     24  O   UNL     1      38.409 -26.713 -14.577  0.00  0.00    -0.379 OA
ATOM     25  H   UNL     1      37.564 -26.996 -14.196  0.00  0.00    +0.211 HD
ENDBRANCH  23  24
ENDBRANCH   5  23
TORSDOF 8
ENDMDL
MODEL 5
REMARK VINA RESULT:      -8.4      7.503     10.300
REMARK  Name = 65115
REMARK  8 active torsions:
REMARK  status: ('A' for Active; 'I' for Inactive)
REMARK    1  A    between atoms: C_2  and  O_7
REMARK    2  A    between atoms: C_3  and  O_9
REMARK    3  A    between atoms: C_4  and  O_11
REMARK    4  A    between atoms: C_5  and  C_23
REMARK    5  A    between atoms: C_6  and  O_13
REMARK    6  A    between atoms: O_13  and  C_14
REMARK    7  A    between atoms: C_19  and  N_22
REMARK    8  A    between atoms: C_23  and  O_24
REMARK                            x       y       z     vdW  Elec       q    Type
REMARK                         _______ _______ _______ _____ _____    ______ ____
ROOT
ATOM      1  O   UNL     1      34.154 -17.202 -21.678  0.00  0.00    -0.316 OA
ATOM      2  C   UNL     1      35.138 -16.964 -24.360  0.00  0.00    +0.173 C 
ATOM      3  C   UNL     1      34.740 -15.744 -23.530  0.00  0.00    +0.169 C 
ATOM      4  C   UNL     1      34.409 -18.218 -23.878  0.00  0.00    +0.210 C 
ATOM      5  C   UNL     1      34.926 -16.049 -22.039  0.00  0.00    +0.177 C 
ATOM      6  C   UNL     1      34.560 -18.384 -22.365  0.00  0.00    +0.318 C 
ENDROOT
BRANCH   2   7
ATOM      7  O   UNL     1      34.831 -16.743 -25.734  0.00  0.00    -0.379 OA
ATOM      8  H   UNL     1      35.655 -16.662 -26.241  0.00  0.00    +0.211 HD
ENDBRANCH   2   7
BRANCH   3   9
ATOM      9  O   UNL     1      33.368 -15.426 -23.772  0.00  0.00    -0.379 OA
ATOM     10  H   UNL     1      33.268 -14.464 -23.849  0.00  0.00    +0.211 HD
ENDBRANCH   3   9
BRANCH   4  11
ATOM     11  O   UNL     1      34.971 -19.363 -24.519  0.00  0.00    -0.377 OA
ATOM     12  H   UNL     1      35.751 -19.098 -25.031  0.00  0.00    +0.211 HD
ENDBRANCH   4  11
BRANCH   6  13
ATOM     13  O   UNL     1      33.741 -19.481 -21.961  0.00  0.00    -0.451 OA
BRANCH  13  14
ATOM     14  C   UNL     1      34.191 -20.224 -20.904  0.00  0.00    +0.141 C 
ATOM     15  C   UNL     1      33.283 -20.924 -20.116  0.00  0.00    +0.039 C 
ATOM     16  C   UNL     1      35.554 -20.273 -20.624  0.00  0.00    +0.039 C 
ATOM     17  C   UNL     1      33.742 -21.681 -19.038  0.00  0.00    +0.027 C 
ATOM     18  C   UNL     1      36.012 -21.030 -19.546  0.00  0.00    +0.027 C 
ATOM     19  C   UNL     1      35.106 -21.735 -18.754  0.00  0.00    +0.143 C 
BRANCH  19  22
ATOM     20  O   UNL     1      36.784 -22.427 -17.330  0.00  0.00    -0.126 OA
ATOM     21  O   UNL     1      34.765 -23.239 -17.040  0.00  0.00    -0.126 OA
ATOM     22  N   UNL     1      35.574 -22.504 -17.656  0.00  0.00    +0.058 N 
ENDBRANCH  19  22
ENDBRANCH  13  14
ENDBRANCH   6  13
BRANCH   5  23
ATOM     23  C   UNL     1      34.468 -14.898 -21.150  0.00  0.00    +0.169 C 
BRANCH  23  24
ATOM     24  O   UNL     1      33.106 -15.097 -20.819  0.00  0.00    -0.379 OA
ATOM     25  H   UNL     1      32.580 -15.152 -21.632  0.00  0.00    +0.211 HD
ENDBRANCH  23  24
ENDBRANCH   5  23
TORSDOF 8
ENDMDL
MODEL 6
REMARK VINA RESULT:      -8.3      2.917      3.545
REMARK  Name = 65115
REMARK  8 active torsions:
REMARK  status: ('A' for Active; 'I' for Inactive)
REMARK    1  A    between atoms: C_2  and  O_7
REMARK    2  A    between atoms: C_3  and  O_9
REMARK    3  A    between atoms: C_4  and  O_11
REMARK    4  A    between atoms: C_5  and  C_23
REMARK    5  A    between atoms: C_6  and  O_13
REMARK    6  A    between atoms: O_13  and  C_14
REMARK    7  A    between atoms: C_19  and  N_22
REMARK    8  A    between atoms: C_23  and  O_24
REMARK                            x       y       z     vdW  Elec       q    Type
REMARK                         _______ _______ _______ _____ _____    ______ ____
ROOT
ATOM      1  O   UNL     1      36.335 -23.669 -13.626  0.00  0.00    -0.316 OA
ATOM      2  C   UNL     1      38.229 -25.817 -13.478  0.00  0.00    +0.173 C 
ATOM      3  C   UNL     1      37.322 -25.451 -12.304  0.00  0.00    +0.169 C 
ATOM      4  C   UNL     1      38.442 -24.618 -14.402  0.00  0.00    +0.210 C 
ATOM      5  C   UNL     1      36.027 -24.818 -12.826  0.00  0.00    +0.177 C 
ATOM      6  C   UNL     1      37.102 -23.986 -14.787  0.00  0.00    +0.318 C 
ENDROOT
BRANCH   2   7
ATOM      7  O   UNL     1      39.492 -26.270 -13.001  0.00  0.00    -0.379 OA
ATOM      8  H   UNL     1      39.853 -26.930 -13.614  0.00  0.00    +0.211 HD
ENDBRANCH   2   7
BRANCH   3   9
ATOM      9  O   UNL     1      37.990 -24.513 -11.456  0.00  0.00    -0.379 OA
ATOM     10  H   UNL     1      38.724 -24.107 -11.941  0.00  0.00    +0.211 HD
ENDBRANCH   3   9
BRANCH   4  11
ATOM     11  O   UNL     1      39.096 -25.053 -15.594  0.00  0.00    -0.377 OA
ATOM     12  H   UNL     1      39.107 -24.329 -16.240  0.00  0.00    +0.211 HD
ENDBRANCH   4  11
BRANCH   6  13
ATOM     13  O   UNL     1      37.375 -22.794 -15.523  0.00  0.00    -0.451 OA
BRANCH  13  14
ATOM     14  C   UNL     1      36.525 -22.503 -16.553  0.00  0.00    +0.141 C 
ATOM     15  C   UNL     1      36.967 -21.717 -17.613  0.00  0.00    +0.039 C 
ATOM     16  C   UNL     1      35.223 -22.995 -16.535  0.00  0.00    +0.039 C 
ATOM     17  C   UNL     1      36.101 -21.420 -18.664  0.00  0.00    +0.027 C 
ATOM     18  C   UNL     1      34.356 -22.698 -17.587  0.00  0.00    +0.027 C 
ATOM     19  C   UNL     1      34.795 -21.911 -18.652  0.00  0.00    +0.143 C 
BRANCH  19  22
ATOM     20  O   UNL     1      34.235 -20.718 -20.543  0.00  0.00    -0.126 OA
ATOM     21  O   UNL     1      32.832 -22.241 -19.815  0.00  0.00    -0.126 OA
ATOM     22  N   UNL     1      33.911 -21.609 -19.721  0.00  0.00    +0.058 N 
ENDBRANCH  19  22
ENDBRANCH  13  14
ENDBRANCH   6  13
BRANCH   5  23
ATOM     23  C   UNL     1      35.112 -24.355 -11.698  0.00  0.00    +0.169 C 
BRANCH  23  24
ATOM     24  O   UNL     1      35.329 -25.183 -10.571  0.00  0.00    -0.379 OA
ATOM     25  H   UNL     1      34.709 -25.929 -10.593  0.00  0.00    +0.211 HD
ENDBRANCH  23  24
ENDBRANCH   5  23
TORSDOF 8
ENDMDL
MODEL 7
REMARK VINA RESULT:      -8.2      1.950      3.447
REMARK  Name = 65115
REMARK  8 active torsions:
REMARK  status: ('A' for Active; 'I' for Inactive)
REMARK    1  A    between atoms: C_2  and  O_7
REMARK    2  A    between atoms: C_3  and  O_9
REMARK    3  A    between atoms: C_4  and  O_11
REMARK    4  A    between atoms: C_5  and  C_23
REMARK    5  A    between atoms: C_6  and  O_13
REMARK    6  A    between atoms: O_13  and  C_14
REMARK    7  A    between atoms: C_19  and  N_22
REMARK    8  A    between atoms: C_23  and  O_24
REMARK                            x       y       z     vdW  Elec       q    Type
REMARK                         _______ _______ _______ _____ _____    ______ ____
ROOT
ATOM      1  O   UNL     1      33.771 -23.766 -15.060  0.00  0.00    -0.316 OA
ATOM      2  C   UNL     1      36.150 -24.015 -13.479  0.00  0.00    +0.173 C 
ATOM      3  C   UNL     1      36.199 -23.774 -14.987  0.00  0.00    +0.169 C 
ATOM      4  C   UNL     1      34.839 -24.688 -13.073  0.00  0.00    +0.210 C 
ATOM      5  C   UNL     1      34.938 -23.023 -15.434  0.00  0.00    +0.177 C 
ATOM      6  C   UNL     1      33.640 -23.931 -13.649  0.00  0.00    +0.318 C 
ENDROOT
BRANCH   2   7
ATOM      7  O   UNL     1      37.242 -24.838 -13.078  0.00  0.00    -0.379 OA
ATOM      8  H   UNL     1      37.488 -25.428 -13.808  0.00  0.00    +0.211 HD
ENDBRANCH   2   7
BRANCH   3   9
ATOM      9  O   UNL     1      36.260 -25.027 -15.672  0.00  0.00    -0.379 OA
ATOM     10  H   UNL     1      37.180 -25.219 -15.911  0.00  0.00    +0.211 HD
ENDBRANCH   3   9
BRANCH   4  11
ATOM     11  O   UNL     1      34.732 -24.688 -11.649  0.00  0.00    -0.377 OA
ATOM     12  H   UNL     1      34.970 -25.564 -11.306  0.00  0.00    +0.211 HD
ENDBRANCH   4  11
BRANCH   6  13
ATOM     13  O   UNL     1      32.464 -24.687 -13.360  0.00  0.00    -0.451 OA
BRANCH  13  14
ATOM     14  C   UNL     1      31.342 -24.370 -14.075  0.00  0.00    +0.141 C 
ATOM     15  C   UNL     1      30.994 -23.035 -14.257  0.00  0.00    +0.039 C 
ATOM     16  C   UNL     1      30.556 -25.385 -14.613  0.00  0.00    +0.039 C 
ATOM     17  C   UNL     1      29.850 -22.712 -14.986  0.00  0.00    +0.027 C 
ATOM     18  C   UNL     1      29.412 -25.060 -15.342  0.00  0.00    +0.027 C 
ATOM     19  C   UNL     1      29.059 -23.724 -15.529  0.00  0.00    +0.143 C 
BRANCH  19  22
ATOM     20  O   UNL     1      27.763 -23.850 -17.432  0.00  0.00    -0.126 OA
ATOM     21  O   UNL     1      27.024 -22.660 -15.741  0.00  0.00    -0.126 OA
ATOM     22  N   UNL     1      27.893 -23.396 -16.269  0.00  0.00    +0.058 N 
ENDBRANCH  19  22
ENDBRANCH  13  14
ENDBRANCH   6  13
BRANCH   5  23
ATOM     23  C   UNL     1      34.887 -22.822 -16.944  0.00  0.00    +0.169 C 
BRANCH  23  24
ATOM     24  O   UNL     1      36.181 -22.472 -17.398  0.00  0.00    -0.379 OA
ATOM     25  H   UNL     1      36.114 -21.749 -18.041  0.00  0.00    +0.211 HD
ENDBRANCH  23  24
ENDBRANCH   5  23
TORSDOF 8
ENDMDL
MODEL 8
REMARK VINA RESULT:      -8.1      8.863     11.940
REMARK  Name = 65115
REMARK  8 active torsions:
REMARK  status: ('A' for Active; 'I' for Inactive)
REMARK    1  A    between atoms: C_2  and  O_7
REMARK    2  A    between atoms: C_3  and  O_9
REMARK    3  A    between atoms: C_4  and  O_11
REMARK    4  A    between atoms: C_5  and  C_23
REMARK    5  A    between atoms: C_6  and  O_13
REMARK    6  A    between atoms: O_13  and  C_14
REMARK    7  A    between atoms: C_19  and  N_22
REMARK    8  A    between atoms: C_23  and  O_24
REMARK                            x       y       z     vdW  Elec       q    Type
REMARK                         _______ _______ _______ _____ _____    ______ ____
ROOT
ATOM      1  O   UNL     1      34.328 -15.805 -23.810  0.00  0.00    -0.316 OA
ATOM      2  C   UNL     1      32.728 -14.010 -22.248  0.00  0.00    +0.173 C 
ATOM      3  C   UNL     1      33.003 -13.772 -23.732  0.00  0.00    +0.169 C 
ATOM      4  C   UNL     1      33.826 -14.867 -21.617  0.00  0.00    +0.210 C 
ATOM      5  C   UNL     1      33.242 -15.112 -24.437  0.00  0.00    +0.177 C 
ATOM      6  C   UNL     1      34.070 -16.131 -22.445  0.00  0.00    +0.318 C 
ENDROOT
BRANCH   2   7
ATOM      7  O   UNL     1      32.651 -12.767 -21.557  0.00  0.00    -0.379 OA
ATOM      8  H   UNL     1      33.273 -12.771 -20.812  0.00  0.00    +0.211 HD
ENDBRANCH   2   7
BRANCH   3   9
ATOM      9  O   UNL     1      34.166 -12.954 -23.880  0.00  0.00    -0.379 OA
ATOM     10  H   UNL     1      34.201 -12.309 -23.157  0.00  0.00    +0.211 HD
ENDBRANCH   3   9
BRANCH   4  11
ATOM     11  O   UNL     1      33.423 -15.256 -20.304  0.00  0.00    -0.377 OA
ATOM     12  H   UNL     1      32.481 -15.059 -20.183  0.00  0.00    +0.211 HD
ENDBRANCH   4  11
BRANCH   6  13
ATOM     13  O   UNL     1      35.198 -16.807 -21.890  0.00  0.00    -0.451 OA
BRANCH  13  14
ATOM     14  C   UNL     1      34.967 -18.045 -21.356  0.00  0.00    +0.141 C 
ATOM     15  C   UNL     1      36.039 -18.839 -20.963  0.00  0.00    +0.039 C 
ATOM     16  C   UNL     1      33.660 -18.501 -21.210  0.00  0.00    +0.039 C 
ATOM     17  C   UNL     1      35.803 -20.101 -20.418  0.00  0.00    +0.027 C 
ATOM     18  C   UNL     1      33.424 -19.764 -20.665  0.00  0.00    +0.027 C 
ATOM     19  C   UNL     1      34.496 -20.563 -20.269  0.00  0.00    +0.143 C 
BRANCH  19  22
ATOM     20  O   UNL     1      35.223 -22.507 -19.265  0.00  0.00    -0.126 OA
ATOM     21  O   UNL     1      33.081 -22.289 -19.692  0.00  0.00    -0.126 OA
ATOM     22  N   UNL     1      34.255 -21.848 -19.716  0.00  0.00    +0.058 N 
ENDBRANCH  19  22
ENDBRANCH  13  14
ENDBRANCH   6  13
BRANCH   5  23
ATOM     23  C   UNL     1      33.602 -14.938 -25.908  0.00  0.00    +0.169 C 
BRANCH  23  24
ATOM     24  O   UNL     1      32.940 -15.939 -26.658  0.00  0.00    -0.379 OA
ATOM     25  H   UNL     1      31.981 -15.837 -26.558  0.00  0.00    +0.211 HD
ENDBRANCH  23  24
ENDBRANCH   5  23
TORSDOF 8
ENDMDL
MODEL 9
REMARK VINA RESULT:      -8.1      3.073      7.152
REMARK  Name = 65115
REMARK  8 active torsions:
REMARK  status: ('A' for Active; 'I' for Inactive)
REMARK    1  A    between atoms: C_2  and  O_7
REMARK    2  A    between atoms: C_3  and  O_9
REMARK    3  A    between atoms: C_4  and  O_11
REMARK    4  A    between atoms: C_5  and  C_23
REMARK    5  A    between atoms: C_6  and  O_13
REMARK    6  A    between atoms: O_13  and  C_14
REMARK    7  A    between atoms: C_19  and  N_22
REMARK    8  A    between atoms: C_23  and  O_24
REMARK                            x       y       z     vdW  Elec       q    Type
REMARK                         _______ _______ _______ _____ _____    ______ ____
ROOT
ATOM      1  O   UNL     1      33.867 -23.123 -15.512  0.00  0.00    -0.316 OA
ATOM      2  C   UNL     1      32.025 -24.615 -13.900  0.00  0.00    +0.173 C 
ATOM      3  C   UNL     1      31.563 -23.752 -15.073  0.00  0.00    +0.169 C 
ATOM      4  C   UNL     1      33.361 -24.120 -13.346  0.00  0.00    +0.210 C 
ATOM      5  C   UNL     1      32.681 -23.654 -16.117  0.00  0.00    +0.177 C 
ATOM      6  C   UNL     1      34.384 -23.951 -14.472  0.00  0.00    +0.318 C 
ENDROOT
BRANCH   2   7
ATOM      7  O   UNL     1      31.051 -24.592 -12.860  0.00  0.00    -0.379 OA
ATOM      8  H   UNL     1      31.360 -25.130 -12.114  0.00  0.00    +0.211 HD
ENDBRANCH   2   7
BRANCH   3   9
ATOM      9  O   UNL     1      31.245 -22.438 -14.607  0.00  0.00    -0.379 OA
ATOM     10  H   UNL     1      31.564 -21.783 -15.246  0.00  0.00    +0.211 HD
ENDBRANCH   3   9
BRANCH   4  11
ATOM     11  O   UNL     1      33.867 -25.076 -12.414  0.00  0.00    -0.377 OA
ATOM     12  H   UNL     1      33.215 -25.784 -12.291  0.00  0.00    +0.211 HD
ENDBRANCH   4  11
BRANCH   6  13
ATOM     13  O   UNL     1      35.553 -23.351 -13.915  0.00  0.00    -0.451 OA
BRANCH  13  14
ATOM     14  C   UNL     1      36.735 -24.009 -14.120  0.00  0.00    +0.141 C 
ATOM     15  C   UNL     1      37.564 -23.628 -15.170  0.00  0.00    +0.039 C 
ATOM     16  C   UNL     1      37.099 -25.055 -13.277  0.00  0.00    +0.039 C 
ATOM     17  C   UNL     1      38.768 -24.298 -15.379  0.00  0.00    +0.027 C 
ATOM     18  C   UNL     1      38.304 -25.726 -13.487  0.00  0.00    +0.027 C 
ATOM     19  C   UNL     1      39.139 -25.346 -14.538  0.00  0.00    +0.143 C 
BRANCH  19  22
ATOM     20  O   UNL     1      41.002 -26.460 -13.759  0.00  0.00    -0.126 OA
ATOM     21  O   UNL     1      40.777 -26.188 -15.926  0.00  0.00    -0.126 OA
ATOM     22  N   UNL     1      40.365 -26.030 -14.751  0.00  0.00    +0.058 N 
ENDBRANCH  19  22
ENDBRANCH  13  14
ENDBRANCH   6  13
BRANCH   5  23
ATOM     23  C   UNL     1      32.313 -22.738 -17.278  0.00  0.00    +0.169 C 
BRANCH  23  24
ATOM     24  O   UNL     1      30.913 -22.532 -17.265  0.00  0.00    -0.379 OA
ATOM     25  H   UNL     1      30.675 -21.972 -16.510  0.00  0.00    +0.211 HD
ENDBRANCH  23  24
ENDBRANCH   5  23
TORSDOF 8
ENDMDL
