MODEL 1
REMARK VINA RESULT:     -10.0      0.000      0.000
REMARK  Name = 71587773
REMARK  7 active torsions:
REMARK  status: ('A' for Active; 'I' for Inactive)
REMARK    1  A    between atoms: C_1  and  C_17
REMARK    2  A    between atoms: C_1  and  C_20
REMARK    3  A    between atoms: C_4  and  N_6
REMARK    4  A    between atoms: N_6  and  C_10
REMARK    5  A    between atoms: C_11  and  O_15
REMARK    6  A    between atoms: C_20  and  N_21
REMARK    7  A    between atoms: C_29  and  C_35
REMARK                            x       y       z     vdW  Elec       q    Type
REMARK                         _______ _______ _______ _____ _____    ______ ____
ROOT
ATOM      1  C   UNL     1      31.464 -23.635 -15.692  0.00  0.00    -0.021 C 
ATOM      2  C   UNL     1      32.433 -22.896 -14.734  0.00  0.00    -0.023 C 
ATOM      3  C   UNL     1      31.074 -24.936 -14.956  0.00  0.00    -0.004 C 
ATOM      4  C   UNL     1      32.729 -23.859 -13.579  0.00  0.00    -0.062 C 
ATOM      5  C   UNL     1      31.454 -24.693 -13.500  0.00  0.00    -0.021 C 
ENDROOT
BRANCH   4   6
ATOM      6  N   UNL     1      33.904 -24.680 -13.867  0.00  0.00    +0.388 N 
ATOM      7  H   UNL     1      33.961 -24.839 -14.873  0.00  0.00    -0.084 HD
ATOM      8  H   UNL     1      33.810 -25.567 -13.370  0.00  0.00    -0.084 HD
BRANCH   6  10
ATOM      9  O   UNL     1      37.705 -24.175 -12.148  0.00  0.00    -0.351 OA
ATOM     10  C   UNL     1      35.129 -24.024 -13.417  0.00  0.00    -0.029 C 
ATOM     11  C   UNL     1      36.361 -24.581 -14.143  0.00  0.00    +0.126 C 
ATOM     12  C   UNL     1      35.285 -24.173 -11.900  0.00  0.00    +0.013 C 
ATOM     13  C   UNL     1      37.636 -23.970 -13.562  0.00  0.00    +0.169 C 
ATOM     14  C   UNL     1      36.614 -23.571 -11.454  0.00  0.00    +0.140 C 
BRANCH  11  15
ATOM     15  O   UNL     1      36.423 -25.998 -13.977  0.00  0.00    -0.353 OA
ATOM     16  C   UNL     1      36.804 -26.644 -15.181  0.00  0.00    +0.174 C 
ENDBRANCH  11  15
ENDBRANCH   6  10
ENDBRANCH   4   6
BRANCH   1  17
ATOM     17  C   UNL     1      30.220 -22.773 -15.954  0.00  0.00    -0.002 C 
ATOM     18  C   UNL     1      29.115 -23.615 -16.582  0.00  0.00    -0.000 C 
ATOM     19  C   UNL     1      29.742 -22.128 -14.657  0.00  0.00    -0.000 C 
ENDBRANCH   1  17
BRANCH   1  20
ATOM     20  C   UNL     1      32.137 -23.951 -17.034  0.00  0.00    -0.077 C 
BRANCH  20  21
ATOM     21  N   UNL     1      33.216 -23.006 -17.319  0.00  0.00    +0.390 N 
ATOM     22  N   UNL     1      36.581 -20.986 -18.806  0.00  0.00    -0.249 NA
ATOM     23  C   UNL     1      34.528 -23.632 -17.112  0.00  0.00    -0.071 C 
ATOM     24  C   UNL     1      33.102 -22.499 -18.699  0.00  0.00    -0.049 C 
ATOM     25  C   UNL     1      35.629 -22.573 -17.218  0.00  0.00    +0.023 C 
ATOM     26  C   UNL     1      34.271 -21.642 -19.115  0.00  0.00    -0.030 C 
ATOM     27  C   UNL     1      35.494 -21.710 -18.445  0.00  0.00    +0.051 C 
ATOM     28  C   UNL     1      34.186 -20.806 -20.231  0.00  0.00    +0.000 C 
ATOM     29  C   UNL     1      35.289 -20.059 -20.624  0.00  0.00    +0.090 C 
ATOM     30  C   UNL     1      36.452 -20.182 -19.884  0.00  0.00    +0.102 C 
ATOM     31  H   UNL     1      33.130 -22.221 -16.674  0.00  0.00    -0.079 HD
BRANCH  29  35
ATOM     32  F   UNL     1      36.383 -18.475 -22.044  0.00  0.00    -0.166 F 
ATOM     33  F   UNL     1      34.931 -19.791 -22.974  0.00  0.00    -0.166 F 
ATOM     34  F   UNL     1      34.261 -18.187 -21.668  0.00  0.00    -0.166 F 
ATOM     35  C   UNL     1      35.219 -19.151 -21.800  0.00  0.00    +0.420 C 
ENDBRANCH  29  35
ENDBRANCH  20  21
ENDBRANCH   1  20
TORSDOF 7
ENDMDL
MODEL 2
REMARK VINA RESULT:      -9.2      0.968      1.924
REMARK  Name = 71587773
REMARK  7 active torsions:
REMARK  status: ('A' for Active; 'I' for Inactive)
REMARK    1  A    between atoms: C_1  and  C_17
REMARK    2  A    between atoms: C_1  and  C_20
REMARK    3  A    between atoms: C_4  and  N_6
REMARK    4  A    between atoms: N_6  and  C_10
REMARK    5  A    between atoms: C_11  and  O_15
REMARK    6  A    between atoms: C_20  and  N_21
REMARK    7  A    between atoms: C_29  and  C_35
REMARK                            x       y       z     vdW  Elec       q    Type
REMARK                         _______ _______ _______ _____ _____    ______ ____
ROOT
ATOM      1  C   UNL     1      31.896 -23.596 -15.480  0.00  0.00    -0.021 C 
ATOM      2  C   UNL     1      32.867 -22.593 -14.803  0.00  0.00    -0.023 C 
ATOM      3  C   UNL     1      32.191 -24.960 -14.818  0.00  0.00    -0.004 C 
ATOM      4  C   UNL     1      33.815 -23.421 -13.930  0.00  0.00    -0.062 C 
ATOM      5  C   UNL     1      32.957 -24.622 -13.544  0.00  0.00    -0.021 C 
ENDROOT
BRANCH   4   6
ATOM      6  N   UNL     1      35.008 -23.817 -14.676  0.00  0.00    +0.388 N 
ATOM      7  H   UNL     1      35.684 -23.054 -14.652  0.00  0.00    -0.084 HD
ATOM      8  H   UNL     1      34.734 -24.022 -15.638  0.00  0.00    -0.084 HD
BRANCH   6  10
ATOM      9  O   UNL     1      37.967 -26.473 -13.319  0.00  0.00    -0.351 OA
ATOM     10  C   UNL     1      35.616 -25.014 -14.101  0.00  0.00    -0.029 C 
ATOM     11  C   UNL     1      36.384 -24.686 -12.814  0.00  0.00    +0.126 C 
ATOM     12  C   UNL     1      36.539 -25.684 -15.123  0.00  0.00    +0.013 C 
ATOM     13  C   UNL     1      37.116 -25.929 -12.306  0.00  0.00    +0.169 C 
ATOM     14  C   UNL     1      37.245 -26.875 -14.483  0.00  0.00    +0.140 C 
BRANCH  11  15
ATOM     15  O   UNL     1      37.352 -23.667 -13.072  0.00  0.00    -0.353 OA
ATOM     16  C   UNL     1      37.534 -22.830 -11.941  0.00  0.00    +0.174 C 
ENDBRANCH  11  15
ENDBRANCH   6  10
ENDBRANCH   4   6
BRANCH   1  17
ATOM     17  C   UNL     1      30.440 -23.177 -15.222  0.00  0.00    -0.002 C 
ATOM     18  C   UNL     1      29.807 -22.651 -16.504  0.00  0.00    -0.000 C 
ATOM     19  C   UNL     1      29.644 -24.352 -14.663  0.00  0.00    -0.000 C 
ENDBRANCH   1  17
BRANCH   1  20
ATOM     20  C   UNL     1      32.129 -23.664 -16.994  0.00  0.00    -0.077 C 
BRANCH  20  21
ATOM     21  N   UNL     1      33.215 -22.775 -17.403  0.00  0.00    +0.390 N 
ATOM     22  N   UNL     1      36.445 -20.889 -19.308  0.00  0.00    -0.249 NA
ATOM     23  C   UNL     1      34.495 -23.493 -17.436  0.00  0.00    -0.071 C 
ATOM     24  C   UNL     1      32.925 -22.183 -18.722  0.00  0.00    -0.049 C 
ATOM     25  C   UNL     1      35.640 -22.501 -17.665  0.00  0.00    +0.023 C 
ATOM     26  C   UNL     1      34.074 -21.380 -19.278  0.00  0.00    -0.030 C 
ATOM     27  C   UNL     1      35.378 -21.563 -18.814  0.00  0.00    +0.051 C 
ATOM     28  C   UNL     1      33.877 -20.477 -20.326  0.00  0.00    +0.000 C 
ATOM     29  C   UNL     1      34.956 -19.780 -20.854  0.00  0.00    +0.090 C 
ATOM     30  C   UNL     1      36.207 -20.019 -20.314  0.00  0.00    +0.102 C 
ATOM     31  H   UNL     1      33.286 -22.024 -16.716  0.00  0.00    -0.079 HD
BRANCH  29  35
ATOM     32  F   UNL     1      34.072 -19.303 -23.025  0.00  0.00    -0.166 F 
ATOM     33  F   UNL     1      34.088 -17.676 -21.590  0.00  0.00    -0.166 F 
ATOM     34  F   UNL     1      35.953 -18.358 -22.477  0.00  0.00    -0.166 F 
ATOM     35  C   UNL     1      34.769 -18.803 -21.960  0.00  0.00    +0.420 C 
ENDBRANCH  29  35
ENDBRANCH  20  21
ENDBRANCH   1  20
TORSDOF 7
ENDMDL
MODEL 3
REMARK VINA RESULT:      -8.3     11.899     16.362
REMARK  Name = 71587773
REMARK  7 active torsions:
REMARK  status: ('A' for Active; 'I' for Inactive)
REMARK    1  A    between atoms: C_1  and  C_17
REMARK    2  A    between atoms: C_1  and  C_20
REMARK    3  A    between atoms: C_4  and  N_6
REMARK    4  A    between atoms: N_6  and  C_10
REMARK    5  A    between atoms: C_11  and  O_15
REMARK    6  A    between atoms: C_20  and  N_21
REMARK    7  A    between atoms: C_29  and  C_35
REMARK                            x       y       z     vdW  Elec       q    Type
REMARK                         _______ _______ _______ _____ _____    ______ ____
ROOT
ATOM      1  C   UNL     1      32.375  -9.457 -22.412  0.00  0.00    -0.021 C 
ATOM      2  C   UNL     1      31.196  -8.949 -23.282  0.00  0.00    -0.023 C 
ATOM      3  C   UNL     1      32.779  -8.254 -21.530  0.00  0.00    -0.004 C 
ATOM      4  C   UNL     1      31.081  -7.441 -23.031  0.00  0.00    -0.062 C 
ATOM      5  C   UNL     1      31.595  -7.297 -21.601  0.00  0.00    -0.021 C 
ENDROOT
BRANCH   4   6
ATOM      6  N   UNL     1      31.894  -6.686 -23.984  0.00  0.00    +0.388 N 
ATOM      7  H   UNL     1      31.920  -7.188 -24.871  0.00  0.00    -0.084 HD
ATOM      8  H   UNL     1      32.835  -6.587 -23.600  0.00  0.00    -0.084 HD
BRANCH   6  10
ATOM      9  O   UNL     1      31.742  -2.536 -24.624  0.00  0.00    -0.351 OA
ATOM     10  C   UNL     1      31.341  -5.352 -24.206  0.00  0.00    -0.029 C 
ATOM     11  C   UNL     1      31.776  -4.787 -25.565  0.00  0.00    +0.126 C 
ATOM     12  C   UNL     1      31.755  -4.409 -23.073  0.00  0.00    +0.013 C 
ATOM     13  C   UNL     1      31.292  -3.344 -25.715  0.00  0.00    +0.169 C 
ATOM     14  C   UNL     1      31.257  -2.997 -23.364  0.00  0.00    +0.140 C 
BRANCH  11  15
ATOM     15  O   UNL     1      33.201  -4.796 -25.661  0.00  0.00    -0.353 OA
ATOM     16  C   UNL     1      33.627  -4.837 -27.013  0.00  0.00    +0.174 C 
ENDBRANCH  11  15
ENDBRANCH   6  10
ENDBRANCH   4   6
BRANCH   1  17
ATOM     17  C   UNL     1      31.916 -10.633 -21.536  0.00  0.00    -0.002 C 
ATOM     18  C   UNL     1      31.914 -10.229 -20.067  0.00  0.00    -0.000 C 
ATOM     19  C   UNL     1      30.535 -11.108 -21.972  0.00  0.00    -0.000 C 
ENDBRANCH   1  17
BRANCH   1  20
ATOM     20  C   UNL     1      33.553  -9.916 -23.280  0.00  0.00    -0.077 C 
BRANCH  20  21
ATOM     21  N   UNL     1      33.307 -11.240 -23.848  0.00  0.00    +0.390 N 
ATOM     22  N   UNL     1      33.574 -15.004 -25.686  0.00  0.00    -0.249 NA
ATOM     23  C   UNL     1      33.670 -11.275 -25.270  0.00  0.00    -0.071 C 
ATOM     24  C   UNL     1      34.056 -12.267 -23.101  0.00  0.00    -0.049 C 
ATOM     25  C   UNL     1      33.216 -12.600 -25.888  0.00  0.00    +0.023 C 
ATOM     26  C   UNL     1      33.976 -13.635 -23.729  0.00  0.00    -0.030 C 
ATOM     27  C   UNL     1      33.625 -13.798 -25.071  0.00  0.00    +0.051 C 
ATOM     28  C   UNL     1      34.320 -14.779 -23.004  0.00  0.00    +0.000 C 
ATOM     29  C   UNL     1      34.282 -16.026 -23.614  0.00  0.00    +0.090 C 
ATOM     30  C   UNL     1      33.905 -16.084 -24.944  0.00  0.00    +0.102 C 
ATOM     31  H   UNL     1      32.309 -11.440 -23.767  0.00  0.00    -0.079 HD
BRANCH  29  35
ATOM     32  F   UNL     1      34.027 -17.345 -21.635  0.00  0.00    -0.166 F 
ATOM     33  F   UNL     1      34.284 -18.415 -23.504  0.00  0.00    -0.166 F 
ATOM     34  F   UNL     1      35.969 -17.368 -22.613  0.00  0.00    -0.166 F 
ATOM     35  C   UNL     1      34.630 -17.259 -22.859  0.00  0.00    +0.420 C 
ENDBRANCH  29  35
ENDBRANCH  20  21
ENDBRANCH   1  20
TORSDOF 7
ENDMDL
MODEL 4
REMARK VINA RESULT:      -7.4      9.421     13.168
REMARK  Name = 71587773
REMARK  7 active torsions:
REMARK  status: ('A' for Active; 'I' for Inactive)
REMARK    1  A    between atoms: C_1  and  C_17
REMARK    2  A    between atoms: C_1  and  C_20
REMARK    3  A    between atoms: C_4  and  N_6
REMARK    4  A    between atoms: N_6  and  C_10
REMARK    5  A    between atoms: C_11  and  O_15
REMARK    6  A    between atoms: C_20  and  N_21
REMARK    7  A    between atoms: C_29  and  C_35
REMARK                            x       y       z     vdW  Elec       q    Type
REMARK                         _______ _______ _______ _____ _____    ______ ____
ROOT
ATOM      1  C   UNL     1      32.965 -13.248 -22.207  0.00  0.00    -0.021 C 
ATOM      2  C   UNL     1      34.381 -13.589 -21.674  0.00  0.00    -0.023 C 
ATOM      3  C   UNL     1      32.215 -14.598 -22.267  0.00  0.00    -0.004 C 
ATOM      4  C   UNL     1      34.478 -15.118 -21.630  0.00  0.00    -0.062 C 
ATOM      5  C   UNL     1      33.031 -15.541 -21.391  0.00  0.00    -0.021 C 
ENDROOT
BRANCH   4   6
ATOM      6  N   UNL     1      35.004 -15.648 -22.887  0.00  0.00    +0.388 N 
ATOM      7  H   UNL     1      36.019 -15.716 -22.821  0.00  0.00    -0.084 HD
ATOM      8  H   UNL     1      34.735 -15.017 -23.642  0.00  0.00    -0.084 HD
BRANCH   6  10
ATOM      9  O   UNL     1      34.859 -19.731 -23.871  0.00  0.00    -0.351 OA
ATOM     10  C   UNL     1      34.454 -16.972 -23.171  0.00  0.00    -0.029 C 
ATOM     11  C   UNL     1      34.934 -18.007 -22.145  0.00  0.00    +0.126 C 
ATOM     12  C   UNL     1      34.826 -17.408 -24.591  0.00  0.00    +0.013 C 
ATOM     13  C   UNL     1      34.450 -19.403 -22.540  0.00  0.00    +0.169 C 
ATOM     14  C   UNL     1      34.333 -18.829 -24.844  0.00  0.00    +0.140 C 
BRANCH  11  15
ATOM     15  O   UNL     1      36.361 -18.021 -22.101  0.00  0.00    -0.353 OA
ATOM     16  C   UNL     1      36.840 -18.994 -21.185  0.00  0.00    +0.174 C 
ENDBRANCH  11  15
ENDBRANCH   6  10
ENDBRANCH   4   6
BRANCH   1  17
ATOM     17  C   UNL     1      32.256 -12.283 -21.243  0.00  0.00    -0.002 C 
ATOM     18  C   UNL     1      30.846 -11.985 -21.738  0.00  0.00    -0.000 C 
ATOM     19  C   UNL     1      32.228 -12.869 -19.836  0.00  0.00    -0.000 C 
ENDBRANCH   1  17
BRANCH   1  20
ATOM     20  C   UNL     1      33.031 -12.600 -23.595  0.00  0.00    -0.077 C 
BRANCH  20  21
ATOM     21  N   UNL     1      33.465 -11.207 -23.509  0.00  0.00    +0.390 N 
ATOM     22  N   UNL     1      34.378  -7.169 -24.200  0.00  0.00    -0.249 NA
ATOM     23  C   UNL     1      34.467 -10.906 -24.538  0.00  0.00    -0.071 C 
ATOM     24  C   UNL     1      32.309 -10.300 -23.637  0.00  0.00    -0.049 C 
ATOM     25  C   UNL     1      35.052  -9.511 -24.300  0.00  0.00    +0.023 C 
ATOM     26  C   UNL     1      32.700  -8.847 -23.717  0.00  0.00    -0.030 C 
ATOM     27  C   UNL     1      33.992  -8.463 -24.081  0.00  0.00    +0.051 C 
ATOM     28  C   UNL     1      31.759  -7.838 -23.497  0.00  0.00    +0.000 C 
ATOM     29  C   UNL     1      32.129  -6.505 -23.618  0.00  0.00    +0.090 C 
ATOM     30  C   UNL     1      33.439  -6.226 -23.968  0.00  0.00    +0.102 C 
ATOM     31  H   UNL     1      33.892 -11.063 -22.594  0.00  0.00    -0.079 HD
BRANCH  29  35
ATOM     32  F   UNL     1      30.486  -5.006 -24.500  0.00  0.00    -0.166 F 
ATOM     33  F   UNL     1      30.164  -5.744 -22.486  0.00  0.00    -0.166 F 
ATOM     34  F   UNL     1      31.730  -4.285 -22.869  0.00  0.00    -0.166 F 
ATOM     35  C   UNL     1      31.149  -5.412 -23.375  0.00  0.00    +0.420 C 
ENDBRANCH  29  35
ENDBRANCH  20  21
ENDBRANCH   1  20
TORSDOF 7
ENDMDL
MODEL 5
REMARK VINA RESULT:      -7.3     12.292     16.134
REMARK  Name = 71587773
REMARK  7 active torsions:
REMARK  status: ('A' for Active; 'I' for Inactive)
REMARK    1  A    between atoms: C_1  and  C_17
REMARK    2  A    between atoms: C_1  and  C_20
REMARK    3  A    between atoms: C_4  and  N_6
REMARK    4  A    between atoms: N_6  and  C_10
REMARK    5  A    between atoms: C_11  and  O_15
REMARK    6  A    between atoms: C_20  and  N_21
REMARK    7  A    between atoms: C_29  and  C_35
REMARK                            x       y       z     vdW  Elec       q    Type
REMARK                         _______ _______ _______ _____ _____    ______ ____
ROOT
ATOM      1  C   UNL     1      31.996  -9.984 -21.263  0.00  0.00    -0.021 C 
ATOM      2  C   UNL     1      32.797 -11.312 -21.274  0.00  0.00    -0.023 C 
ATOM      3  C   UNL     1      30.962 -10.120 -22.402  0.00  0.00    -0.004 C 
ATOM      4  C   UNL     1      32.349 -12.084 -22.520  0.00  0.00    -0.062 C 
ATOM      5  C   UNL     1      30.911 -11.612 -22.711  0.00  0.00    -0.021 C 
ENDROOT
BRANCH   4   6
ATOM      6  N   UNL     1      33.191 -11.760 -23.671  0.00  0.00    +0.388 N 
ATOM      7  H   UNL     1      34.169 -11.888 -23.414  0.00  0.00    -0.084 HD
ATOM      8  H   UNL     1      33.015 -10.790 -23.937  0.00  0.00    -0.084 HD
BRANCH   6  10
ATOM      9  O   UNL     1      33.733 -14.499 -26.810  0.00  0.00    -0.351 OA
ATOM     10  C   UNL     1      32.878 -12.619 -24.810  0.00  0.00    -0.029 C 
ATOM     11  C   UNL     1      33.129 -14.096 -24.481  0.00  0.00    +0.126 C 
ATOM     12  C   UNL     1      33.694 -12.194 -26.035  0.00  0.00    +0.013 C 
ATOM     13  C   UNL     1      32.919 -14.957 -25.727  0.00  0.00    +0.169 C 
ATOM     14  C   UNL     1      33.436 -13.156 -27.190  0.00  0.00    +0.140 C 
BRANCH  11  15
ATOM     15  O   UNL     1      34.473 -14.273 -24.033  0.00  0.00    -0.353 OA
ATOM     16  C   UNL     1      34.555 -15.267 -23.024  0.00  0.00    +0.174 C 
ENDBRANCH  11  15
ENDBRANCH   6  10
ENDBRANCH   4   6
BRANCH   1  17
ATOM     17  C   UNL     1      31.286  -9.807 -19.912  0.00  0.00    -0.002 C 
ATOM     18  C   UNL     1      31.364 -11.096 -19.102  0.00  0.00    -0.000 C 
ATOM     19  C   UNL     1      31.897  -8.642 -19.142  0.00  0.00    -0.000 C 
ENDBRANCH   1  17
BRANCH   1  20
ATOM     20  C   UNL     1      32.913  -8.777 -21.501  0.00  0.00    -0.077 C 
BRANCH  20  21
ATOM     21  N   UNL     1      32.321  -7.845 -22.459  0.00  0.00    +0.390 N 
ATOM     22  N   UNL     1      31.226  -4.511 -24.761  0.00  0.00    -0.249 NA
ATOM     23  C   UNL     1      31.663  -6.730 -21.766  0.00  0.00    -0.071 C 
ATOM     24  C   UNL     1      33.351  -7.337 -23.384  0.00  0.00    -0.049 C 
ATOM     25  C   UNL     1      30.882  -5.883 -22.775  0.00  0.00    +0.023 C 
ATOM     26  C   UNL     1      32.845  -6.250 -24.298  0.00  0.00    -0.030 C 
ATOM     27  C   UNL     1      31.697  -5.519 -23.988  0.00  0.00    +0.051 C 
ATOM     28  C   UNL     1      33.552  -5.894 -25.449  0.00  0.00    +0.000 C 
ATOM     29  C   UNL     1      33.093  -4.860 -26.254  0.00  0.00    +0.090 C 
ATOM     30  C   UNL     1      31.935  -4.207 -25.871  0.00  0.00    +0.102 C 
ATOM     31  H   UNL     1      31.617  -8.348 -22.999  0.00  0.00    -0.079 HD
BRANCH  29  35
ATOM     32  F   UNL     1      33.185  -4.844 -28.645  0.00  0.00    -0.166 F 
ATOM     33  F   UNL     1      34.013  -3.123 -27.616  0.00  0.00    -0.166 F 
ATOM     34  F   UNL     1      35.066  -5.025 -27.569  0.00  0.00    -0.166 F 
ATOM     35  C   UNL     1      33.820  -4.472 -27.492  0.00  0.00    +0.420 C 
ENDBRANCH  29  35
ENDBRANCH  20  21
ENDBRANCH   1  20
TORSDOF 7
ENDMDL
MODEL 6
REMARK VINA RESULT:      -7.2      5.839      9.630
REMARK  Name = 71587773
REMARK  7 active torsions:
REMARK  status: ('A' for Active; 'I' for Inactive)
REMARK    1  A    between atoms: C_1  and  C_17
REMARK    2  A    between atoms: C_1  and  C_20
REMARK    3  A    between atoms: C_4  and  N_6
REMARK    4  A    between atoms: N_6  and  C_10
REMARK    5  A    between atoms: C_11  and  O_15
REMARK    6  A    between atoms: C_20  and  N_21
REMARK    7  A    between atoms: C_29  and  C_35
REMARK                            x       y       z     vdW  Elec       q    Type
REMARK                         _______ _______ _______ _____ _____    ______ ____
ROOT
ATOM      1  C   UNL     1      34.547 -17.597 -22.874  0.00  0.00    -0.021 C 
ATOM      2  C   UNL     1      34.625 -19.132 -22.671  0.00  0.00    -0.023 C 
ATOM      3  C   UNL     1      35.946 -17.063 -22.495  0.00  0.00    -0.004 C 
ATOM      4  C   UNL     1      35.975 -19.419 -22.003  0.00  0.00    -0.062 C 
ATOM      5  C   UNL     1      36.856 -18.286 -22.521  0.00  0.00    -0.021 C 
ENDROOT
BRANCH   4   6
ATOM      6  N   UNL     1      35.855 -19.399 -20.546  0.00  0.00    +0.388 N 
ATOM      7  H   UNL     1      34.960 -18.983 -20.291  0.00  0.00    -0.084 HD
ATOM      8  H   UNL     1      36.627 -18.849 -20.166  0.00  0.00    -0.084 HD
BRANCH   6  10
ATOM      9  O   UNL     1      35.141 -22.661 -17.996  0.00  0.00    -0.351 OA
ATOM     10  C   UNL     1      35.931 -20.749 -19.992  0.00  0.00    -0.029 C 
ATOM     11  C   UNL     1      34.565 -21.446 -20.032  0.00  0.00    +0.126 C 
ATOM     12  C   UNL     1      36.473 -20.706 -18.560  0.00  0.00    +0.013 C 
ATOM     13  C   UNL     1      34.645 -22.802 -19.330  0.00  0.00    +0.169 C 
ATOM     14  C   UNL     1      36.455 -22.107 -17.956  0.00  0.00    +0.140 C 
BRANCH  11  15
ATOM     15  O   UNL     1      33.592 -20.646 -19.357  0.00  0.00    -0.353 OA
ATOM     16  C   UNL     1      32.558 -20.237 -20.238  0.00  0.00    +0.174 C 
ENDBRANCH  11  15
ENDBRANCH   6  10
ENDBRANCH   4   6
BRANCH   1  17
ATOM     17  C   UNL     1      34.230 -17.274 -24.342  0.00  0.00    -0.002 C 
ATOM     18  C   UNL     1      35.326 -16.400 -24.940  0.00  0.00    -0.000 C 
ATOM     19  C   UNL     1      34.064 -18.562 -25.142  0.00  0.00    -0.000 C 
ENDBRANCH   1  17
BRANCH   1  20
ATOM     20  C   UNL     1      33.466 -16.969 -21.985  0.00  0.00    -0.077 C 
BRANCH  20  21
ATOM     21  N   UNL     1      33.438 -15.515 -22.133  0.00  0.00    +0.390 N 
ATOM     22  N   UNL     1      32.385 -11.496 -22.727  0.00  0.00    -0.249 NA
ATOM     23  C   UNL     1      32.941 -15.134 -23.462  0.00  0.00    -0.071 C 
ATOM     24  C   UNL     1      32.603 -14.908 -21.080  0.00  0.00    -0.049 C 
ATOM     25  C   UNL     1      33.112 -13.626 -23.666  0.00  0.00    +0.023 C 
ATOM     26  C   UNL     1      32.399 -13.426 -21.265  0.00  0.00    -0.030 C 
ATOM     27  C   UNL     1      32.591 -12.817 -22.507  0.00  0.00    +0.051 C 
ATOM     28  C   UNL     1      31.942 -12.628 -20.214  0.00  0.00    +0.000 C 
ATOM     29  C   UNL     1      31.717 -11.273 -20.417  0.00  0.00    +0.090 C 
ATOM     30  C   UNL     1      31.953 -10.760 -21.680  0.00  0.00    +0.102 C 
ATOM     31  H   UNL     1      34.392 -15.167 -22.036  0.00  0.00    -0.079 HD
BRANCH  29  35
ATOM     32  F   UNL     1      31.586  -9.084 -19.459  0.00  0.00    -0.166 F 
ATOM     33  F   UNL     1      29.885 -10.395 -19.155  0.00  0.00    -0.166 F 
ATOM     34  F   UNL     1      31.746 -10.769 -18.094  0.00  0.00    -0.166 F 
ATOM     35  C   UNL     1      31.244 -10.400 -19.309  0.00  0.00    +0.420 C 
ENDBRANCH  29  35
ENDBRANCH  20  21
ENDBRANCH   1  20
TORSDOF 7
ENDMDL
MODEL 7
REMARK VINA RESULT:      -7.2     12.296     16.729
REMARK  Name = 71587773
REMARK  7 active torsions:
REMARK  status: ('A' for Active; 'I' for Inactive)
REMARK    1  A    between atoms: C_1  and  C_17
REMARK    2  A    between atoms: C_1  and  C_20
REMARK    3  A    between atoms: C_4  and  N_6
REMARK    4  A    between atoms: N_6  and  C_10
REMARK    5  A    between atoms: C_11  and  O_15
REMARK    6  A    between atoms: C_20  and  N_21
REMARK    7  A    between atoms: C_29  and  C_35
REMARK                            x       y       z     vdW  Elec       q    Type
REMARK                         _______ _______ _______ _____ _____    ______ ____
ROOT
ATOM      1  C   UNL     1      32.296  -8.399 -21.935  0.00  0.00    -0.021 C 
ATOM      2  C   UNL     1      31.617  -7.023 -22.164  0.00  0.00    -0.023 C 
ATOM      3  C   UNL     1      33.586  -8.363 -22.784  0.00  0.00    -0.004 C 
ATOM      4  C   UNL     1      32.411  -6.320 -23.270  0.00  0.00    -0.062 C 
ATOM      5  C   UNL     1      33.816  -6.888 -23.092  0.00  0.00    -0.021 C 
ENDROOT
BRANCH   4   6
ATOM      6  N   UNL     1      31.859  -6.626 -24.589  0.00  0.00    +0.388 N 
ATOM      7  H   UNL     1      31.017  -7.189 -24.475  0.00  0.00    -0.084 HD
ATOM      8  H   UNL     1      32.562  -7.138 -25.124  0.00  0.00    -0.084 HD
BRANCH   6  10
ATOM      9  O   UNL     1      32.214  -2.741 -26.149  0.00  0.00    -0.351 OA
ATOM     10  C   UNL     1      31.523  -5.404 -25.316  0.00  0.00    -0.029 C 
ATOM     11  C   UNL     1      32.515  -5.142 -26.457  0.00  0.00    +0.126 C 
ATOM     12  C   UNL     1      31.477  -4.210 -24.357  0.00  0.00    +0.013 C 
ATOM     13  C   UNL     1      32.217  -3.795 -27.115  0.00  0.00    +0.169 C 
ATOM     14  C   UNL     1      31.224  -2.926 -25.139  0.00  0.00    +0.140 C 
BRANCH  11  15
ATOM     15  O   UNL     1      33.847  -5.108 -25.943  0.00  0.00    -0.353 OA
ATOM     16  C   UNL     1      34.801  -5.013 -26.989  0.00  0.00    +0.174 C 
ENDBRANCH  11  15
ENDBRANCH   6  10
ENDBRANCH   4   6
BRANCH   1  17
ATOM     17  C   UNL     1      32.637  -8.578 -20.447  0.00  0.00    -0.002 C 
ATOM     18  C   UNL     1      33.123  -7.260 -19.854  0.00  0.00    -0.000 C 
ATOM     19  C   UNL     1      31.425  -9.103 -19.687  0.00  0.00    -0.000 C 
ENDBRANCH   1  17
BRANCH   1  20
ATOM     20  C   UNL     1      31.386  -9.552 -22.376  0.00  0.00    -0.077 C 
BRANCH  20  21
ATOM     21  N   UNL     1      31.980 -10.848 -22.053  0.00  0.00    +0.390 N 
ATOM     22  N   UNL     1      32.821 -14.919 -21.480  0.00  0.00    -0.249 NA
ATOM     23  C   UNL     1      31.141 -11.585 -21.100  0.00  0.00    -0.071 C 
ATOM     24  C   UNL     1      32.181 -11.641 -23.280  0.00  0.00    -0.049 C 
ATOM     25  C   UNL     1      31.878 -12.840 -20.624  0.00  0.00    +0.023 C 
ATOM     26  C   UNL     1      32.642 -13.050 -23.008  0.00  0.00    -0.030 C 
ATOM     27  C   UNL     1      32.455 -13.645 -21.758  0.00  0.00    +0.051 C 
ATOM     28  C   UNL     1      33.206 -13.828 -24.021  0.00  0.00    +0.000 C 
ATOM     29  C   UNL     1      33.584 -15.139 -23.761  0.00  0.00    +0.090 C 
ATOM     30  C   UNL     1      33.373 -15.633 -22.486  0.00  0.00    +0.102 C 
ATOM     31  H   UNL     1      32.888 -10.682 -21.619  0.00  0.00    -0.079 HD
BRANCH  29  35
ATOM     32  F   UNL     1      34.009 -15.505 -26.087  0.00  0.00    -0.166 F 
ATOM     33  F   UNL     1      35.556 -16.119 -24.695  0.00  0.00    -0.166 F 
ATOM     34  F   UNL     1      33.708 -17.257 -24.834  0.00  0.00    -0.166 F 
ATOM     35  C   UNL     1      34.201 -15.983 -24.820  0.00  0.00    +0.420 C 
ENDBRANCH  29  35
ENDBRANCH  20  21
ENDBRANCH   1  20
TORSDOF 7
ENDMDL
MODEL 8
REMARK VINA RESULT:      -7.0     12.191     15.880
REMARK  Name = 71587773
REMARK  7 active torsions:
REMARK  status: ('A' for Active; 'I' for Inactive)
REMARK    1  A    between atoms: C_1  and  C_17
REMARK    2  A    between atoms: C_1  and  C_20
REMARK    3  A    between atoms: C_4  and  N_6
REMARK    4  A    between atoms: N_6  and  C_10
REMARK    5  A    between atoms: C_11  and  O_15
REMARK    6  A    between atoms: C_20  and  N_21
REMARK    7  A    between atoms: C_29  and  C_35
REMARK                            x       y       z     vdW  Elec       q    Type
REMARK                         _______ _______ _______ _____ _____    ______ ____
ROOT
ATOM      1  C   UNL     1      32.140  -9.437 -21.463  0.00  0.00    -0.021 C 
ATOM      2  C   UNL     1      32.553 -10.873 -21.047  0.00  0.00    -0.023 C 
ATOM      3  C   UNL     1      31.023  -9.620 -22.514  0.00  0.00    -0.004 C 
ATOM      4  C   UNL     1      31.819 -11.831 -21.992  0.00  0.00    -0.062 C 
ATOM      5  C   UNL     1      30.550 -11.059 -22.339  0.00  0.00    -0.021 C 
ENDROOT
BRANCH   4   6
ATOM      6  N   UNL     1      32.625 -12.121 -23.177  0.00  0.00    +0.388 N 
ATOM      7  H   UNL     1      33.223 -11.320 -23.378  0.00  0.00    -0.084 HD
ATOM      8  H   UNL     1      31.996 -12.304 -23.960  0.00  0.00    -0.084 HD
BRANCH   6  10
ATOM      9  O   UNL     1      33.849 -16.141 -23.197  0.00  0.00    -0.351 OA
ATOM     10  C   UNL     1      33.461 -13.301 -22.970  0.00  0.00    -0.029 C 
ATOM     11  C   UNL     1      33.829 -13.966 -24.303  0.00  0.00    +0.126 C 
ATOM     12  C   UNL     1      32.754 -14.299 -22.048  0.00  0.00    +0.013 C 
ATOM     13  C   UNL     1      34.593 -15.266 -24.050  0.00  0.00    +0.169 C 
ATOM     14  C   UNL     1      33.590 -15.568 -21.917  0.00  0.00    +0.140 C 
BRANCH  11  15
ATOM     15  O   UNL     1      32.642 -14.275 -25.035  0.00  0.00    -0.353 OA
ATOM     16  C   UNL     1      32.946 -14.720 -26.348  0.00  0.00    +0.174 C 
ENDBRANCH  11  15
ENDBRANCH   6  10
ENDBRANCH   4   6
BRANCH   1  17
ATOM     17  C   UNL     1      31.610  -8.666 -20.245  0.00  0.00    -0.002 C 
ATOM     18  C   UNL     1      31.300  -9.629 -19.105  0.00  0.00    -0.000 C 
ATOM     19  C   UNL     1      32.620  -7.611 -19.807  0.00  0.00    -0.000 C 
ENDBRANCH   1  17
BRANCH   1  20
ATOM     20  C   UNL     1      33.325  -8.666 -22.059  0.00  0.00    -0.077 C 
BRANCH  20  21
ATOM     21  N   UNL     1      32.901  -7.822 -23.175  0.00  0.00    +0.390 N 
ATOM     22  N   UNL     1      32.120  -4.680 -25.846  0.00  0.00    -0.249 NA
ATOM     23  C   UNL     1      32.028  -6.738 -22.708  0.00  0.00    -0.071 C 
ATOM     24  C   UNL     1      34.074  -7.270 -23.877  0.00  0.00    -0.049 C 
ATOM     25  C   UNL     1      31.436  -5.996 -23.910  0.00  0.00    +0.023 C 
ATOM     26  C   UNL     1      33.711  -6.265 -24.939  0.00  0.00    -0.030 C 
ATOM     27  C   UNL     1      32.475  -5.616 -24.932  0.00  0.00    +0.051 C 
ATOM     28  C   UNL     1      34.632  -5.899 -25.924  0.00  0.00    +0.000 C 
ATOM     29  C   UNL     1      34.294  -4.937 -26.868  0.00  0.00    +0.090 C 
ATOM     30  C   UNL     1      33.037  -4.364 -26.787  0.00  0.00    +0.102 C 
ATOM     31  H   UNL     1      32.372  -8.401 -23.827  0.00  0.00    -0.079 HD
BRANCH  29  35
ATOM     32  F   UNL     1      36.373  -5.322 -27.988  0.00  0.00    -0.166 F 
ATOM     33  F   UNL     1      34.724  -4.596 -29.196  0.00  0.00    -0.166 F 
ATOM     34  F   UNL     1      35.707  -3.262 -27.788  0.00  0.00    -0.166 F 
ATOM     35  C   UNL     1      35.251  -4.541 -27.935  0.00  0.00    +0.420 C 
ENDBRANCH  29  35
ENDBRANCH  20  21
ENDBRANCH   1  20
TORSDOF 7
ENDMDL
