MODEL 1
REMARK VINA RESULT:     -10.4      0.000      0.000
REMARK  Name = 2161
REMARK  3 active torsions:
REMARK  status: ('A' for Active; 'I' for Inactive)
REMARK    1  A    between atoms: C_4  and  C_19
REMARK    2  A    between atoms: C_14  and  C_23
REMARK    3  A    between atoms: C_23  and  O_24
REMARK                            x       y       z     vdW  Elec       q    Type
REMARK                         _______ _______ _______ _____ _____    ______ ____
ROOT
ATOM      1  O   UNL     1      34.756 -15.459 -23.472  0.00  0.00    -0.430 OA
ATOM      2  O   UNL     1      32.197 -15.938 -20.321  0.00  0.00    -0.290 OA
ATOM      3  N   UNL     1      34.063 -13.299 -23.805  0.00  0.00    -0.355 NA
ATOM      4  C   UNL     1      34.702 -19.131 -21.507  0.00  0.00    -0.022 C 
ATOM      5  C   UNL     1      33.851 -16.883 -21.707  0.00  0.00    +0.070 C 
ATOM      6  C   UNL     1      33.848 -18.122 -21.061  0.00  0.00    +0.002 C 
ATOM      7  C   UNL     1      34.698 -16.649 -22.790  0.00  0.00    +0.151 C 
ATOM      8  C   UNL     1      35.551 -18.902 -22.589  0.00  0.00    -0.001 C 
ATOM      9  C   UNL     1      33.047 -14.538 -22.010  0.00  0.00    +0.173 C 
ATOM     10  C   UNL     1      32.964 -15.799 -21.262  0.00  0.00    +0.190 C 
ATOM     11  C   UNL     1      35.550 -17.664 -23.231  0.00  0.00    +0.037 C 
ATOM     12  C   UNL     1      33.933 -14.430 -23.073  0.00  0.00    +0.269 C 
ATOM     13  C   UNL     1      32.253 -13.443 -21.677  0.00  0.00    +0.002 C 
ATOM     14  C   UNL     1      32.369 -12.273 -22.416  0.00  0.00    +0.116 C 
ATOM     15  C   UNL     1      33.279 -12.252 -23.459  0.00  0.00    +0.186 C 
ATOM     16  N   UNL     1      33.403 -11.061 -24.217  0.00  0.00    -0.333 N 
ATOM     17  H   UNL     1      34.042 -11.016 -24.966  0.00  0.00    +0.145 HD
ATOM     18  H   UNL     1      32.850 -10.277 -23.996  0.00  0.00    +0.145 HD
ENDROOT
BRANCH   4  19
ATOM     19  C   UNL     1      34.708 -20.457 -20.824  0.00  0.00    +0.022 C 
ATOM     20  C   UNL     1      33.448 -20.683 -19.966  0.00  0.00    +0.005 C 
ATOM     21  C   UNL     1      35.968 -20.673 -19.966  0.00  0.00    +0.005 C 
ENDBRANCH   4  19
BRANCH  14  23
ATOM     22  O   UNL     1      31.895  -9.944 -22.134  0.00  0.00    -0.245 OA
ATOM     23  C   UNL     1      31.540 -11.125 -22.071  0.00  0.00    +0.342 C 
BRANCH  23  24
ATOM     24  O   UNL     1      30.296 -11.490 -21.659  0.00  0.00    -0.477 OA
ATOM     25  H   UNL     1      29.885 -11.033 -20.952  0.00  0.00    +0.295 HD
ENDBRANCH  23  24
ENDBRANCH  14  23
TORSDOF 3
ENDMDL
MODEL 2
REMARK VINA RESULT:     -10.3      7.994     11.652
REMARK  Name = 2161
REMARK  3 active torsions:
REMARK  status: ('A' for Active; 'I' for Inactive)
REMARK    1  A    between atoms: C_4  and  C_19
REMARK    2  A    between atoms: C_14  and  C_23
REMARK    3  A    between atoms: C_23  and  O_24
REMARK                            x       y       z     vdW  Elec       q    Type
REMARK                         _______ _______ _______ _____ _____    ______ ____
ROOT
ATOM      1  O   UNL     1      34.196 -23.359 -16.225  0.00  0.00    -0.430 OA
ATOM      2  O   UNL     1      37.873 -21.603 -16.557  0.00  0.00    -0.290 OA
ATOM      3  N   UNL     1      34.695 -24.186 -14.146  0.00  0.00    -0.355 NA
ATOM      4  C   UNL     1      35.070 -21.236 -19.701  0.00  0.00    -0.022 C 
ATOM      5  C   UNL     1      35.770 -22.023 -17.530  0.00  0.00    +0.070 C 
ATOM      6  C   UNL     1      36.043 -21.316 -18.704  0.00  0.00    +0.002 C 
ATOM      7  C   UNL     1      34.536 -22.648 -17.350  0.00  0.00    +0.151 C 
ATOM      8  C   UNL     1      33.835 -21.859 -19.525  0.00  0.00    -0.001 C 
ATOM      9  C   UNL     1      36.383 -22.893 -15.271  0.00  0.00    +0.173 C 
ATOM     10  C   UNL     1      36.772 -22.126 -16.462  0.00  0.00    +0.190 C 
ATOM     11  C   UNL     1      33.567 -22.564 -18.351  0.00  0.00    +0.037 C 
ATOM     12  C   UNL     1      35.121 -23.469 -15.211  0.00  0.00    +0.269 C 
ATOM     13  C   UNL     1      37.253 -23.056 -14.196  0.00  0.00    +0.002 C 
ATOM     14  C   UNL     1      36.836 -23.790 -13.093  0.00  0.00    +0.116 C 
ATOM     15  C   UNL     1      35.561 -24.330 -13.116  0.00  0.00    +0.186 C 
ATOM     16  N   UNL     1      35.129 -25.079 -11.994  0.00  0.00    -0.333 N 
ATOM     17  H   UNL     1      34.227 -25.475 -11.982  0.00  0.00    +0.145 HD
ATOM     18  H   UNL     1      35.731 -25.205 -11.225  0.00  0.00    +0.145 HD
ENDROOT
BRANCH   4  19
ATOM     19  C   UNL     1      35.351 -20.483 -20.957  0.00  0.00    +0.022 C 
ATOM     20  C   UNL     1      36.542 -19.516 -20.810  0.00  0.00    +0.005 C 
ATOM     21  C   UNL     1      34.119 -19.718 -21.474  0.00  0.00    +0.005 C 
ENDBRANCH   4  19
BRANCH  14  23
ATOM     22  O   UNL     1      37.920 -25.018 -11.348  0.00  0.00    -0.245 OA
ATOM     23  C   UNL     1      37.744 -23.964 -11.966  0.00  0.00    +0.342 C 
BRANCH  23  24
ATOM     24  O   UNL     1      38.402 -22.816 -11.650  0.00  0.00    -0.477 OA
ATOM     25  H   UNL     1      39.312 -22.844 -11.429  0.00  0.00    +0.295 HD
ENDBRANCH  23  24
ENDBRANCH  14  23
TORSDOF 3
ENDMDL
MODEL 3
REMARK VINA RESULT:     -10.3      7.824     11.450
REMARK  Name = 2161
REMARK  3 active torsions:
REMARK  status: ('A' for Active; 'I' for Inactive)
REMARK    1  A    between atoms: C_4  and  C_19
REMARK    2  A    between atoms: C_14  and  C_23
REMARK    3  A    between atoms: C_23  and  O_24
REMARK                            x       y       z     vdW  Elec       q    Type
REMARK                         _______ _______ _______ _____ _____    ______ ____
ROOT
ATOM      1  O   UNL     1      37.454 -22.281 -16.908  0.00  0.00    -0.430 OA
ATOM      2  O   UNL     1      33.509 -23.268 -16.495  0.00  0.00    -0.290 OA
ATOM      3  N   UNL     1      38.004 -23.346 -14.954  0.00  0.00    -0.355 NA
ATOM      4  C   UNL     1      34.781 -21.027 -19.847  0.00  0.00    -0.022 C 
ATOM      5  C   UNL     1      35.172 -22.194 -17.771  0.00  0.00    +0.070 C 
ATOM      6  C   UNL     1      34.291 -21.764 -18.767  0.00  0.00    +0.002 C 
ATOM      7  C   UNL     1      36.531 -21.892 -17.848  0.00  0.00    +0.151 C 
ATOM      8  C   UNL     1      36.140 -20.723 -19.927  0.00  0.00    -0.001 C 
ATOM      9  C   UNL     1      35.696 -23.372 -15.633  0.00  0.00    +0.173 C 
ATOM     10  C   UNL     1      34.688 -22.971 -16.623  0.00  0.00    +0.190 C 
ATOM     11  C   UNL     1      37.014 -21.154 -18.930  0.00  0.00    +0.037 C 
ATOM     12  C   UNL     1      37.023 -23.009 -15.823  0.00  0.00    +0.269 C 
ATOM     13  C   UNL     1      35.352 -24.112 -14.504  0.00  0.00    +0.002 C 
ATOM     14  C   UNL     1      36.344 -24.467 -13.599  0.00  0.00    +0.116 C 
ATOM     15  C   UNL     1      37.641 -24.063 -13.866  0.00  0.00    +0.186 C 
ATOM     16  N   UNL     1      38.658 -24.422 -12.946  0.00  0.00    -0.333 N 
ATOM     17  H   UNL     1      39.590 -24.149 -13.110  0.00  0.00    +0.145 HD
ATOM     18  H   UNL     1      38.432 -24.944 -12.142  0.00  0.00    +0.145 HD
ENDROOT
BRANCH   4  19
ATOM     19  C   UNL     1      33.850 -20.564 -20.916  0.00  0.00    +0.022 C 
ATOM     20  C   UNL     1      34.511 -19.558 -21.877  0.00  0.00    +0.005 C 
ATOM     21  C   UNL     1      32.550 -19.966 -20.346  0.00  0.00    +0.005 C 
ENDBRANCH   4  19
BRANCH  14  23
ATOM     22  O   UNL     1      36.696 -26.100 -11.886  0.00  0.00    -0.245 OA
ATOM     23  C   UNL     1      35.987 -25.240 -12.416  0.00  0.00    +0.342 C 
BRANCH  23  24
ATOM     24  O   UNL     1      34.758 -24.912 -11.934  0.00  0.00    -0.477 OA
ATOM     25  H   UNL     1      34.296 -24.180 -12.291  0.00  0.00    +0.295 HD
ENDBRANCH  23  24
ENDBRANCH  14  23
TORSDOF 3
ENDMDL
MODEL 4
REMARK VINA RESULT:     -10.2      6.280      9.592
REMARK  Name = 2161
REMARK  3 active torsions:
REMARK  status: ('A' for Active; 'I' for Inactive)
REMARK    1  A    between atoms: C_4  and  C_19
REMARK    2  A    between atoms: C_14  and  C_23
REMARK    3  A    between atoms: C_23  and  O_24
REMARK                            x       y       z     vdW  Elec       q    Type
REMARK                         _______ _______ _______ _____ _____    ______ ____
ROOT
ATOM      1  O   UNL     1      36.917 -20.794 -18.734  0.00  0.00    -0.430 OA
ATOM      2  O   UNL     1      33.077 -21.944 -19.540  0.00  0.00    -0.290 OA
ATOM      3  N   UNL     1      36.987 -22.088 -16.843  0.00  0.00    -0.355 NA
ATOM      4  C   UNL     1      35.059 -19.248 -22.126  0.00  0.00    -0.022 C 
ATOM      5  C   UNL     1      34.950 -20.663 -20.176  0.00  0.00    +0.070 C 
ATOM      6  C   UNL     1      34.344 -20.133 -21.318  0.00  0.00    +0.002 C 
ATOM      7  C   UNL     1      36.258 -20.314 -19.839  0.00  0.00    +0.151 C 
ATOM      8  C   UNL     1      36.366 -18.897 -21.794  0.00  0.00    -0.001 C 
ATOM      9  C   UNL     1      34.954 -22.094 -18.129  0.00  0.00    +0.173 C 
ATOM     10  C   UNL     1      34.226 -21.597 -19.303  0.00  0.00    +0.190 C 
ATOM     11  C   UNL     1      36.966 -19.428 -20.652  0.00  0.00    +0.037 C 
ATOM     12  C   UNL     1      36.257 -21.671 -17.903  0.00  0.00    +0.269 C 
ATOM     13  C   UNL     1      34.366 -22.985 -17.233  0.00  0.00    +0.002 C 
ATOM     14  C   UNL     1      35.099 -23.425 -16.138  0.00  0.00    +0.116 C 
ATOM     15  C   UNL     1      36.391 -22.952 -15.988  0.00  0.00    +0.186 C 
ATOM     16  N   UNL     1      37.144 -23.397 -14.873  0.00  0.00    -0.333 N 
ATOM     17  H   UNL     1      38.067 -23.078 -14.741  0.00  0.00    +0.145 HD
ATOM     18  H   UNL     1      36.744 -24.026 -14.229  0.00  0.00    +0.145 HD
ENDROOT
BRANCH   4  19
ATOM     19  C   UNL     1      34.422 -18.678 -23.349  0.00  0.00    +0.022 C 
ATOM     20  C   UNL     1      34.743 -19.493 -24.616  0.00  0.00    +0.005 C 
ATOM     21  C   UNL     1      34.794 -17.200 -23.571  0.00  0.00    +0.005 C 
ENDBRANCH   4  19
BRANCH  14  23
ATOM     22  O   UNL     1      33.419 -24.173 -14.606  0.00  0.00    -0.245 OA
ATOM     23  C   UNL     1      34.487 -24.355 -15.198  0.00  0.00    +0.342 C 
BRANCH  23  24
ATOM     24  O   UNL     1      35.229 -25.483 -15.030  0.00  0.00    -0.477 OA
ATOM     25  H   UNL     1      34.804 -26.313 -14.936  0.00  0.00    +0.295 HD
ENDBRANCH  23  24
ENDBRANCH  14  23
TORSDOF 3
ENDMDL
MODEL 5
REMARK VINA RESULT:     -10.0     10.955     12.953
REMARK  Name = 2161
REMARK  3 active torsions:
REMARK  status: ('A' for Active; 'I' for Inactive)
REMARK    1  A    between atoms: C_4  and  C_19
REMARK    2  A    between atoms: C_14  and  C_23
REMARK    3  A    between atoms: C_23  and  O_24
REMARK                            x       y       z     vdW  Elec       q    Type
REMARK                         _______ _______ _______ _____ _____    ______ ____
ROOT
ATOM      1  O   UNL     1      33.417 -24.179 -13.129  0.00  0.00    -0.430 OA
ATOM      2  O   UNL     1      34.189 -23.492 -17.084  0.00  0.00    -0.290 OA
ATOM      3  N   UNL     1      35.624 -24.623 -12.697  0.00  0.00    -0.355 NA
ATOM      4  C   UNL     1      30.237 -23.157 -15.618  0.00  0.00    -0.022 C 
ATOM      5  C   UNL     1      32.595 -23.591 -15.352  0.00  0.00    +0.070 C 
ATOM      6  C   UNL     1      31.515 -23.250 -16.171  0.00  0.00    +0.002 C 
ATOM      7  C   UNL     1      32.405 -23.840 -13.993  0.00  0.00    +0.151 C 
ATOM      8  C   UNL     1      30.042 -23.405 -14.260  0.00  0.00    -0.001 C 
ATOM      9  C   UNL     1      35.016 -24.062 -14.956  0.00  0.00    +0.173 C 
ATOM     10  C   UNL     1      33.953 -23.696 -15.902  0.00  0.00    +0.190 C 
ATOM     11  C   UNL     1      31.123 -23.747 -13.448  0.00  0.00    +0.037 C 
ATOM     12  C   UNL     1      34.697 -24.285 -13.623  0.00  0.00    +0.269 C 
ATOM     13  C   UNL     1      36.341 -24.190 -15.366  0.00  0.00    +0.002 C 
ATOM     14  C   UNL     1      37.308 -24.537 -14.432  0.00  0.00    +0.116 C 
ATOM     15  C   UNL     1      36.903 -24.741 -13.124  0.00  0.00    +0.186 C 
ATOM     16  N   UNL     1      37.885 -25.095 -12.165  0.00  0.00    -0.333 N 
ATOM     17  H   UNL     1      37.626 -25.246 -11.226  0.00  0.00    +0.145 HD
ATOM     18  H   UNL     1      38.826 -25.191 -12.437  0.00  0.00    +0.145 HD
ENDROOT
BRANCH   4  19
ATOM     19  C   UNL     1      29.078 -22.793 -16.483  0.00  0.00    +0.022 C 
ATOM     20  C   UNL     1      27.981 -22.036 -15.710  0.00  0.00    +0.005 C 
ATOM     21  C   UNL     1      28.465 -24.014 -17.193  0.00  0.00    +0.005 C 
ENDBRANCH   4  19
BRANCH  14  23
ATOM     22  O   UNL     1      39.477 -25.547 -14.471  0.00  0.00    -0.245 OA
ATOM     23  C   UNL     1      38.695 -24.673 -14.857  0.00  0.00    +0.342 C 
BRANCH  23  24
ATOM     24  O   UNL     1      39.059 -23.714 -15.750  0.00  0.00    -0.477 OA
ATOM     25  H   UNL     1      38.516 -22.961 -15.876  0.00  0.00    +0.295 HD
ENDBRANCH  23  24
ENDBRANCH  14  23
TORSDOF 3
ENDMDL
MODEL 6
REMARK VINA RESULT:     -10.0     10.131     12.789
REMARK  Name = 2161
REMARK  3 active torsions:
REMARK  status: ('A' for Active; 'I' for Inactive)
REMARK    1  A    between atoms: C_4  and  C_19
REMARK    2  A    between atoms: C_14  and  C_23
REMARK    3  A    between atoms: C_23  and  O_24
REMARK                            x       y       z     vdW  Elec       q    Type
REMARK                         _______ _______ _______ _____ _____    ______ ____
ROOT
ATOM      1  O   UNL     1      34.691 -23.376 -16.437  0.00  0.00    -0.430 OA
ATOM      2  O   UNL     1      33.305 -24.641 -12.806  0.00  0.00    -0.290 OA
ATOM      3  N   UNL     1      36.859 -23.842 -15.857  0.00  0.00    -0.355 NA
ATOM      4  C   UNL     1      30.592 -23.206 -15.714  0.00  0.00    -0.022 C 
ATOM      5  C   UNL     1      32.807 -23.756 -14.931  0.00  0.00    +0.070 C 
ATOM      6  C   UNL     1      31.429 -23.690 -14.708  0.00  0.00    +0.002 C 
ATOM      7  C   UNL     1      33.349 -23.341 -16.147  0.00  0.00    +0.151 C 
ATOM      8  C   UNL     1      31.130 -22.789 -16.932  0.00  0.00    -0.001 C 
ATOM      9  C   UNL     1      35.144 -24.288 -14.230  0.00  0.00    +0.173 C 
ATOM     10  C   UNL     1      33.715 -24.262 -13.893  0.00  0.00    +0.190 C 
ATOM     11  C   UNL     1      32.506 -22.856 -17.149  0.00  0.00    +0.037 C 
ATOM     12  C   UNL     1      35.560 -23.846 -15.479  0.00  0.00    +0.269 C 
ATOM     13  C   UNL     1      36.096 -24.748 -13.323  0.00  0.00    +0.002 C 
ATOM     14  C   UNL     1      37.435 -24.752 -13.691  0.00  0.00    +0.116 C 
ATOM     15  C   UNL     1      37.762 -24.293 -14.956  0.00  0.00    +0.186 C 
ATOM     16  N   UNL     1      39.127 -24.296 -15.338  0.00  0.00    -0.333 N 
ATOM     17  H   UNL     1      39.389 -23.976 -16.232  0.00  0.00    +0.145 HD
ATOM     18  H   UNL     1      39.813 -24.617 -14.709  0.00  0.00    +0.145 HD
ENDROOT
BRANCH   4  19
ATOM     19  C   UNL     1      29.120 -23.132 -15.487  0.00  0.00    +0.022 C 
ATOM     20  C   UNL     1      28.490 -24.519 -15.255  0.00  0.00    +0.005 C 
ATOM     21  C   UNL     1      28.383 -22.409 -16.630  0.00  0.00    +0.005 C 
ENDBRANCH   4  19
BRANCH  14  23
ATOM     22  O   UNL     1      39.363 -25.997 -13.015  0.00  0.00    -0.245 OA
ATOM     23  C   UNL     1      38.434 -25.231 -12.745  0.00  0.00    +0.342 C 
BRANCH  23  24
ATOM     24  O   UNL     1      38.240 -24.738 -11.492  0.00  0.00    -0.477 OA
ATOM     25  H   UNL     1      38.940 -24.304 -11.046  0.00  0.00    +0.295 HD
ENDBRANCH  23  24
ENDBRANCH  14  23
TORSDOF 3
ENDMDL
MODEL 7
REMARK VINA RESULT:     -10.0      6.365      9.997
REMARK  Name = 2161
REMARK  3 active torsions:
REMARK  status: ('A' for Active; 'I' for Inactive)
REMARK    1  A    between atoms: C_4  and  C_19
REMARK    2  A    between atoms: C_14  and  C_23
REMARK    3  A    between atoms: C_23  and  O_24
REMARK                            x       y       z     vdW  Elec       q    Type
REMARK                         _______ _______ _______ _____ _____    ______ ____
ROOT
ATOM      1  O   UNL     1      32.638 -21.649 -18.812  0.00  0.00    -0.430 OA
ATOM      2  O   UNL     1      36.723 -21.772 -18.717  0.00  0.00    -0.290 OA
ATOM      3  N   UNL     1      32.478 -23.005 -16.970  0.00  0.00    -0.355 NA
ATOM      4  C   UNL     1      34.750 -19.536 -21.715  0.00  0.00    -0.022 C 
ATOM      5  C   UNL     1      34.777 -20.968 -19.773  0.00  0.00    +0.070 C 
ATOM      6  C   UNL     1      35.467 -20.253 -20.756  0.00  0.00    +0.002 C 
ATOM      7  C   UNL     1      33.382 -20.971 -19.746  0.00  0.00    +0.151 C 
ATOM      8  C   UNL     1      33.356 -19.536 -21.691  0.00  0.00    -0.001 C 
ATOM      9  C   UNL     1      34.680 -22.448 -17.764  0.00  0.00    +0.173 C 
ATOM     10  C   UNL     1      35.501 -21.732 -18.749  0.00  0.00    +0.190 C 
ATOM     11  C   UNL     1      32.672 -20.252 -20.709  0.00  0.00    +0.037 C 
ATOM     12  C   UNL     1      33.296 -22.372 -17.844  0.00  0.00    +0.269 C 
ATOM     13  C   UNL     1      35.259 -23.205 -16.748  0.00  0.00    +0.002 C 
ATOM     14  C   UNL     1      34.438 -23.862 -15.841  0.00  0.00    +0.116 C 
ATOM     15  C   UNL     1      33.068 -23.733 -15.994  0.00  0.00    +0.186 C 
ATOM     16  N   UNL     1      32.224 -24.401 -15.072  0.00  0.00    -0.333 N 
ATOM     17  H   UNL     1      31.245 -24.326 -15.156  0.00  0.00    +0.145 HD
ATOM     18  H   UNL     1      32.616 -24.940 -14.347  0.00  0.00    +0.145 HD
ENDROOT
BRANCH   4  19
ATOM     19  C   UNL     1      35.477 -18.769 -22.767  0.00  0.00    +0.022 C 
ATOM     20  C   UNL     1      35.450 -17.250 -22.513  0.00  0.00    +0.005 C 
ATOM     21  C   UNL     1      34.953 -19.070 -24.184  0.00  0.00    +0.005 C 
ENDBRANCH   4  19
BRANCH  14  23
ATOM     22  O   UNL     1      34.909 -24.443 -13.568  0.00  0.00    -0.245 OA
ATOM     23  C   UNL     1      35.040 -24.655 -14.777  0.00  0.00    +0.342 C 
BRANCH  23  24
ATOM     24  O   UNL     1      35.785 -25.687 -15.258  0.00  0.00    -0.477 OA
ATOM     25  H   UNL     1      36.579 -25.514 -15.723  0.00  0.00    +0.295 HD
ENDBRANCH  23  24
ENDBRANCH  14  23
TORSDOF 3
ENDMDL
MODEL 8
REMARK VINA RESULT:      -9.9      1.732      2.187
REMARK  Name = 2161
REMARK  3 active torsions:
REMARK  status: ('A' for Active; 'I' for Inactive)
REMARK    1  A    between atoms: C_4  and  C_19
REMARK    2  A    between atoms: C_14  and  C_23
REMARK    3  A    between atoms: C_23  and  O_24
REMARK                            x       y       z     vdW  Elec       q    Type
REMARK                         _______ _______ _______ _____ _____    ______ ____
ROOT
ATOM      1  O   UNL     1      34.165 -16.795 -24.387  0.00  0.00    -0.430 OA
ATOM      2  O   UNL     1      34.723 -15.149 -20.687  0.00  0.00    -0.290 OA
ATOM      3  N   UNL     1      33.760 -14.741 -25.323  0.00  0.00    -0.355 NA
ATOM      4  C   UNL     1      35.067 -19.331 -21.209  0.00  0.00    -0.022 C 
ATOM      5  C   UNL     1      34.667 -17.093 -22.016  0.00  0.00    +0.070 C 
ATOM      6  C   UNL     1      34.969 -17.961 -20.964  0.00  0.00    +0.002 C 
ATOM      7  C   UNL     1      34.464 -17.585 -23.306  0.00  0.00    +0.151 C 
ATOM      8  C   UNL     1      34.865 -19.828 -22.496  0.00  0.00    -0.001 C 
ATOM      9  C   UNL     1      34.236 -14.824 -22.966  0.00  0.00    +0.173 C 
ATOM     10  C   UNL     1      34.557 -15.646 -21.792  0.00  0.00    +0.190 C 
ATOM     11  C   UNL     1      34.563 -18.958 -23.543  0.00  0.00    +0.037 C 
ATOM     12  C   UNL     1      34.056 -15.435 -24.200  0.00  0.00    +0.269 C 
ATOM     13  C   UNL     1      34.107 -13.440 -22.871  0.00  0.00    +0.002 C 
ATOM     14  C   UNL     1      33.802 -12.709 -24.012  0.00  0.00    +0.116 C 
ATOM     15  C   UNL     1      33.640 -13.399 -25.201  0.00  0.00    +0.186 C 
ATOM     16  N   UNL     1      33.329 -12.658 -26.369  0.00  0.00    -0.333 N 
ATOM     17  H   UNL     1      33.208 -13.123 -27.230  0.00  0.00    +0.145 HD
ATOM     18  H   UNL     1      33.234 -11.680 -26.320  0.00  0.00    +0.145 HD
ENDROOT
BRANCH   4  19
ATOM     19  C   UNL     1      35.390 -20.266 -20.092  0.00  0.00    +0.022 C 
ATOM     20  C   UNL     1      36.677 -21.071 -20.351  0.00  0.00    +0.005 C 
ATOM     21  C   UNL     1      34.229 -21.226 -19.774  0.00  0.00    +0.005 C 
ENDBRANCH   4  19
BRANCH  14  23
ATOM     22  O   UNL     1      32.710 -10.667 -23.409  0.00  0.00    -0.245 OA
ATOM     23  C   UNL     1      33.666 -11.262 -23.916  0.00  0.00    +0.342 C 
BRANCH  23  24
ATOM     24  O   UNL     1      34.728 -10.604 -24.456  0.00  0.00    -0.477 OA
ATOM     25  H   UNL     1      34.766  -9.669 -24.422  0.00  0.00    +0.295 HD
ENDBRANCH  23  24
ENDBRANCH  14  23
TORSDOF 3
ENDMDL
MODEL 9
REMARK VINA RESULT:      -9.8      7.250     10.577
REMARK  Name = 2161
REMARK  3 active torsions:
REMARK  status: ('A' for Active; 'I' for Inactive)
REMARK    1  A    between atoms: C_4  and  C_19
REMARK    2  A    between atoms: C_14  and  C_23
REMARK    3  A    between atoms: C_23  and  O_24
REMARK                            x       y       z     vdW  Elec       q    Type
REMARK                         _______ _______ _______ _____ _____    ______ ____
ROOT
ATOM      1  O   UNL     1      35.746 -22.651 -16.804  0.00  0.00    -0.430 OA
ATOM      2  O   UNL     1      32.029 -22.162 -18.434  0.00  0.00    -0.290 OA
ATOM      3  N   UNL     1      34.890 -23.779 -15.001  0.00  0.00    -0.355 NA
ATOM      4  C   UNL     1      35.425 -20.626 -20.430  0.00  0.00    -0.022 C 
ATOM      5  C   UNL     1      34.348 -21.788 -18.611  0.00  0.00    +0.070 C 
ATOM      6  C   UNL     1      34.262 -21.105 -19.827  0.00  0.00    +0.002 C 
ATOM      7  C   UNL     1      35.584 -21.991 -17.997  0.00  0.00    +0.151 C 
ATOM      8  C   UNL     1      36.663 -20.826 -19.820  0.00  0.00    -0.001 C 
ATOM      9  C   UNL     1      33.345 -23.007 -16.676  0.00  0.00    +0.173 C 
ATOM     10  C   UNL     1      33.143 -22.306 -17.951  0.00  0.00    +0.190 C 
ATOM     11  C   UNL     1      36.744 -21.507 -18.606  0.00  0.00    +0.037 C 
ATOM     12  C   UNL     1      34.630 -23.144 -16.168  0.00  0.00    +0.269 C 
ATOM     13  C   UNL     1      32.274 -23.540 -15.962  0.00  0.00    +0.002 C 
ATOM     14  C   UNL     1      32.519 -24.194 -14.762  0.00  0.00    +0.116 C 
ATOM     15  C   UNL     1      33.831 -24.286 -14.328  0.00  0.00    +0.186 C 
ATOM     16  N   UNL     1      34.088 -24.952 -13.105  0.00  0.00    -0.333 N 
ATOM     17  H   UNL     1      35.012 -25.033 -12.771  0.00  0.00    +0.145 HD
ATOM     18  H   UNL     1      33.343 -25.335 -12.586  0.00  0.00    +0.145 HD
ENDROOT
BRANCH   4  19
ATOM     19  C   UNL     1      35.344 -19.897 -21.729  0.00  0.00    +0.022 C 
ATOM     20  C   UNL     1      36.334 -18.718 -21.806  0.00  0.00    +0.005 C 
ATOM     21  C   UNL     1      33.919 -19.402 -22.039  0.00  0.00    +0.005 C 
ENDBRANCH   4  19
BRANCH  14  23
ATOM     22  O   UNL     1      31.073 -24.422 -12.869  0.00  0.00    -0.245 OA
ATOM     23  C   UNL     1      31.402 -24.752 -14.012  0.00  0.00    +0.342 C 
BRANCH  23  24
ATOM     24  O   UNL     1      30.730 -25.704 -14.715  0.00  0.00    -0.477 OA
ATOM     25  H   UNL     1      31.199 -26.415 -15.105  0.00  0.00    +0.295 HD
ENDBRANCH  23  24
ENDBRANCH  14  23
TORSDOF 3
ENDMDL
