MODEL 1
REMARK VINA RESULT:      -5.2      0.000      0.000
REMARK  Name = 2468
REMARK  6 active torsions:
REMARK  status: ('A' for Active; 'I' for Inactive)
REMARK    1  A    between atoms: N_1  and  C_3
REMARK    2  A    between atoms: N_1  and  C_14
REMARK    3  A    between atoms: C_3  and  N_6
REMARK    4  A    between atoms: N_6  and  C_9
REMARK    5  A    between atoms: C_14  and  C_15
REMARK    6  A    between atoms: C_15  and  C_16
REMARK                            x       y       z     vdW  Elec       q    Type
REMARK                         _______ _______ _______ _____ _____    ______ ____
ROOT
ATOM      1  N   UNL     1      35.951 -27.077 -15.059  0.00  0.00    -0.368 N 
ATOM      2  C   UNL     1      37.005 -26.191 -15.078  0.00  0.00    +0.220 C 
ATOM      3  H   UNL     1      35.045 -26.770 -15.293  0.00  0.00    +0.159 HD
ATOM      4  H   UNL     1      36.102 -28.018 -14.810  0.00  0.00    +0.159 HD
ENDROOT
BRANCH   2   5
ATOM      5  N   UNL     1      36.961 -24.927 -15.359  0.00  0.00    -0.238 NA
BRANCH   5   6
ATOM      6  C   UNL     1      35.859 -24.156 -14.801  0.00  0.00    +0.129 C 
BRANCH   6   7
ATOM      7  C   UNL     1      35.853 -22.754 -15.399  0.00  0.00    +0.026 C 
BRANCH   7   8
ATOM      8  C   UNL     1      37.134 -22.443 -16.174  0.00  0.00    +0.002 C 
ATOM      9  C   UNL     1      36.829 -21.795 -17.516  0.00  0.00    +0.000 C 
ENDBRANCH   7   8
ENDBRANCH   6   7
ENDBRANCH   5   6
ENDBRANCH   2   5
BRANCH   2  10
ATOM     10  N   UNL     1      38.260 -26.660 -14.742  0.00  0.00    -0.180 NA
BRANCH  10  13
ATOM     11  N   UNL     1      39.356 -25.170 -13.321  0.00  0.00    -0.370 N 
ATOM     12  N   UNL     1      40.141 -25.344 -15.458  0.00  0.00    -0.370 N 
ATOM     13  C   UNL     1      39.207 -25.779 -14.544  0.00  0.00    +0.196 C 
ATOM     14  H   UNL     1      38.746 -25.397 -12.581  0.00  0.00    +0.159 HD
ATOM     15  H   UNL     1      40.071 -24.508 -13.185  0.00  0.00    +0.159 HD
ATOM     16  H   UNL     1      40.140 -25.707 -16.373  0.00  0.00    +0.159 HD
ATOM     17  H   UNL     1      40.810 -24.671 -15.196  0.00  0.00    +0.159 HD
ENDBRANCH  10  13
ENDBRANCH   2  10
TORSDOF 6
ENDMDL
MODEL 2
REMARK VINA RESULT:      -5.2      7.733      9.923
REMARK  Name = 2468
REMARK  6 active torsions:
REMARK  status: ('A' for Active; 'I' for Inactive)
REMARK    1  A    between atoms: N_1  and  C_3
REMARK    2  A    between atoms: N_1  and  C_14
REMARK    3  A    between atoms: C_3  and  N_6
REMARK    4  A    between atoms: N_6  and  C_9
REMARK    5  A    between atoms: C_14  and  C_15
REMARK    6  A    between atoms: C_15  and  C_16
REMARK                            x       y       z     vdW  Elec       q    Type
REMARK                         _______ _______ _______ _____ _____    ______ ____
ROOT
ATOM      1  N   UNL     1      35.385 -18.060 -20.723  0.00  0.00    -0.368 N 
ATOM      2  C   UNL     1      34.854 -19.209 -21.266  0.00  0.00    +0.220 C 
ATOM      3  H   UNL     1      35.521 -17.265 -21.288  0.00  0.00    +0.159 HD
ATOM      4  H   UNL     1      35.630 -18.033 -19.770  0.00  0.00    +0.159 HD
ENDROOT
BRANCH   2   5
ATOM      5  N   UNL     1      34.507 -19.405 -22.499  0.00  0.00    -0.238 NA
BRANCH   5   6
ATOM      6  C   UNL     1      35.331 -18.793 -23.531  0.00  0.00    +0.129 C 
BRANCH   6   7
ATOM      7  C   UNL     1      34.503 -18.571 -24.792  0.00  0.00    +0.026 C 
BRANCH   7   8
ATOM      8  C   UNL     1      34.292 -17.088 -25.099  0.00  0.00    +0.002 C 
ATOM      9  C   UNL     1      34.900 -16.205 -24.020  0.00  0.00    +0.000 C 
ENDBRANCH   7   8
ENDBRANCH   6   7
ENDBRANCH   5   6
ENDBRANCH   2   5
BRANCH   2  10
ATOM     10  N   UNL     1      34.680 -20.303 -20.441  0.00  0.00    -0.180 NA
BRANCH  10  13
ATOM     11  N   UNL     1      32.391 -19.861 -20.439  0.00  0.00    -0.370 N 
ATOM     12  N   UNL     1      33.058 -21.911 -19.689  0.00  0.00    -0.370 N 
ATOM     13  C   UNL     1      33.456 -20.694 -20.196  0.00  0.00    +0.196 C 
ATOM     14  H   UNL     1      32.545 -18.958 -20.804  0.00  0.00    +0.159 HD
ATOM     15  H   UNL     1      31.474 -20.165 -20.249  0.00  0.00    +0.159 HD
ATOM     16  H   UNL     1      33.730 -22.598 -19.473  0.00  0.00    +0.159 HD
ATOM     17  H   UNL     1      32.102 -22.095 -19.543  0.00  0.00    +0.159 HD
ENDBRANCH  10  13
ENDBRANCH   2  10
TORSDOF 6
ENDMDL
MODEL 3
REMARK VINA RESULT:      -5.2      9.375     11.536
REMARK  Name = 2468
REMARK  6 active torsions:
REMARK  status: ('A' for Active; 'I' for Inactive)
REMARK    1  A    between atoms: N_1  and  C_3
REMARK    2  A    between atoms: N_1  and  C_14
REMARK    3  A    between atoms: C_3  and  N_6
REMARK    4  A    between atoms: N_6  and  C_9
REMARK    5  A    between atoms: C_14  and  C_15
REMARK    6  A    between atoms: C_15  and  C_16
REMARK                            x       y       z     vdW  Elec       q    Type
REMARK                         _______ _______ _______ _____ _____    ______ ____
ROOT
ATOM      1  N   UNL     1      34.599 -15.354 -20.498  0.00  0.00    -0.368 N 
ATOM      2  C   UNL     1      34.592 -16.045 -21.690  0.00  0.00    +0.220 C 
ATOM      3  H   UNL     1      34.298 -15.796 -19.671  0.00  0.00    +0.159 HD
ATOM      4  H   UNL     1      34.905 -14.419 -20.473  0.00  0.00    +0.159 HD
ENDROOT
BRANCH   2   5
ATOM      5  N   UNL     1      34.199 -17.264 -21.887  0.00  0.00    -0.238 NA
BRANCH   5   6
ATOM      6  C   UNL     1      34.886 -18.315 -21.150  0.00  0.00    +0.129 C 
BRANCH   6   7
ATOM      7  C   UNL     1      34.260 -19.667 -21.471  0.00  0.00    +0.026 C 
BRANCH   7   8
ATOM      8  C   UNL     1      33.071 -19.991 -20.564  0.00  0.00    +0.002 C 
ATOM      9  C   UNL     1      33.365 -21.186 -19.669  0.00  0.00    +0.000 C 
ENDBRANCH   7   8
ENDBRANCH   6   7
ENDBRANCH   5   6
ENDBRANCH   2   5
BRANCH   2  10
ATOM     10  N   UNL     1      35.020 -15.390 -22.829  0.00  0.00    -0.180 NA
BRANCH  10  13
ATOM     11  N   UNL     1      33.530 -15.358 -24.622  0.00  0.00    -0.370 N 
ATOM     12  N   UNL     1      35.231 -16.879 -24.705  0.00  0.00    -0.370 N 
ATOM     13  C   UNL     1      34.637 -15.866 -23.986  0.00  0.00    +0.196 C 
ATOM     14  H   UNL     1      33.016 -14.627 -24.208  0.00  0.00    +0.159 HD
ATOM     15  H   UNL     1      33.251 -15.726 -25.492  0.00  0.00    +0.159 HD
ATOM     16  H   UNL     1      36.036 -17.325 -24.354  0.00  0.00    +0.159 HD
ATOM     17  H   UNL     1      34.852 -17.157 -25.570  0.00  0.00    +0.159 HD
ENDBRANCH  10  13
ENDBRANCH   2  10
TORSDOF 6
ENDMDL
MODEL 4
REMARK VINA RESULT:      -5.1      5.927      7.845
REMARK  Name = 2468
REMARK  6 active torsions:
REMARK  status: ('A' for Active; 'I' for Inactive)
REMARK    1  A    between atoms: N_1  and  C_3
REMARK    2  A    between atoms: N_1  and  C_14
REMARK    3  A    between atoms: C_3  and  N_6
REMARK    4  A    between atoms: N_6  and  C_9
REMARK    5  A    between atoms: C_14  and  C_15
REMARK    6  A    between atoms: C_15  and  C_16
REMARK                            x       y       z     vdW  Elec       q    Type
REMARK                         _______ _______ _______ _____ _____    ______ ____
ROOT
ATOM      1  N   UNL     1      36.601 -21.030 -18.534  0.00  0.00    -0.368 N 
ATOM      2  C   UNL     1      35.717 -21.217 -19.574  0.00  0.00    +0.220 C 
ATOM      3  H   UNL     1      37.310 -20.351 -18.606  0.00  0.00    +0.159 HD
ATOM      4  H   UNL     1      36.524 -21.577 -17.719  0.00  0.00    +0.159 HD
ENDROOT
BRANCH   2   5
ATOM      5  N   UNL     1      35.704 -20.597 -20.712  0.00  0.00    -0.238 NA
BRANCH   5   6
ATOM      6  C   UNL     1      36.296 -19.266 -20.755  0.00  0.00    +0.129 C 
BRANCH   6   7
ATOM      7  C   UNL     1      35.631 -18.440 -21.850  0.00  0.00    +0.026 C 
BRANCH   7   8
ATOM      8  C   UNL     1      34.685 -19.271 -22.718  0.00  0.00    +0.002 C 
ATOM      9  C   UNL     1      34.723 -18.821 -24.171  0.00  0.00    +0.000 C 
ENDBRANCH   7   8
ENDBRANCH   6   7
ENDBRANCH   5   6
ENDBRANCH   2   5
BRANCH   2  10
ATOM     10  N   UNL     1      34.737 -22.180 -19.436  0.00  0.00    -0.180 NA
BRANCH  10  13
ATOM     11  N   UNL     1      32.679 -22.438 -18.371  0.00  0.00    -0.370 N 
ATOM     12  N   UNL     1      32.884 -20.703 -19.840  0.00  0.00    -0.370 N 
ATOM     13  C   UNL     1      33.508 -21.776 -19.244  0.00  0.00    +0.196 C 
ATOM     14  H   UNL     1      33.009 -23.226 -17.880  0.00  0.00    +0.159 HD
ATOM     15  H   UNL     1      31.755 -22.126 -18.236  0.00  0.00    +0.159 HD
ATOM     16  H   UNL     1      33.374 -20.145 -20.487  0.00  0.00    +0.159 HD
ATOM     17  H   UNL     1      31.948 -20.492 -19.619  0.00  0.00    +0.159 HD
ENDBRANCH  10  13
ENDBRANCH   2  10
TORSDOF 6
ENDMDL
MODEL 5
REMARK VINA RESULT:      -5.1      1.231      1.583
REMARK  Name = 2468
REMARK  6 active torsions:
REMARK  status: ('A' for Active; 'I' for Inactive)
REMARK    1  A    between atoms: N_1  and  C_3
REMARK    2  A    between atoms: N_1  and  C_14
REMARK    3  A    between atoms: C_3  and  N_6
REMARK    4  A    between atoms: N_6  and  C_9
REMARK    5  A    between atoms: C_14  and  C_15
REMARK    6  A    between atoms: C_15  and  C_16
REMARK                            x       y       z     vdW  Elec       q    Type
REMARK                         _______ _______ _______ _____ _____    ______ ____
ROOT
ATOM      1  N   UNL     1      36.053 -26.862 -15.026  0.00  0.00    -0.368 N 
ATOM      2  C   UNL     1      37.174 -26.516 -14.305  0.00  0.00    +0.220 C 
ATOM      3  H   UNL     1      35.159 -26.612 -14.697  0.00  0.00    +0.159 HD
ATOM      4  H   UNL     1      36.145 -27.362 -15.869  0.00  0.00    +0.159 HD
ENDROOT
BRANCH   2   5
ATOM      5  N   UNL     1      37.214 -25.885 -13.174  0.00  0.00    -0.238 NA
BRANCH   5   6
ATOM      6  C   UNL     1      36.186 -24.882 -12.930  0.00  0.00    +0.129 C 
BRANCH   6   7
ATOM      7  C   UNL     1      36.596 -23.556 -13.560  0.00  0.00    +0.026 C 
BRANCH   7   8
ATOM      8  C   UNL     1      35.652 -23.126 -14.684  0.00  0.00    +0.002 C 
ATOM      9  C   UNL     1      36.417 -22.795 -15.957  0.00  0.00    +0.000 C 
ENDBRANCH   7   8
ENDBRANCH   6   7
ENDBRANCH   5   6
ENDBRANCH   2   5
BRANCH   2  10
ATOM     10  N   UNL     1      38.410 -26.887 -14.797  0.00  0.00    -0.180 NA
BRANCH  10  13
ATOM     11  N   UNL     1      40.489 -26.236 -13.964  0.00  0.00    -0.370 N 
ATOM     12  N   UNL     1      39.441 -24.799 -15.395  0.00  0.00    -0.370 N 
ATOM     13  C   UNL     1      39.378 -26.008 -14.740  0.00  0.00    +0.196 C 
ATOM     14  H   UNL     1      40.563 -27.070 -13.444  0.00  0.00    +0.159 HD
ATOM     15  H   UNL     1      41.210 -25.567 -13.927  0.00  0.00    +0.159 HD
ATOM     16  H   UNL     1      38.704 -24.519 -15.985  0.00  0.00    +0.159 HD
ATOM     17  H   UNL     1      40.224 -24.214 -15.275  0.00  0.00    +0.159 HD
ENDBRANCH  10  13
ENDBRANCH   2  10
TORSDOF 6
ENDMDL
MODEL 6
REMARK VINA RESULT:      -5.1      9.726     11.613
REMARK  Name = 2468
REMARK  6 active torsions:
REMARK  status: ('A' for Active; 'I' for Inactive)
REMARK    1  A    between atoms: N_1  and  C_3
REMARK    2  A    between atoms: N_1  and  C_14
REMARK    3  A    between atoms: C_3  and  N_6
REMARK    4  A    between atoms: N_6  and  C_9
REMARK    5  A    between atoms: C_14  and  C_15
REMARK    6  A    between atoms: C_15  and  C_16
REMARK                            x       y       z     vdW  Elec       q    Type
REMARK                         _______ _______ _______ _____ _____    ______ ____
ROOT
ATOM      1  N   UNL     1      35.206 -16.832 -24.803  0.00  0.00    -0.368 N 
ATOM      2  C   UNL     1      34.908 -16.596 -23.479  0.00  0.00    +0.220 C 
ATOM      3  H   UNL     1      35.212 -17.754 -25.150  0.00  0.00    +0.159 HD
ATOM      4  H   UNL     1      35.414 -16.080 -25.403  0.00  0.00    +0.159 HD
ENDROOT
BRANCH   2   5
ATOM      5  N   UNL     1      34.638 -17.477 -22.568  0.00  0.00    -0.238 NA
BRANCH   5   6
ATOM      6  C   UNL     1      35.721 -18.351 -22.141  0.00  0.00    +0.129 C 
BRANCH   6   7
ATOM      7  C   UNL     1      35.206 -19.350 -21.111  0.00  0.00    +0.026 C 
BRANCH   7   8
ATOM      8  C   UNL     1      33.678 -19.381 -21.040  0.00  0.00    +0.002 C 
ATOM      9  C   UNL     1      33.185 -20.530 -20.174  0.00  0.00    +0.000 C 
ENDBRANCH   7   8
ENDBRANCH   6   7
ENDBRANCH   5   6
ENDBRANCH   2   5
BRANCH   2  10
ATOM     10  N   UNL     1      34.911 -15.290 -23.031  0.00  0.00    -0.180 NA
BRANCH  10  13
ATOM     11  N   UNL     1      32.812 -14.767 -22.160  0.00  0.00    -0.370 N 
ATOM     12  N   UNL     1      34.554 -14.876 -20.689  0.00  0.00    -0.370 N 
ATOM     13  C   UNL     1      34.157 -14.997 -22.002  0.00  0.00    +0.196 C 
ATOM     14  H   UNL     1      32.405 -14.824 -23.056  0.00  0.00    +0.159 HD
ATOM     15  H   UNL     1      32.255 -14.545 -21.380  0.00  0.00    +0.159 HD
ATOM     16  H   UNL     1      35.497 -15.018 -20.445  0.00  0.00    +0.159 HD
ATOM     17  H   UNL     1      33.895 -14.648 -19.994  0.00  0.00    +0.159 HD
ENDBRANCH  10  13
ENDBRANCH   2  10
TORSDOF 6
ENDMDL
MODEL 7
REMARK VINA RESULT:      -5.1      7.900      9.950
REMARK  Name = 2468
REMARK  6 active torsions:
REMARK  status: ('A' for Active; 'I' for Inactive)
REMARK    1  A    between atoms: N_1  and  C_3
REMARK    2  A    between atoms: N_1  and  C_14
REMARK    3  A    between atoms: C_3  and  N_6
REMARK    4  A    between atoms: N_6  and  C_9
REMARK    5  A    between atoms: C_14  and  C_15
REMARK    6  A    between atoms: C_15  and  C_16
REMARK                            x       y       z     vdW  Elec       q    Type
REMARK                         _______ _______ _______ _____ _____    ______ ____
ROOT
ATOM      1  N   UNL     1      35.263 -17.283 -20.717  0.00  0.00    -0.368 N 
ATOM      2  C   UNL     1      35.317 -18.407 -21.511  0.00  0.00    +0.220 C 
ATOM      3  H   UNL     1      34.779 -17.308 -19.860  0.00  0.00    +0.159 HD
ATOM      4  H   UNL     1      35.707 -16.453 -21.006  0.00  0.00    +0.159 HD
ENDROOT
BRANCH   2   5
ATOM      5  N   UNL     1      34.767 -19.557 -21.279  0.00  0.00    -0.238 NA
BRANCH   5   6
ATOM      6  C   UNL     1      33.352 -19.565 -20.936  0.00  0.00    +0.129 C 
BRANCH   6   7
ATOM      7  C   UNL     1      33.052 -20.728 -19.998  0.00  0.00    +0.026 C 
BRANCH   7   8
ATOM      8  C   UNL     1      34.318 -21.460 -19.550  0.00  0.00    +0.002 C 
ATOM      9  C   UNL     1      34.003 -22.546 -18.533  0.00  0.00    +0.000 C 
ENDBRANCH   7   8
ENDBRANCH   6   7
ENDBRANCH   5   6
ENDBRANCH   2   5
BRANCH   2  10
ATOM     10  N   UNL     1      36.005 -18.331 -22.706  0.00  0.00    -0.180 NA
BRANCH  10  13
ATOM     11  N   UNL     1      34.560 -18.996 -24.412  0.00  0.00    -0.370 N 
ATOM     12  N   UNL     1      35.260 -16.823 -24.424  0.00  0.00    -0.370 N 
ATOM     13  C   UNL     1      35.323 -18.041 -23.784  0.00  0.00    +0.196 C 
ATOM     14  H   UNL     1      34.522 -19.912 -24.049  0.00  0.00    +0.159 HD
ATOM     15  H   UNL     1      34.053 -18.766 -25.223  0.00  0.00    +0.159 HD
ATOM     16  H   UNL     1      35.764 -16.055 -24.070  0.00  0.00    +0.159 HD
ATOM     17  H   UNL     1      34.712 -16.720 -25.235  0.00  0.00    +0.159 HD
ENDBRANCH  10  13
ENDBRANCH   2  10
TORSDOF 6
ENDMDL
MODEL 8
REMARK VINA RESULT:      -5.1     10.394     12.538
REMARK  Name = 2468
REMARK  6 active torsions:
REMARK  status: ('A' for Active; 'I' for Inactive)
REMARK    1  A    between atoms: N_1  and  C_3
REMARK    2  A    between atoms: N_1  and  C_14
REMARK    3  A    between atoms: C_3  and  N_6
REMARK    4  A    between atoms: N_6  and  C_9
REMARK    5  A    between atoms: C_14  and  C_15
REMARK    6  A    between atoms: C_15  and  C_16
REMARK                            x       y       z     vdW  Elec       q    Type
REMARK                         _______ _______ _______ _____ _____    ______ ____
ROOT
ATOM      1  N   UNL     1      34.192 -18.854 -25.042  0.00  0.00    -0.368 N 
ATOM      2  C   UNL     1      34.577 -17.576 -24.700  0.00  0.00    +0.220 C 
ATOM      3  H   UNL     1      34.243 -19.578 -24.377  0.00  0.00    +0.159 HD
ATOM      4  H   UNL     1      33.867 -19.044 -25.951  0.00  0.00    +0.159 HD
ENDROOT
BRANCH   2   5
ATOM      5  N   UNL     1      35.044 -17.178 -23.559  0.00  0.00    -0.238 NA
BRANCH   5   6
ATOM      6  C   UNL     1      35.543 -18.198 -22.647  0.00  0.00    +0.129 C 
BRANCH   6   7
ATOM      7  C   UNL     1      34.695 -18.220 -21.381  0.00  0.00    +0.026 C 
BRANCH   7   8
ATOM      8  C   UNL     1      34.410 -19.642 -20.893  0.00  0.00    +0.002 C 
ATOM      9  C   UNL     1      32.918 -19.879 -20.715  0.00  0.00    +0.000 C 
ENDBRANCH   7   8
ENDBRANCH   6   7
ENDBRANCH   5   6
ENDBRANCH   2   5
BRANCH   2  10
ATOM     10  N   UNL     1      34.492 -16.588 -25.661  0.00  0.00    -0.180 NA
BRANCH  10  13
ATOM     11  N   UNL     1      32.698 -15.272 -26.361  0.00  0.00    -0.370 N 
ATOM     12  N   UNL     1      33.638 -14.768 -24.343  0.00  0.00    -0.370 N 
ATOM     13  C   UNL     1      33.668 -15.595 -25.443  0.00  0.00    +0.196 C 
ATOM     14  H   UNL     1      32.617 -15.792 -27.194  0.00  0.00    +0.159 HD
ATOM     15  H   UNL     1      32.086 -14.521 -26.187  0.00  0.00    +0.159 HD
ATOM     16  H   UNL     1      34.284 -14.897 -23.611  0.00  0.00    +0.159 HD
ATOM     17  H   UNL     1      32.970 -14.046 -24.287  0.00  0.00    +0.159 HD
ENDBRANCH  10  13
ENDBRANCH   2  10
TORSDOF 6
ENDMDL
MODEL 9
REMARK VINA RESULT:      -5.1      5.167      6.875
REMARK  Name = 2468
REMARK  6 active torsions:
REMARK  status: ('A' for Active; 'I' for Inactive)
REMARK    1  A    between atoms: N_1  and  C_3
REMARK    2  A    between atoms: N_1  and  C_14
REMARK    3  A    between atoms: C_3  and  N_6
REMARK    4  A    between atoms: N_6  and  C_9
REMARK    5  A    between atoms: C_14  and  C_15
REMARK    6  A    between atoms: C_15  and  C_16
REMARK                            x       y       z     vdW  Elec       q    Type
REMARK                         _______ _______ _______ _____ _____    ______ ____
ROOT
ATOM      1  N   UNL     1      35.319 -22.035 -19.052  0.00  0.00    -0.368 N 
ATOM      2  C   UNL     1      34.005 -22.444 -19.111  0.00  0.00    +0.220 C 
ATOM      3  H   UNL     1      35.620 -21.268 -19.592  0.00  0.00    +0.159 HD
ATOM      4  H   UNL     1      35.957 -22.509 -18.471  0.00  0.00    +0.159 HD
ENDROOT
BRANCH   2   5
ATOM      5  N   UNL     1      33.059 -21.941 -19.840  0.00  0.00    -0.238 NA
BRANCH   5   6
ATOM      6  C   UNL     1      32.877 -20.496 -19.795  0.00  0.00    +0.129 C 
BRANCH   6   7
ATOM      7  C   UNL     1      33.230 -19.887 -21.146  0.00  0.00    +0.026 C 
BRANCH   7   8
ATOM      8  C   UNL     1      34.576 -19.161 -21.126  0.00  0.00    +0.002 C 
ATOM      9  C   UNL     1      35.113 -18.945 -22.534  0.00  0.00    +0.000 C 
ENDBRANCH   7   8
ENDBRANCH   6   7
ENDBRANCH   5   6
ENDBRANCH   2   5
BRANCH   2  10
ATOM     10  N   UNL     1      33.620 -23.524 -18.340  0.00  0.00    -0.180 NA
BRANCH  10  13
ATOM     11  N   UNL     1      31.744 -22.800 -17.159  0.00  0.00    -0.370 N 
ATOM     12  N   UNL     1      33.563 -23.443 -15.938  0.00  0.00    -0.370 N 
ATOM     13  C   UNL     1      33.032 -23.278 -17.198  0.00  0.00    +0.196 C 
ATOM     14  H   UNL     1      31.254 -22.639 -17.998  0.00  0.00    +0.159 HD
ATOM     15  H   UNL     1      31.313 -22.617 -16.293  0.00  0.00    +0.159 HD
ATOM     16  H   UNL     1      34.481 -23.782 -15.831  0.00  0.00    +0.159 HD
ATOM     17  H   UNL     1      33.024 -23.223 -15.143  0.00  0.00    +0.159 HD
ENDBRANCH  10  13
ENDBRANCH   2  10
TORSDOF 6
ENDMDL
