MODEL 1
REMARK VINA RESULT:      -8.4      0.000      0.000
REMARK  Name = 17754189
REMARK  7 active torsions:
REMARK  status: ('A' for Active; 'I' for Inactive)
REMARK    1  A    between atoms: C_3  and  O_17
REMARK    2  A    between atoms: C_4  and  C_19
REMARK    3  A    between atoms: C_5  and  N_9
REMARK    4  A    between atoms: C_19  and  O_20
REMARK    5  A    between atoms: O_20  and  P_21
REMARK    6  A    between atoms: P_21  and  O_23
REMARK    7  A    between atoms: P_21  and  O_25
REMARK                            x       y       z     vdW  Elec       q    Type
REMARK                         _______ _______ _______ _____ _____    ______ ____
ROOT
ATOM      1  O   UNL     1      32.750 -23.713 -17.775  0.00  0.00    -0.335 OA
ATOM      2  C   UNL     1      33.239 -22.843 -15.633  0.00  0.00    +0.061 C 
ATOM      3  C   UNL     1      34.528 -23.402 -16.218  0.00  0.00    +0.165 C 
ATOM      4  C   UNL     1      32.190 -23.587 -16.456  0.00  0.00    +0.150 C 
ATOM      5  C   UNL     1      34.177 -23.559 -17.692  0.00  0.00    +0.227 C 
ATOM      6  C   UNL     1      33.068 -23.015 -14.132  0.00  0.00    +0.005 C 
ENDROOT
BRANCH   5   9
ATOM      7  O   UNL     1      36.783 -22.408 -17.780  0.00  0.00    -0.252 OA
ATOM      8  O   UNL     1      35.433 -19.150 -20.732  0.00  0.00    -0.270 OA
ATOM      9  N   UNL     1      34.552 -22.409 -18.471  0.00  0.00    -0.217 N 
ATOM     10  N   UNL     1      36.097 -20.788 -19.252  0.00  0.00    -0.236 N 
ATOM     11  C   UNL     1      33.583 -21.792 -19.251  0.00  0.00    +0.071 C 
ATOM     12  C   UNL     1      35.873 -21.911 -18.448  0.00  0.00    +0.315 C 
ATOM     13  C   UNL     1      33.799 -20.717 -20.019  0.00  0.00    +0.047 C 
ATOM     14  C   UNL     1      35.168 -20.134 -20.048  0.00  0.00    +0.250 C 
ATOM     15  C   UNL     1      32.742 -20.067 -20.851  0.00  0.00    +0.037 C 
ATOM     16  H   UNL     1      37.011 -20.423 -19.252  0.00  0.00    +0.159 HD
ENDBRANCH   5   9
BRANCH   3  17
ATOM     17  O   UNL     1      34.830 -24.692 -15.694  0.00  0.00    -0.349 OA
ATOM     18  C   UNL     1      36.165 -24.758 -15.215  0.00  0.00    +0.174 C 
ENDBRANCH   3  17
BRANCH   4  19
ATOM     19  C   UNL     1      30.855 -22.870 -16.548  0.00  0.00    +0.183 C 
BRANCH  19  20
ATOM     20  O   UNL     1      29.829 -23.758 -16.136  0.00  0.00    -0.271 OA
BRANCH  20  21
ATOM     21  P   UNL     1      28.309 -23.447 -16.597  0.00  0.00    +0.473 P 
ATOM     22  O   UNL     1      27.694 -24.482 -17.493  0.00  0.00    -0.227 OA
BRANCH  21  23
ATOM     23  O   UNL     1      27.546 -23.221 -15.189  0.00  0.00    -0.303 OA
ATOM     24  H   UNL     1      27.792 -22.357 -14.823  0.00  0.00    +0.222 HD
ENDBRANCH  21  23
BRANCH  21  25
ATOM     25  O   UNL     1      28.393 -21.957 -17.218  0.00  0.00    -0.303 OA
ATOM     26  H   UNL     1      27.834 -21.358 -16.699  0.00  0.00    +0.222 HD
ENDBRANCH  21  25
ENDBRANCH  20  21
ENDBRANCH  19  20
ENDBRANCH   4  19
TORSDOF 7
ENDMDL
MODEL 2
REMARK VINA RESULT:      -8.3      3.321      6.465
REMARK  Name = 17754189
REMARK  7 active torsions:
REMARK  status: ('A' for Active; 'I' for Inactive)
REMARK    1  A    between atoms: C_3  and  O_17
REMARK    2  A    between atoms: C_4  and  C_19
REMARK    3  A    between atoms: C_5  and  N_9
REMARK    4  A    between atoms: C_19  and  O_20
REMARK    5  A    between atoms: O_20  and  P_21
REMARK    6  A    between atoms: P_21  and  O_23
REMARK    7  A    between atoms: P_21  and  O_25
REMARK                            x       y       z     vdW  Elec       q    Type
REMARK                         _______ _______ _______ _____ _____    ______ ____
ROOT
ATOM      1  O   UNL     1      34.935 -24.816 -15.767  0.00  0.00    -0.335 OA
ATOM      2  C   UNL     1      35.929 -22.805 -15.020  0.00  0.00    +0.061 C 
ATOM      3  C   UNL     1      35.428 -22.583 -16.440  0.00  0.00    +0.165 C 
ATOM      4  C   UNL     1      36.034 -24.328 -14.976  0.00  0.00    +0.150 C 
ATOM      5  C   UNL     1      34.495 -23.768 -16.647  0.00  0.00    +0.227 C 
ATOM      6  C   UNL     1      37.224 -22.096 -14.659  0.00  0.00    +0.005 C 
ENDROOT
BRANCH   5   9
ATOM      7  O   UNL     1      32.640 -22.494 -18.396  0.00  0.00    -0.252 OA
ATOM      8  O   UNL     1      29.297 -22.641 -15.241  0.00  0.00    -0.270 OA
ATOM      9  N   UNL     1      33.128 -23.455 -16.324  0.00  0.00    -0.217 N 
ATOM     10  N   UNL     1      30.981 -22.574 -16.813  0.00  0.00    -0.236 N 
ATOM     11  C   UNL     1      32.651 -23.789 -15.063  0.00  0.00    +0.071 C 
ATOM     12  C   UNL     1      32.284 -22.819 -17.260  0.00  0.00    +0.315 C 
ATOM     13  C   UNL     1      31.404 -23.553 -14.638  0.00  0.00    +0.047 C 
ATOM     14  C   UNL     1      30.454 -22.886 -15.569  0.00  0.00    +0.250 C 
ATOM     15  C   UNL     1      30.910 -23.921 -13.276  0.00  0.00    +0.037 C 
ATOM     16  H   UNL     1      30.374 -22.131 -17.449  0.00  0.00    +0.159 HD
ENDBRANCH   5   9
BRANCH   3  17
ATOM     17  O   UNL     1      36.483 -22.676 -17.392  0.00  0.00    -0.349 OA
ATOM     18  C   UNL     1      36.389 -21.653 -18.372  0.00  0.00    +0.174 C 
ENDBRANCH   3  17
BRANCH   4  19
ATOM     19  C   UNL     1      35.941 -24.914 -13.578  0.00  0.00    +0.183 C 
BRANCH  19  20
ATOM     20  O   UNL     1      35.679 -23.866 -12.660  0.00  0.00    -0.271 OA
BRANCH  20  21
ATOM     21  P   UNL     1      36.416 -23.901 -11.219  0.00  0.00    +0.473 P 
ATOM     22  O   UNL     1      35.535 -24.289 -10.066  0.00  0.00    -0.227 OA
BRANCH  21  23
ATOM     23  O   UNL     1      37.671 -24.886 -11.481  0.00  0.00    -0.303 OA
ATOM     24  H   UNL     1      38.259 -24.873 -10.710  0.00  0.00    +0.222 HD
ENDBRANCH  21  23
BRANCH  21  25
ATOM     25  O   UNL     1      37.105 -22.444 -11.103  0.00  0.00    -0.303 OA
ATOM     26  H   UNL     1      37.701 -22.307 -11.855  0.00  0.00    +0.222 HD
ENDBRANCH  21  25
ENDBRANCH  20  21
ENDBRANCH  19  20
ENDBRANCH   4  19
TORSDOF 7
ENDMDL
MODEL 3
REMARK VINA RESULT:      -8.2      8.107     10.759
REMARK  Name = 17754189
REMARK  7 active torsions:
REMARK  status: ('A' for Active; 'I' for Inactive)
REMARK    1  A    between atoms: C_3  and  O_17
REMARK    2  A    between atoms: C_4  and  C_19
REMARK    3  A    between atoms: C_5  and  N_9
REMARK    4  A    between atoms: C_19  and  O_20
REMARK    5  A    between atoms: O_20  and  P_21
REMARK    6  A    between atoms: P_21  and  O_23
REMARK    7  A    between atoms: P_21  and  O_25
REMARK                            x       y       z     vdW  Elec       q    Type
REMARK                         _______ _______ _______ _____ _____    ______ ____
ROOT
ATOM      1  O   UNL     1      34.750 -14.096 -21.967  0.00  0.00    -0.335 OA
ATOM      2  C   UNL     1      32.710 -15.198 -21.511  0.00  0.00    +0.061 C 
ATOM      3  C   UNL     1      32.417 -13.712 -21.667  0.00  0.00    +0.165 C 
ATOM      4  C   UNL     1      34.203 -15.176 -21.190  0.00  0.00    +0.150 C 
ATOM      5  C   UNL     1      33.689 -13.196 -22.326  0.00  0.00    +0.227 C 
ATOM      6  C   UNL     1      31.875 -15.928 -20.472  0.00  0.00    +0.005 C 
ENDROOT
BRANCH   5   9
ATOM      7  O   UNL     1      34.098 -10.895 -23.959  0.00  0.00    -0.252 OA
ATOM      8  O   UNL     1      33.267 -13.266 -27.811  0.00  0.00    -0.270 OA
ATOM      9  N   UNL     1      33.590 -13.166 -23.761  0.00  0.00    -0.217 N 
ATOM     10  N   UNL     1      33.681 -12.090 -25.872  0.00  0.00    -0.236 N 
ATOM     11  C   UNL     1      33.270 -14.342 -24.428  0.00  0.00    +0.071 C 
ATOM     12  C   UNL     1      33.811 -11.974 -24.484  0.00  0.00    +0.315 C 
ATOM     13  C   UNL     1      33.147 -14.450 -25.757  0.00  0.00    +0.047 C 
ATOM     14  C   UNL     1      33.365 -13.235 -26.587  0.00  0.00    +0.250 C 
ATOM     15  C   UNL     1      32.801 -15.725 -26.455  0.00  0.00    +0.037 C 
ATOM     16  H   UNL     1      33.830 -11.270 -26.397  0.00  0.00    +0.159 HD
ENDBRANCH   5   9
BRANCH   3  17
ATOM     17  O   UNL     1      32.277 -13.067 -20.404  0.00  0.00    -0.349 OA
ATOM     18  C   UNL     1      31.593 -11.829 -20.527  0.00  0.00    +0.174 C 
ENDBRANCH   3  17
BRANCH   4  19
ATOM     19  C   UNL     1      34.929 -16.462 -21.541  0.00  0.00    +0.183 C 
BRANCH  19  20
ATOM     20  O   UNL     1      34.345 -17.013 -22.710  0.00  0.00    -0.271 OA
BRANCH  20  21
ATOM     21  P   UNL     1      35.006 -18.345 -23.348  0.00  0.00    +0.473 P 
ATOM     22  O   UNL     1      34.737 -18.548 -24.811  0.00  0.00    -0.227 OA
BRANCH  21  23
ATOM     23  O   UNL     1      36.568 -18.195 -22.955  0.00  0.00    -0.303 OA
ATOM     24  H   UNL     1      36.794 -17.254 -22.882  0.00  0.00    +0.222 HD
ENDBRANCH  21  23
BRANCH  21  25
ATOM     25  O   UNL     1      34.491 -19.532 -22.378  0.00  0.00    -0.303 OA
ATOM     26  H   UNL     1      34.805 -20.385 -22.716  0.00  0.00    +0.222 HD
ENDBRANCH  21  25
ENDBRANCH  20  21
ENDBRANCH  19  20
ENDBRANCH   4  19
TORSDOF 7
ENDMDL
MODEL 4
REMARK VINA RESULT:      -7.9      3.056      6.548
REMARK  Name = 17754189
REMARK  7 active torsions:
REMARK  status: ('A' for Active; 'I' for Inactive)
REMARK    1  A    between atoms: C_3  and  O_17
REMARK    2  A    between atoms: C_4  and  C_19
REMARK    3  A    between atoms: C_5  and  N_9
REMARK    4  A    between atoms: C_19  and  O_20
REMARK    5  A    between atoms: O_20  and  P_21
REMARK    6  A    between atoms: P_21  and  O_23
REMARK    7  A    between atoms: P_21  and  O_25
REMARK                            x       y       z     vdW  Elec       q    Type
REMARK                         _______ _______ _______ _____ _____    ______ ____
ROOT
ATOM      1  O   UNL     1      35.064 -24.396 -16.195  0.00  0.00    -0.335 OA
ATOM      2  C   UNL     1      35.962 -22.213 -16.072  0.00  0.00    +0.061 C 
ATOM      3  C   UNL     1      35.196 -22.333 -17.382  0.00  0.00    +0.165 C 
ATOM      4  C   UNL     1      36.230 -23.681 -15.747  0.00  0.00    +0.150 C 
ATOM      5  C   UNL     1      34.369 -23.592 -17.163  0.00  0.00    +0.227 C 
ATOM      6  C   UNL     1      37.220 -21.362 -16.120  0.00  0.00    +0.005 C 
ENDROOT
BRANCH   5   9
ATOM      7  O   UNL     1      32.308 -22.223 -18.578  0.00  0.00    -0.252 OA
ATOM      8  O   UNL     1      29.399 -22.574 -15.033  0.00  0.00    -0.270 OA
ATOM      9  N   UNL     1      33.056 -23.304 -16.648  0.00  0.00    -0.217 N 
ATOM     10  N   UNL     1      30.867 -22.405 -16.803  0.00  0.00    -0.236 N 
ATOM     11  C   UNL     1      32.744 -23.716 -15.359  0.00  0.00    +0.071 C 
ATOM     12  C   UNL     1      32.101 -22.617 -17.428  0.00  0.00    +0.315 C 
ATOM     13  C   UNL     1      31.563 -23.511 -14.763  0.00  0.00    +0.047 C 
ATOM     14  C   UNL     1      30.504 -22.794 -15.522  0.00  0.00    +0.250 C 
ATOM     15  C   UNL     1      31.248 -23.962 -13.373  0.00  0.00    +0.037 C 
ATOM     16  H   UNL     1      30.185 -21.927 -17.327  0.00  0.00    +0.159 HD
ENDBRANCH   5   9
BRANCH   3  17
ATOM     17  O   UNL     1      36.069 -22.561 -18.484  0.00  0.00    -0.349 OA
ATOM     18  C   UNL     1      35.827 -21.640 -19.537  0.00  0.00    +0.174 C 
ENDBRANCH   3  17
BRANCH   4  19
ATOM     19  C   UNL     1      36.447 -23.957 -14.270  0.00  0.00    +0.183 C 
BRANCH  19  20
ATOM     20  O   UNL     1      37.562 -24.821 -14.125  0.00  0.00    -0.271 OA
BRANCH  20  21
ATOM     21  P   UNL     1      37.291 -26.376 -13.766  0.00  0.00    +0.473 P 
ATOM     22  O   UNL     1      37.125 -26.669 -12.303  0.00  0.00    -0.227 OA
BRANCH  21  23
ATOM     23  O   UNL     1      36.011 -26.739 -14.685  0.00  0.00    -0.303 OA
ATOM     24  H   UNL     1      35.709 -25.942 -15.148  0.00  0.00    +0.222 HD
ENDBRANCH  21  23
BRANCH  21  25
ATOM     25  O   UNL     1      38.506 -27.156 -14.495  0.00  0.00    -0.303 OA
ATOM     26  H   UNL     1      38.146 -27.822 -15.100  0.00  0.00    +0.222 HD
ENDBRANCH  21  25
ENDBRANCH  20  21
ENDBRANCH  19  20
ENDBRANCH   4  19
TORSDOF 7
ENDMDL
MODEL 5
REMARK VINA RESULT:      -7.8      3.776      7.344
REMARK  Name = 17754189
REMARK  7 active torsions:
REMARK  status: ('A' for Active; 'I' for Inactive)
REMARK    1  A    between atoms: C_3  and  O_17
REMARK    2  A    between atoms: C_4  and  C_19
REMARK    3  A    between atoms: C_5  and  N_9
REMARK    4  A    between atoms: C_19  and  O_20
REMARK    5  A    between atoms: O_20  and  P_21
REMARK    6  A    between atoms: P_21  and  O_23
REMARK    7  A    between atoms: P_21  and  O_25
REMARK                            x       y       z     vdW  Elec       q    Type
REMARK                         _______ _______ _______ _____ _____    ______ ____
ROOT
ATOM      1  O   UNL     1      35.843 -24.539 -15.822  0.00  0.00    -0.335 OA
ATOM      2  C   UNL     1      36.287 -22.229 -16.052  0.00  0.00    +0.061 C 
ATOM      3  C   UNL     1      35.095 -22.568 -16.935  0.00  0.00    +0.165 C 
ATOM      4  C   UNL     1      36.933 -23.602 -15.882  0.00  0.00    +0.150 C 
ATOM      5  C   UNL     1      34.678 -23.936 -16.410  0.00  0.00    +0.227 C 
ATOM      6  C   UNL     1      37.235 -21.175 -16.601  0.00  0.00    +0.005 C 
ENDROOT
BRANCH   5   9
ATOM      7  O   UNL     1      34.962 -24.783 -13.703  0.00  0.00    -0.252 OA
ATOM      8  O   UNL     1      30.658 -23.530 -12.677  0.00  0.00    -0.270 OA
ATOM      9  N   UNL     1      33.657 -23.849 -15.400  0.00  0.00    -0.217 N 
ATOM     10  N   UNL     1      32.814 -24.153 -13.205  0.00  0.00    -0.236 N 
ATOM     11  C   UNL     1      32.424 -23.314 -15.748  0.00  0.00    +0.071 C 
ATOM     12  C   UNL     1      33.894 -24.297 -14.083  0.00  0.00    +0.315 C 
ATOM     13  C   UNL     1      31.392 -23.178 -14.907  0.00  0.00    +0.047 C 
ATOM     14  C   UNL     1      31.565 -23.627 -13.499  0.00  0.00    +0.250 C 
ATOM     15  C   UNL     1      30.072 -22.598 -15.302  0.00  0.00    +0.037 C 
ATOM     16  H   UNL     1      32.955 -24.459 -12.280  0.00  0.00    +0.159 HD
ENDBRANCH   5   9
BRANCH   3  17
ATOM     17  O   UNL     1      35.473 -22.713 -18.301  0.00  0.00    -0.349 OA
ATOM     18  C   UNL     1      34.549 -22.071 -19.166  0.00  0.00    +0.174 C 
ENDBRANCH   3  17
BRANCH   4  19
ATOM     19  C   UNL     1      37.777 -23.737 -14.627  0.00  0.00    +0.183 C 
BRANCH  19  20
ATOM     20  O   UNL     1      39.083 -24.149 -14.995  0.00  0.00    -0.271 OA
BRANCH  20  21
ATOM     21  P   UNL     1      39.470 -25.712 -14.838  0.00  0.00    +0.473 P 
ATOM     22  O   UNL     1      39.940 -26.114 -13.469  0.00  0.00    -0.227 OA
BRANCH  21  23
ATOM     23  O   UNL     1      38.136 -26.467 -15.350  0.00  0.00    -0.303 OA
ATOM     24  H   UNL     1      37.576 -26.688 -14.589  0.00  0.00    +0.222 HD
ENDBRANCH  21  23
BRANCH  21  25
ATOM     25  O   UNL     1      40.526 -25.969 -16.035  0.00  0.00    -0.303 OA
ATOM     26  H   UNL     1      40.255 -26.749 -16.543  0.00  0.00    +0.222 HD
ENDBRANCH  21  25
ENDBRANCH  20  21
ENDBRANCH  19  20
ENDBRANCH   4  19
TORSDOF 7
ENDMDL
MODEL 6
REMARK VINA RESULT:      -7.6      2.444      3.469
REMARK  Name = 17754189
REMARK  7 active torsions:
REMARK  status: ('A' for Active; 'I' for Inactive)
REMARK    1  A    between atoms: C_3  and  O_17
REMARK    2  A    between atoms: C_4  and  C_19
REMARK    3  A    between atoms: C_5  and  N_9
REMARK    4  A    between atoms: C_19  and  O_20
REMARK    5  A    between atoms: O_20  and  P_21
REMARK    6  A    between atoms: P_21  and  O_23
REMARK    7  A    between atoms: P_21  and  O_25
REMARK                            x       y       z     vdW  Elec       q    Type
REMARK                         _______ _______ _______ _____ _____    ______ ____
ROOT
ATOM      1  O   UNL     1      34.471 -24.851 -14.754  0.00  0.00    -0.335 OA
ATOM      2  C   UNL     1      35.374 -23.759 -12.862  0.00  0.00    +0.061 C 
ATOM      3  C   UNL     1      36.521 -24.419 -13.615  0.00  0.00    +0.165 C 
ATOM      4  C   UNL     1      34.179 -24.560 -13.376  0.00  0.00    +0.150 C 
ATOM      5  C   UNL     1      35.888 -24.731 -14.965  0.00  0.00    +0.227 C 
ATOM      6  C   UNL     1      35.497 -23.754 -11.348  0.00  0.00    +0.005 C 
ENDROOT
BRANCH   5   9
ATOM      7  O   UNL     1      38.305 -23.250 -15.258  0.00  0.00    -0.252 OA
ATOM      8  O   UNL     1      36.571 -20.769 -18.720  0.00  0.00    -0.270 OA
ATOM      9  N   UNL     1      36.113 -23.689 -15.931  0.00  0.00    -0.217 N 
ATOM     10  N   UNL     1      37.428 -22.020 -16.984  0.00  0.00    -0.236 N 
ATOM     11  C   UNL     1      35.082 -23.359 -16.802  0.00  0.00    +0.071 C 
ATOM     12  C   UNL     1      37.348 -23.009 -15.998  0.00  0.00    +0.315 C 
ATOM     13  C   UNL     1      35.161 -22.410 -17.744  0.00  0.00    +0.047 C 
ATOM     14  C   UNL     1      36.433 -21.651 -17.877  0.00  0.00    +0.250 C 
ATOM     15  C   UNL     1      34.040 -22.070 -18.672  0.00  0.00    +0.037 C 
ATOM     16  H   UNL     1      38.281 -21.532 -17.049  0.00  0.00    +0.159 HD
ENDBRANCH   5   9
BRANCH   3  17
ATOM     17  O   UNL     1      36.909 -25.650 -13.012  0.00  0.00    -0.349 OA
ATOM     18  C   UNL     1      37.440 -26.553 -13.970  0.00  0.00    +0.174 C 
ENDBRANCH   3  17
BRANCH   4  19
ATOM     19  C   UNL     1      32.857 -23.818 -13.292  0.00  0.00    +0.183 C 
BRANCH  19  20
ATOM     20  O   UNL     1      32.089 -24.119 -14.444  0.00  0.00    -0.271 OA
BRANCH  20  21
ATOM     21  P   UNL     1      30.510 -24.422 -14.261  0.00  0.00    +0.473 P 
ATOM     22  O   UNL     1      29.594 -23.362 -14.799  0.00  0.00    -0.227 OA
BRANCH  21  23
ATOM     23  O   UNL     1      30.342 -25.880 -14.942  0.00  0.00    -0.303 OA
ATOM     24  H   UNL     1      30.600 -25.832 -15.875  0.00  0.00    +0.222 HD
ENDBRANCH  21  23
BRANCH  21  25
ATOM     25  O   UNL     1      30.358 -24.730 -12.681  0.00  0.00    -0.303 OA
ATOM     26  H   UNL     1      30.694 -25.620 -12.491  0.00  0.00    +0.222 HD
ENDBRANCH  21  25
ENDBRANCH  20  21
ENDBRANCH  19  20
ENDBRANCH   4  19
TORSDOF 7
ENDMDL
MODEL 7
REMARK VINA RESULT:      -7.4      3.496      6.056
REMARK  Name = 17754189
REMARK  7 active torsions:
REMARK  status: ('A' for Active; 'I' for Inactive)
REMARK    1  A    between atoms: C_3  and  O_17
REMARK    2  A    between atoms: C_4  and  C_19
REMARK    3  A    between atoms: C_5  and  N_9
REMARK    4  A    between atoms: C_19  and  O_20
REMARK    5  A    between atoms: O_20  and  P_21
REMARK    6  A    between atoms: P_21  and  O_23
REMARK    7  A    between atoms: P_21  and  O_25
REMARK                            x       y       z     vdW  Elec       q    Type
REMARK                         _______ _______ _______ _____ _____    ______ ____
ROOT
ATOM      1  O   UNL     1      35.557 -21.984 -15.150  0.00  0.00    -0.335 OA
ATOM      2  C   UNL     1      37.059 -23.793 -15.397  0.00  0.00    +0.061 C 
ATOM      3  C   UNL     1      36.664 -23.707 -13.929  0.00  0.00    +0.165 C 
ATOM      4  C   UNL     1      36.734 -22.380 -15.877  0.00  0.00    +0.150 C 
ATOM      5  C   UNL     1      35.441 -22.800 -13.973  0.00  0.00    +0.227 C 
ATOM      6  C   UNL     1      38.493 -24.213 -15.670  0.00  0.00    +0.005 C 
ENDROOT
BRANCH   5   9
ATOM      7  O   UNL     1      34.645 -24.882 -12.196  0.00  0.00    -0.252 OA
ATOM      8  O   UNL     1      30.691 -25.533 -14.452  0.00  0.00    -0.270 OA
ATOM      9  N   UNL     1      34.211 -23.541 -14.058  0.00  0.00    -0.217 N 
ATOM     10  N   UNL     1      32.676 -25.196 -13.330  0.00  0.00    -0.236 N 
ATOM     11  C   UNL     1      33.322 -23.236 -15.081  0.00  0.00    +0.071 C 
ATOM     12  C   UNL     1      33.905 -24.558 -13.128  0.00  0.00    +0.315 C 
ATOM     13  C   UNL     1      32.148 -23.849 -15.273  0.00  0.00    +0.047 C 
ATOM     14  C   UNL     1      31.755 -24.932 -14.332  0.00  0.00    +0.250 C 
ATOM     15  C   UNL     1      31.206 -23.505 -16.381  0.00  0.00    +0.037 C 
ATOM     16  H   UNL     1      32.442 -25.910 -12.694  0.00  0.00    +0.159 HD
ENDBRANCH   5   9
BRANCH   3  17
ATOM     17  O   UNL     1      37.667 -23.063 -13.150  0.00  0.00    -0.349 OA
ATOM     18  C   UNL     1      37.990 -23.818 -11.992  0.00  0.00    +0.174 C 
ENDBRANCH   3  17
BRANCH   4  19
ATOM     19  C   UNL     1      36.457 -22.282 -17.367  0.00  0.00    +0.183 C 
BRANCH  19  20
ATOM     20  O   UNL     1      35.105 -22.635 -17.605  0.00  0.00    -0.271 OA
BRANCH  20  21
ATOM     21  P   UNL     1      34.481 -22.349 -19.071  0.00  0.00    +0.473 P 
ATOM     22  O   UNL     1      35.343 -21.516 -19.975  0.00  0.00    -0.227 OA
BRANCH  21  23
ATOM     23  O   UNL     1      34.153 -23.835 -19.618  0.00  0.00    -0.303 OA
ATOM     24  H   UNL     1      34.668 -24.005 -20.422  0.00  0.00    +0.222 HD
ENDBRANCH  21  23
BRANCH  21  25
ATOM     25  O   UNL     1      33.018 -21.738 -18.754  0.00  0.00    -0.303 OA
ATOM     26  H   UNL     1      32.512 -22.370 -18.220  0.00  0.00    +0.222 HD
ENDBRANCH  21  25
ENDBRANCH  20  21
ENDBRANCH  19  20
ENDBRANCH   4  19
TORSDOF 7
ENDMDL
MODEL 8
REMARK VINA RESULT:      -7.3      3.261      5.945
REMARK  Name = 17754189
REMARK  7 active torsions:
REMARK  status: ('A' for Active; 'I' for Inactive)
REMARK    1  A    between atoms: C_3  and  O_17
REMARK    2  A    between atoms: C_4  and  C_19
REMARK    3  A    between atoms: C_5  and  N_9
REMARK    4  A    between atoms: C_19  and  O_20
REMARK    5  A    between atoms: O_20  and  P_21
REMARK    6  A    between atoms: P_21  and  O_23
REMARK    7  A    between atoms: P_21  and  O_25
REMARK                            x       y       z     vdW  Elec       q    Type
REMARK                         _______ _______ _______ _____ _____    ______ ____
ROOT
ATOM      1  O   UNL     1      34.228 -22.635 -14.708  0.00  0.00    -0.335 OA
ATOM      2  C   UNL     1      35.215 -24.731 -15.176  0.00  0.00    +0.061 C 
ATOM      3  C   UNL     1      34.565 -24.814 -13.802  0.00  0.00    +0.165 C 
ATOM      4  C   UNL     1      35.381 -23.221 -15.337  0.00  0.00    +0.150 C 
ATOM      5  C   UNL     1      33.662 -23.587 -13.793  0.00  0.00    +0.227 C 
ATOM      6  C   UNL     1      36.511 -25.507 -15.340  0.00  0.00    +0.005 C 
ENDROOT
BRANCH   5   9
ATOM      7  O   UNL     1      31.991 -25.619 -12.695  0.00  0.00    -0.252 OA
ATOM      8  O   UNL     1      28.560 -24.603 -15.584  0.00  0.00    -0.270 OA
ATOM      9  N   UNL     1      32.324 -23.889 -14.227  0.00  0.00    -0.217 N 
ATOM     10  N   UNL     1      30.288 -25.102 -14.142  0.00  0.00    -0.236 N 
ATOM     11  C   UNL     1      31.780 -23.143 -15.265  0.00  0.00    +0.071 C 
ATOM     12  C   UNL     1      31.573 -24.918 -13.620  0.00  0.00    +0.315 C 
ATOM     13  C   UNL     1      30.550 -23.321 -15.763  0.00  0.00    +0.047 C 
ATOM     14  C   UNL     1      29.697 -24.388 -15.173  0.00  0.00    +0.250 C 
ATOM     15  C   UNL     1      29.983 -22.507 -16.881  0.00  0.00    +0.037 C 
ATOM     16  H   UNL     1      29.746 -25.815 -13.734  0.00  0.00    +0.159 HD
ENDBRANCH   5   9
BRANCH   3  17
ATOM     17  O   UNL     1      35.522 -24.668 -12.756  0.00  0.00    -0.349 OA
ATOM     18  C   UNL     1      34.993 -23.926 -11.668  0.00  0.00    +0.174 C 
ENDBRANCH   3  17
BRANCH   4  19
ATOM     19  C   UNL     1      35.451 -22.759 -16.782  0.00  0.00    +0.183 C 
BRANCH  19  20
ATOM     20  O   UNL     1      34.326 -23.266 -17.480  0.00  0.00    -0.271 OA
BRANCH  20  21
ATOM     21  P   UNL     1      33.997 -22.670 -18.948  0.00  0.00    +0.473 P 
ATOM     22  O   UNL     1      32.734 -21.864 -19.036  0.00  0.00    -0.227 OA
BRANCH  21  23
ATOM     23  O   UNL     1      35.349 -21.866 -19.321  0.00  0.00    -0.303 OA
ATOM     24  H   UNL     1      36.063 -22.498 -19.499  0.00  0.00    +0.222 HD
ENDBRANCH  21  23
BRANCH  21  25
ATOM     25  O   UNL     1      34.058 -23.967 -19.912  0.00  0.00    -0.303 OA
ATOM     26  H   UNL     1      34.334 -23.696 -20.801  0.00  0.00    +0.222 HD
ENDBRANCH  21  25
ENDBRANCH  20  21
ENDBRANCH  19  20
ENDBRANCH   4  19
TORSDOF 7
ENDMDL
MODEL 9
REMARK VINA RESULT:      -7.2      2.993      5.821
REMARK  Name = 17754189
REMARK  7 active torsions:
REMARK  status: ('A' for Active; 'I' for Inactive)
REMARK    1  A    between atoms: C_3  and  O_17
REMARK    2  A    between atoms: C_4  and  C_19
REMARK    3  A    between atoms: C_5  and  N_9
REMARK    4  A    between atoms: C_19  and  O_20
REMARK    5  A    between atoms: O_20  and  P_21
REMARK    6  A    between atoms: P_21  and  O_23
REMARK    7  A    between atoms: P_21  and  O_25
REMARK                            x       y       z     vdW  Elec       q    Type
REMARK                         _______ _______ _______ _____ _____    ______ ____
ROOT
ATOM      1  O   UNL     1      33.658 -22.698 -14.994  0.00  0.00    -0.335 OA
ATOM      2  C   UNL     1      34.118 -23.724 -17.074  0.00  0.00    +0.061 C 
ATOM      3  C   UNL     1      35.370 -22.981 -16.629  0.00  0.00    +0.165 C 
ATOM      4  C   UNL     1      33.042 -23.011 -16.256  0.00  0.00    +0.150 C 
ATOM      5  C   UNL     1      35.086 -22.714 -15.156  0.00  0.00    +0.227 C 
ATOM      6  C   UNL     1      33.847 -23.722 -18.569  0.00  0.00    +0.005 C 
ENDROOT
BRANCH   5   9
ATOM      7  O   UNL     1      33.993 -23.502 -12.644  0.00  0.00    -0.252 OA
ATOM      8  O   UNL     1      37.283 -26.650 -12.003  0.00  0.00    -0.270 OA
ATOM      9  N   UNL     1      35.624 -23.736 -14.299  0.00  0.00    -0.217 N 
ATOM     10  N   UNL     1      35.640 -25.069 -12.337  0.00  0.00    -0.236 N 
ATOM     11  C   UNL     1      36.770 -24.408 -14.707  0.00  0.00    +0.071 C 
ATOM     12  C   UNL     1      35.010 -24.056 -13.069  0.00  0.00    +0.315 C 
ATOM     13  C   UNL     1      37.371 -25.376 -14.004  0.00  0.00    +0.047 C 
ATOM     14  C   UNL     1      36.781 -25.770 -12.696  0.00  0.00    +0.250 C 
ATOM     15  C   UNL     1      38.604 -26.086 -14.461  0.00  0.00    +0.037 C 
ATOM     16  H   UNL     1      35.230 -25.308 -11.475  0.00  0.00    +0.159 HD
ENDBRANCH   5   9
BRANCH   3  17
ATOM     17  O   UNL     1      35.502 -21.727 -17.290  0.00  0.00    -0.349 OA
ATOM     18  C   UNL     1      36.806 -21.557 -17.825  0.00  0.00    +0.174 C 
ENDBRANCH   3  17
BRANCH   4  19
ATOM     19  C   UNL     1      31.798 -23.847 -16.011  0.00  0.00    +0.183 C 
BRANCH  19  20
ATOM     20  O   UNL     1      31.215 -23.450 -14.781  0.00  0.00    -0.271 OA
BRANCH  20  21
ATOM     21  P   UNL     1      30.838 -24.595 -13.702  0.00  0.00    +0.473 P 
ATOM     22  O   UNL     1      30.462 -24.085 -12.341  0.00  0.00    -0.227 OA
BRANCH  21  23
ATOM     23  O   UNL     1      29.684 -25.437 -14.459  0.00  0.00    -0.303 OA
ATOM     24  H   UNL     1      29.238 -24.866 -15.104  0.00  0.00    +0.222 HD
ENDBRANCH  21  23
BRANCH  21  25
ATOM     25  O   UNL     1      32.110 -25.593 -13.739  0.00  0.00    -0.303 OA
ATOM     26  H   UNL     1      31.909 -26.354 -14.304  0.00  0.00    +0.222 HD
ENDBRANCH  21  25
ENDBRANCH  20  21
ENDBRANCH  19  20
ENDBRANCH   4  19
TORSDOF 7
ENDMDL
