MODEL 1
REMARK VINA RESULT:      -6.9      0.000      0.000
REMARK  Name = 17975425
REMARK  4 active torsions:
REMARK  status: ('A' for Active; 'I' for Inactive)
REMARK    1  A    between atoms: C_1  and  C_15
REMARK    2  A    between atoms: C_2  and  N_7
REMARK    3  A    between atoms: N_7  and  C_10
REMARK    4  A    between atoms: C_15  and  O_16
REMARK                            x       y       z     vdW  Elec       q    Type
REMARK                         _______ _______ _______ _____ _____    ______ ____
ROOT
ATOM      1  C   UNL     1      34.187 -21.413 -19.578  0.00  0.00    +0.007 C 
ATOM      2  C   UNL     1      35.050 -19.257 -21.124  0.00  0.00    +0.084 C 
ATOM      3  C   UNL     1      35.551 -21.194 -19.771  0.00  0.00    -0.000 C 
ATOM      4  C   UNL     1      33.254 -20.553 -20.158  0.00  0.00    -0.000 C 
ATOM      5  C   UNL     1      35.982 -20.116 -20.544  0.00  0.00    +0.019 C 
ATOM      6  C   UNL     1      33.685 -19.475 -20.932  0.00  0.00    +0.019 C 
ENDROOT
BRANCH   2   7
ATOM      7  N   UNL     1      35.483 -18.176 -21.899  0.00  0.00    -0.214 NA
BRANCH   7  10
ATOM      8  N   UNL     1      35.405 -17.066 -23.952  0.00  0.00    -0.370 N 
ATOM      9  N   UNL     1      34.972 -19.306 -23.965  0.00  0.00    -0.370 N 
ATOM     10  C   UNL     1      35.293 -18.209 -23.196  0.00  0.00    +0.193 C 
ATOM     11  H   UNL     1      35.631 -16.210 -23.521  0.00  0.00    +0.159 HD
ATOM     12  H   UNL     1      35.258 -17.103 -24.925  0.00  0.00    +0.159 HD
ATOM     13  H   UNL     1      34.862 -20.189 -23.542  0.00  0.00    +0.159 HD
ATOM     14  H   UNL     1      34.852 -19.208 -24.937  0.00  0.00    +0.159 HD
ENDBRANCH   7  10
ENDBRANCH   2   7
BRANCH   1  15
ATOM     15  C   UNL     1      33.724 -22.564 -18.753  0.00  0.00    +0.164 C 
BRANCH  15  16
ATOM     16  O   UNL     1      33.937 -23.774 -19.470  0.00  0.00    -0.377 OA
ATOM     17  H   UNL     1      33.190 -24.376 -19.318  0.00  0.00    +0.211 HD
ENDBRANCH  15  16
ENDBRANCH   1  15
TORSDOF 4
ENDMDL
MODEL 2
REMARK VINA RESULT:      -6.9      0.110      1.398
REMARK  Name = 17975425
REMARK  4 active torsions:
REMARK  status: ('A' for Active; 'I' for Inactive)
REMARK    1  A    between atoms: C_1  and  C_15
REMARK    2  A    between atoms: C_2  and  N_7
REMARK    3  A    between atoms: N_7  and  C_10
REMARK    4  A    between atoms: C_15  and  O_16
REMARK                            x       y       z     vdW  Elec       q    Type
REMARK                         _______ _______ _______ _____ _____    ______ ____
ROOT
ATOM      1  C   UNL     1      34.052 -21.356 -19.612  0.00  0.00    +0.007 C 
ATOM      2  C   UNL     1      35.022 -19.250 -21.163  0.00  0.00    +0.084 C 
ATOM      3  C   UNL     1      33.163 -20.451 -20.194  0.00  0.00    -0.000 C 
ATOM      4  C   UNL     1      35.425 -21.207 -19.806  0.00  0.00    -0.000 C 
ATOM      5  C   UNL     1      33.648 -19.399 -20.969  0.00  0.00    +0.019 C 
ATOM      6  C   UNL     1      35.910 -20.154 -20.581  0.00  0.00    +0.019 C 
ENDROOT
BRANCH   2   7
ATOM      7  N   UNL     1      35.507 -18.194 -21.942  0.00  0.00    -0.214 NA
BRANCH   7  10
ATOM      8  N   UNL     1      35.384 -17.058 -23.978  0.00  0.00    -0.370 N 
ATOM      9  N   UNL     1      34.982 -19.304 -24.015  0.00  0.00    -0.370 N 
ATOM     10  C   UNL     1      35.299 -18.213 -23.236  0.00  0.00    +0.193 C 
ATOM     11  H   UNL     1      35.605 -16.206 -23.539  0.00  0.00    +0.159 HD
ATOM     12  H   UNL     1      35.224 -17.085 -24.949  0.00  0.00    +0.159 HD
ATOM     13  H   UNL     1      34.890 -20.194 -23.603  0.00  0.00    +0.159 HD
ATOM     14  H   UNL     1      34.847 -19.195 -24.984  0.00  0.00    +0.159 HD
ENDBRANCH   7  10
ENDBRANCH   2   7
BRANCH   1  15
ATOM     15  C   UNL     1      33.535 -22.481 -18.782  0.00  0.00    +0.164 C 
BRANCH  15  16
ATOM     16  O   UNL     1      33.925 -23.718 -19.367  0.00  0.00    -0.377 OA
ATOM     17  H   UNL     1      34.066 -23.595 -20.319  0.00  0.00    +0.211 HD
ENDBRANCH  15  16
ENDBRANCH   1  15
TORSDOF 4
ENDMDL
MODEL 3
REMARK VINA RESULT:      -6.9      4.074      5.613
REMARK  Name = 17975425
REMARK  4 active torsions:
REMARK  status: ('A' for Active; 'I' for Inactive)
REMARK    1  A    between atoms: C_1  and  C_15
REMARK    2  A    between atoms: C_2  and  N_7
REMARK    3  A    between atoms: N_7  and  C_10
REMARK    4  A    between atoms: C_15  and  O_16
REMARK                            x       y       z     vdW  Elec       q    Type
REMARK                         _______ _______ _______ _____ _____    ______ ____
ROOT
ATOM      1  C   UNL     1      35.217 -19.731 -20.701  0.00  0.00    +0.007 C 
ATOM      2  C   UNL     1      34.211 -22.027 -19.476  0.00  0.00    +0.084 C 
ATOM      3  C   UNL     1      33.839 -19.946 -20.645  0.00  0.00    -0.000 C 
ATOM      4  C   UNL     1      36.091 -20.664 -20.144  0.00  0.00    -0.000 C 
ATOM      5  C   UNL     1      33.337 -21.093 -20.033  0.00  0.00    +0.019 C 
ATOM      6  C   UNL     1      35.589 -21.812 -19.532  0.00  0.00    +0.019 C 
ENDROOT
BRANCH   2   7
ATOM      7  N   UNL     1      33.707 -23.178 -18.862  0.00  0.00    -0.214 NA
BRANCH   7  10
ATOM      8  N   UNL     1      31.901 -22.865 -17.415  0.00  0.00    -0.370 N 
ATOM      9  N   UNL     1      33.949 -23.201 -16.464  0.00  0.00    -0.370 N 
ATOM     10  C   UNL     1      33.239 -23.091 -17.640  0.00  0.00    +0.193 C 
ATOM     11  H   UNL     1      31.284 -22.767 -18.174  0.00  0.00    +0.159 HD
ATOM     12  H   UNL     1      31.562 -22.800 -16.492  0.00  0.00    +0.159 HD
ATOM     13  H   UNL     1      34.920 -23.364 -16.488  0.00  0.00    +0.159 HD
ATOM     14  H   UNL     1      33.485 -23.117 -15.600  0.00  0.00    +0.159 HD
ENDBRANCH   7  10
ENDBRANCH   2   7
BRANCH   1  15
ATOM     15  C   UNL     1      35.755 -18.505 -21.355  0.00  0.00    +0.164 C 
BRANCH  15  16
ATOM     16  O   UNL     1      35.314 -17.356 -20.643  0.00  0.00    -0.377 OA
ATOM     17  H   UNL     1      35.089 -17.606 -19.732  0.00  0.00    +0.211 HD
ENDBRANCH  15  16
ENDBRANCH   1  15
TORSDOF 4
ENDMDL
MODEL 4
REMARK VINA RESULT:      -6.8      4.125      5.500
REMARK  Name = 17975425
REMARK  4 active torsions:
REMARK  status: ('A' for Active; 'I' for Inactive)
REMARK    1  A    between atoms: C_1  and  C_15
REMARK    2  A    between atoms: C_2  and  N_7
REMARK    3  A    between atoms: N_7  and  C_10
REMARK    4  A    between atoms: C_15  and  O_16
REMARK                            x       y       z     vdW  Elec       q    Type
REMARK                         _______ _______ _______ _____ _____    ______ ____
ROOT
ATOM      1  C   UNL     1      34.735 -19.777 -20.771  0.00  0.00    +0.007 C 
ATOM      2  C   UNL     1      34.087 -22.106 -19.378  0.00  0.00    +0.084 C 
ATOM      3  C   UNL     1      35.748 -20.618 -20.306  0.00  0.00    -0.000 C 
ATOM      4  C   UNL     1      33.399 -20.102 -20.539  0.00  0.00    -0.000 C 
ATOM      5  C   UNL     1      35.423 -21.781 -19.610  0.00  0.00    +0.019 C 
ATOM      6  C   UNL     1      33.074 -21.266 -19.842  0.00  0.00    +0.019 C 
ENDROOT
BRANCH   2   7
ATOM      7  N   UNL     1      33.762 -23.274 -18.680  0.00  0.00    -0.214 NA
BRANCH   7  10
ATOM      8  N   UNL     1      34.389 -23.218 -16.431  0.00  0.00    -0.370 N 
ATOM      9  N   UNL     1      32.160 -23.054 -16.894  0.00  0.00    -0.370 N 
ATOM     10  C   UNL     1      33.428 -23.184 -17.415  0.00  0.00    +0.193 C 
ATOM     11  H   UNL     1      35.338 -23.308 -16.673  0.00  0.00    +0.159 HD
ATOM     12  H   UNL     1      34.125 -23.151 -15.484  0.00  0.00    +0.159 HD
ATOM     13  H   UNL     1      31.381 -23.019 -17.495  0.00  0.00    +0.159 HD
ATOM     14  H   UNL     1      32.032 -22.997 -15.919  0.00  0.00    +0.159 HD
ENDBRANCH   7  10
ENDBRANCH   2   7
BRANCH   1  15
ATOM     15  C   UNL     1      35.080 -18.532 -21.515  0.00  0.00    +0.164 C 
BRANCH  15  16
ATOM     16  O   UNL     1      35.421 -17.508 -20.588  0.00  0.00    -0.377 OA
ATOM     17  H   UNL     1      34.667 -16.908 -20.477  0.00  0.00    +0.211 HD
ENDBRANCH  15  16
ENDBRANCH   1  15
TORSDOF 4
ENDMDL
MODEL 5
REMARK VINA RESULT:      -6.5      3.540      5.355
REMARK  Name = 17975425
REMARK  4 active torsions:
REMARK  status: ('A' for Active; 'I' for Inactive)
REMARK    1  A    between atoms: C_1  and  C_15
REMARK    2  A    between atoms: C_2  and  N_7
REMARK    3  A    between atoms: N_7  and  C_10
REMARK    4  A    between atoms: C_15  and  O_16
REMARK                            x       y       z     vdW  Elec       q    Type
REMARK                         _______ _______ _______ _____ _____    ______ ____
ROOT
ATOM      1  C   UNL     1      34.631 -17.165 -23.515  0.00  0.00    +0.007 C 
ATOM      2  C   UNL     1      34.920 -18.998 -21.432  0.00  0.00    +0.084 C 
ATOM      3  C   UNL     1      34.731 -18.529 -23.794  0.00  0.00    -0.000 C 
ATOM      4  C   UNL     1      34.677 -16.719 -22.195  0.00  0.00    -0.000 C 
ATOM      5  C   UNL     1      34.875 -19.444 -22.752  0.00  0.00    +0.019 C 
ATOM      6  C   UNL     1      34.821 -17.635 -21.153  0.00  0.00    +0.019 C 
ENDROOT
BRANCH   2   7
ATOM      7  N   UNL     1      35.064 -19.917 -20.387  0.00  0.00    -0.214 NA
BRANCH   7  10
ATOM      8  N   UNL     1      34.219 -21.905 -19.500  0.00  0.00    -0.370 N 
ATOM      9  N   UNL     1      32.702 -20.336 -20.168  0.00  0.00    -0.370 N 
ATOM     10  C   UNL     1      34.036 -20.656 -20.046  0.00  0.00    +0.193 C 
ATOM     11  H   UNL     1      35.128 -22.253 -19.360  0.00  0.00    +0.159 HD
ATOM     12  H   UNL     1      33.438 -22.451 -19.250  0.00  0.00    +0.159 HD
ATOM     13  H   UNL     1      32.435 -19.467 -20.547  0.00  0.00    +0.159 HD
ATOM     14  H   UNL     1      32.013 -20.977 -19.876  0.00  0.00    +0.159 HD
ENDBRANCH   7  10
ENDBRANCH   2   7
BRANCH   1  15
ATOM     15  C   UNL     1      34.478 -16.185 -24.627  0.00  0.00    +0.164 C 
BRANCH  15  16
ATOM     16  O   UNL     1      34.797 -16.817 -25.861  0.00  0.00    -0.377 OA
ATOM     17  H   UNL     1      34.582 -17.762 -25.806  0.00  0.00    +0.211 HD
ENDBRANCH  15  16
ENDBRANCH   1  15
TORSDOF 4
ENDMDL
MODEL 6
REMARK VINA RESULT:      -6.5      3.524      5.371
REMARK  Name = 17975425
REMARK  4 active torsions:
REMARK  status: ('A' for Active; 'I' for Inactive)
REMARK    1  A    between atoms: C_1  and  C_15
REMARK    2  A    between atoms: C_2  and  N_7
REMARK    3  A    between atoms: N_7  and  C_10
REMARK    4  A    between atoms: C_15  and  O_16
REMARK                            x       y       z     vdW  Elec       q    Type
REMARK                         _______ _______ _______ _____ _____    ______ ____
ROOT
ATOM      1  C   UNL     1      34.771 -17.148 -23.496  0.00  0.00    +0.007 C 
ATOM      2  C   UNL     1      34.967 -19.003 -21.422  0.00  0.00    +0.084 C 
ATOM      3  C   UNL     1      34.771 -16.714 -22.170  0.00  0.00    -0.000 C 
ATOM      4  C   UNL     1      34.870 -18.509 -23.784  0.00  0.00    -0.000 C 
ATOM      5  C   UNL     1      34.869 -17.641 -21.134  0.00  0.00    +0.019 C 
ATOM      6  C   UNL     1      34.968 -19.437 -22.747  0.00  0.00    +0.019 C 
ENDROOT
BRANCH   2   7
ATOM      7  N   UNL     1      35.067 -19.932 -20.381  0.00  0.00    -0.214 NA
BRANCH   7  10
ATOM      8  N   UNL     1      34.167 -21.876 -19.450  0.00  0.00    -0.370 N 
ATOM      9  N   UNL     1      32.697 -20.369 -20.332  0.00  0.00    -0.370 N 
ATOM     10  C   UNL     1      34.020 -20.664 -20.082  0.00  0.00    +0.193 C 
ATOM     11  H   UNL     1      35.065 -22.203 -19.216  0.00  0.00    +0.159 HD
ATOM     12  H   UNL     1      33.373 -22.416 -19.232  0.00  0.00    +0.159 HD
ATOM     13  H   UNL     1      32.456 -19.527 -20.782  0.00  0.00    +0.159 HD
ATOM     14  H   UNL     1      31.993 -21.001 -20.060  0.00  0.00    +0.159 HD
ENDBRANCH   7  10
ENDBRANCH   2   7
BRANCH   1  15
ATOM     15  C   UNL     1      34.665 -16.158 -24.606  0.00  0.00    +0.164 C 
BRANCH  15  16
ATOM     16  O   UNL     1      34.746 -16.837 -25.853  0.00  0.00    -0.377 OA
ATOM     17  H   UNL     1      34.223 -16.358 -26.517  0.00  0.00    +0.211 HD
ENDBRANCH  15  16
ENDBRANCH   1  15
TORSDOF 4
ENDMDL
MODEL 7
REMARK VINA RESULT:      -6.3      8.409      9.194
REMARK  Name = 17975425
REMARK  4 active torsions:
REMARK  status: ('A' for Active; 'I' for Inactive)
REMARK    1  A    between atoms: C_1  and  C_15
REMARK    2  A    between atoms: C_2  and  N_7
REMARK    3  A    between atoms: N_7  and  C_10
REMARK    4  A    between atoms: C_15  and  O_16
REMARK                            x       y       z     vdW  Elec       q    Type
REMARK                         _______ _______ _______ _____ _____    ______ ____
ROOT
ATOM      1  C   UNL     1      29.316 -23.574 -15.762  0.00  0.00    +0.007 C 
ATOM      2  C   UNL     1      31.401 -24.330 -14.070  0.00  0.00    +0.084 C 
ATOM      3  C   UNL     1      30.246 -22.626 -15.335  0.00  0.00    -0.000 C 
ATOM      4  C   UNL     1      29.429 -24.900 -15.343  0.00  0.00    -0.000 C 
ATOM      5  C   UNL     1      31.288 -23.004 -14.489  0.00  0.00    +0.019 C 
ATOM      6  C   UNL     1      30.472 -25.278 -14.497  0.00  0.00    +0.019 C 
ENDROOT
BRANCH   2   7
ATOM      7  N   UNL     1      32.448 -24.708 -13.222  0.00  0.00    -0.214 NA
BRANCH   7  10
ATOM      8  N   UNL     1      34.410 -23.507 -12.826  0.00  0.00    -0.370 N 
ATOM      9  N   UNL     1      34.394 -24.906 -14.629  0.00  0.00    -0.370 N 
ATOM     10  C   UNL     1      33.679 -24.409 -13.562  0.00  0.00    +0.193 C 
ATOM     11  H   UNL     1      34.012 -23.079 -12.035  0.00  0.00    +0.159 HD
ATOM     12  H   UNL     1      35.334 -23.290 -13.092  0.00  0.00    +0.159 HD
ATOM     13  H   UNL     1      33.982 -25.562 -15.237  0.00  0.00    +0.159 HD
ATOM     14  H   UNL     1      35.318 -24.604 -14.785  0.00  0.00    +0.159 HD
ENDBRANCH   7  10
ENDBRANCH   2   7
BRANCH   1  15
ATOM     15  C   UNL     1      28.200 -23.172 -16.665  0.00  0.00    +0.164 C 
BRANCH  15  16
ATOM     16  O   UNL     1      27.791 -24.293 -17.439  0.00  0.00    -0.377 OA
ATOM     17  H   UNL     1      28.414 -25.025 -17.303  0.00  0.00    +0.211 HD
ENDBRANCH  15  16
ENDBRANCH   1  15
TORSDOF 4
ENDMDL
MODEL 8
REMARK VINA RESULT:      -6.3      4.196      6.361
REMARK  Name = 17975425
REMARK  4 active torsions:
REMARK  status: ('A' for Active; 'I' for Inactive)
REMARK    1  A    between atoms: C_1  and  C_15
REMARK    2  A    between atoms: C_2  and  N_7
REMARK    3  A    between atoms: N_7  and  C_10
REMARK    4  A    between atoms: C_15  and  O_16
REMARK                            x       y       z     vdW  Elec       q    Type
REMARK                         _______ _______ _______ _____ _____    ______ ____
ROOT
ATOM      1  C   UNL     1      33.738 -15.243 -24.636  0.00  0.00    +0.007 C 
ATOM      2  C   UNL     1      35.155 -17.333 -23.450  0.00  0.00    +0.084 C 
ATOM      3  C   UNL     1      34.008 -16.404 -25.362  0.00  0.00    -0.000 C 
ATOM      4  C   UNL     1      34.177 -15.128 -23.317  0.00  0.00    -0.000 C 
ATOM      5  C   UNL     1      34.716 -17.448 -24.768  0.00  0.00    +0.019 C 
ATOM      6  C   UNL     1      34.885 -16.173 -22.723  0.00  0.00    +0.019 C 
ENDROOT
BRANCH   2   7
ATOM      7  N   UNL     1      35.865 -18.381 -22.855  0.00  0.00    -0.214 NA
BRANCH   7  10
ATOM      8  N   UNL     1      36.083 -18.890 -20.586  0.00  0.00    -0.370 N 
ATOM      9  N   UNL     1      34.191 -19.615 -21.637  0.00  0.00    -0.370 N 
ATOM     10  C   UNL     1      35.384 -18.938 -21.770  0.00  0.00    +0.193 C 
ATOM     11  H   UNL     1      36.954 -18.433 -20.547  0.00  0.00    +0.159 HD
ATOM     12  H   UNL     1      35.711 -19.313 -19.778  0.00  0.00    +0.159 HD
ATOM     13  H   UNL     1      33.595 -19.721 -22.414  0.00  0.00    +0.159 HD
ATOM     14  H   UNL     1      33.934 -19.993 -20.765  0.00  0.00    +0.159 HD
ENDBRANCH   7  10
ENDBRANCH   2   7
BRANCH   1  15
ATOM     15  C   UNL     1      32.982 -14.125 -25.269  0.00  0.00    +0.164 C 
BRANCH  15  16
ATOM     16  O   UNL     1      32.249 -14.622 -26.382  0.00  0.00    -0.377 OA
ATOM     17  H   UNL     1      31.511 -14.021 -26.577  0.00  0.00    +0.211 HD
ENDBRANCH  15  16
ENDBRANCH   1  15
TORSDOF 4
ENDMDL
MODEL 9
REMARK VINA RESULT:      -6.3      3.793      5.994
REMARK  Name = 17975425
REMARK  4 active torsions:
REMARK  status: ('A' for Active; 'I' for Inactive)
REMARK    1  A    between atoms: C_1  and  C_15
REMARK    2  A    between atoms: C_2  and  N_7
REMARK    3  A    between atoms: N_7  and  C_10
REMARK    4  A    between atoms: C_15  and  O_16
REMARK                            x       y       z     vdW  Elec       q    Type
REMARK                         _______ _______ _______ _____ _____    ______ ____
ROOT
ATOM      1  C   UNL     1      34.081 -16.030 -24.697  0.00  0.00    +0.007 C 
ATOM      2  C   UNL     1      35.395 -17.616 -22.815  0.00  0.00    +0.084 C 
ATOM      3  C   UNL     1      34.345 -15.527 -23.423  0.00  0.00    -0.000 C 
ATOM      4  C   UNL     1      34.474 -17.326 -25.029  0.00  0.00    -0.000 C 
ATOM      5  C   UNL     1      35.002 -16.319 -22.483  0.00  0.00    +0.019 C 
ATOM      6  C   UNL     1      35.131 -18.120 -24.089  0.00  0.00    +0.019 C 
ENDROOT
BRANCH   2   7
ATOM      7  N   UNL     1      36.054 -18.410 -21.871  0.00  0.00    -0.214 NA
BRANCH   7  10
ATOM      8  N   UNL     1      35.956 -20.023 -20.185  0.00  0.00    -0.370 N 
ATOM      9  N   UNL     1      33.971 -19.298 -21.046  0.00  0.00    -0.370 N 
ATOM     10  C   UNL     1      35.344 -19.189 -21.090  0.00  0.00    +0.193 C 
ATOM     11  H   UNL     1      36.938 -20.040 -20.117  0.00  0.00    +0.159 HD
ATOM     12  H   UNL     1      35.412 -20.604 -19.605  0.00  0.00    +0.159 HD
ATOM     13  H   UNL     1      33.413 -18.752 -21.647  0.00  0.00    +0.159 HD
ATOM     14  H   UNL     1      33.547 -19.922 -20.414  0.00  0.00    +0.159 HD
ENDBRANCH   7  10
ENDBRANCH   2   7
BRANCH   1  15
ATOM     15  C   UNL     1      33.378 -15.184 -25.703  0.00  0.00    +0.164 C 
BRANCH  15  16
ATOM     16  O   UNL     1      32.752 -16.021 -26.669  0.00  0.00    -0.377 OA
ATOM     17  H   UNL     1      31.819 -16.147 -26.432  0.00  0.00    +0.211 HD
ENDBRANCH  15  16
ENDBRANCH   1  15
TORSDOF 4
ENDMDL
