MODEL 1
REMARK VINA RESULT:     -11.4      0.000      0.000
REMARK  Name = 446346
REMARK  6 active torsions:
REMARK  status: ('A' for Active; 'I' for Inactive)
REMARK    1  A    between atoms: N_1  and  C_20
REMARK    2  A    between atoms: N_2  and  S_8
REMARK    3  A    between atoms: S_8  and  C_11
REMARK    4  A    between atoms: C_12  and  C_14
REMARK    5  A    between atoms: C_20  and  C_22
REMARK    6  A    between atoms: N_21  and  C_28
REMARK                            x       y       z     vdW  Elec       q    Type
REMARK                         _______ _______ _______ _____ _____    ______ ____
ROOT
ATOM      1  N   UNL     1      35.114 -18.885 -20.865  0.00  0.00    +0.389 N 
ATOM      2  N   UNL     1      34.252 -21.442 -19.871  0.00  0.00    -0.160 NA
ATOM      3  C   UNL     1      33.799 -19.434 -21.228  0.00  0.00    -0.058 C 
ATOM      4  C   UNL     1      36.077 -19.968 -20.629  0.00  0.00    -0.058 C 
ATOM      5  C   UNL     1      33.269 -20.350 -20.127  0.00  0.00    +0.073 C 
ATOM      6  C   UNL     1      35.592 -20.895 -19.515  0.00  0.00    +0.073 C 
ATOM      7  H   UNL     1      35.011 -18.351 -20.002  0.00  0.00    -0.080 HD
ENDROOT
BRANCH   2   8
ATOM      8  S   UNL     1      33.691 -22.721 -18.881  0.00  0.00    +0.064 S 
ATOM      9  O   UNL     1      33.862 -23.960 -19.620  0.00  0.00    -0.153 OA
ATOM     10  O   UNL     1      32.378 -22.353 -18.381  0.00  0.00    -0.153 OA
BRANCH   8  11
ATOM     11  C   UNL     1      34.791 -22.735 -17.544  0.00  0.00    +0.141 C 
ATOM     12  C   UNL     1      34.400 -23.383 -16.439  0.00  0.00    +0.021 C 
BRANCH  12  14
ATOM     13 CL   UNL     1      37.654 -23.888 -11.465  0.00  0.00    -0.082 Cl
ATOM     14  C   UNL     1      35.203 -23.509 -15.211  0.00  0.00    +0.001 C 
ATOM     15  C   UNL     1      34.571 -23.797 -14.012  0.00  0.00    +0.001 C 
ATOM     16  C   UNL     1      36.577 -23.334 -15.277  0.00  0.00    +0.001 C 
ATOM     17  C   UNL     1      35.332 -23.915 -12.849  0.00  0.00    +0.011 C 
ATOM     18  C   UNL     1      37.337 -23.452 -14.113  0.00  0.00    +0.011 C 
ATOM     19  C   UNL     1      36.715 -23.743 -12.899  0.00  0.00    +0.058 C 
ENDBRANCH  12  14
ENDBRANCH   8  11
ENDBRANCH   2   8
BRANCH   1  20
ATOM     20  C   UNL     1      35.600 -17.982 -21.908  0.00  0.00    -0.077 C 
BRANCH  20  22
ATOM     21  N   UNL     1      33.794 -14.152 -22.699  0.00  0.00    -0.307 N 
ATOM     22  C   UNL     1      34.572 -16.902 -22.236  0.00  0.00    -0.017 C 
ATOM     23  C   UNL     1      34.950 -16.165 -23.525  0.00  0.00    +0.019 C 
ATOM     24  C   UNL     1      34.452 -15.895 -21.089  0.00  0.00    +0.019 C 
ATOM     25  C   UNL     1      33.950 -15.055 -23.848  0.00  0.00    +0.091 C 
ATOM     26  C   UNL     1      33.457 -14.781 -21.418  0.00  0.00    +0.091 C 
BRANCH  21  28
ATOM     27  N   UNL     1      32.491 -10.215 -23.485  0.00  0.00    -0.242 NA
ATOM     28  C   UNL     1      33.362 -12.847 -22.960  0.00  0.00    +0.051 C 
ATOM     29  C   UNL     1      33.936 -12.086 -23.990  0.00  0.00    +0.035 C 
ATOM     30  C   UNL     1      32.340 -12.256 -22.199  0.00  0.00    +0.035 C 
ATOM     31  C   UNL     1      33.474 -10.798 -24.208  0.00  0.00    +0.100 C 
ATOM     32  C   UNL     1      31.949 -10.962 -22.497  0.00  0.00    +0.100 C 
ENDBRANCH  21  28
ENDBRANCH  20  22
ENDBRANCH   1  20
TORSDOF 6
ENDMDL
MODEL 2
REMARK VINA RESULT:     -11.0      3.150      5.474
REMARK  Name = 446346
REMARK  6 active torsions:
REMARK  status: ('A' for Active; 'I' for Inactive)
REMARK    1  A    between atoms: N_1  and  C_20
REMARK    2  A    between atoms: N_2  and  S_8
REMARK    3  A    between atoms: S_8  and  C_11
REMARK    4  A    between atoms: C_12  and  C_14
REMARK    5  A    between atoms: C_20  and  C_22
REMARK    6  A    between atoms: N_21  and  C_28
REMARK                            x       y       z     vdW  Elec       q    Type
REMARK                         _______ _______ _______ _____ _____    ______ ____
ROOT
ATOM      1  N   UNL     1      33.403 -14.566 -23.088  0.00  0.00    +0.389 N 
ATOM      2  N   UNL     1      34.471 -17.224 -22.835  0.00  0.00    -0.160 NA
ATOM      3  C   UNL     1      33.073 -15.407 -21.928  0.00  0.00    -0.058 C 
ATOM      4  C   UNL     1      33.651 -15.397 -24.274  0.00  0.00    -0.058 C 
ATOM      5  C   UNL     1      34.204 -16.389 -21.629  0.00  0.00    +0.073 C 
ATOM      6  C   UNL     1      34.793 -16.379 -24.021  0.00  0.00    +0.073 C 
ATOM      7  H   UNL     1      34.255 -14.046 -22.875  0.00  0.00    -0.080 HD
ENDROOT
BRANCH   2   8
ATOM      8  S   UNL     1      35.499 -18.570 -22.587  0.00  0.00    +0.064 S 
ATOM      9  O   UNL     1      36.820 -18.063 -22.258  0.00  0.00    -0.153 OA
ATOM     10  O   UNL     1      35.332 -19.471 -23.714  0.00  0.00    -0.153 OA
BRANCH   8  11
ATOM     11  C   UNL     1      34.854 -19.343 -21.179  0.00  0.00    +0.141 C 
ATOM     12  C   UNL     1      35.433 -20.486 -20.791  0.00  0.00    +0.021 C 
BRANCH  12  14
ATOM     13 CL   UNL     1      33.788 -23.689 -16.035  0.00  0.00    -0.082 Cl
ATOM     14  C   UNL     1      35.027 -21.277 -19.616  0.00  0.00    +0.001 C 
ATOM     15  C   UNL     1      35.973 -21.608 -18.660  0.00  0.00    +0.001 C 
ATOM     16  C   UNL     1      33.705 -21.675 -19.489  0.00  0.00    +0.001 C 
ATOM     17  C   UNL     1      35.588 -22.358 -17.548  0.00  0.00    +0.011 C 
ATOM     18  C   UNL     1      33.320 -22.424 -18.377  0.00  0.00    +0.011 C 
ATOM     19  C   UNL     1      34.263 -22.765 -17.406  0.00  0.00    +0.058 C 
ENDBRANCH  12  14
ENDBRANCH   8  11
ENDBRANCH   2   8
BRANCH   1  20
ATOM     20  C   UNL     1      32.332 -13.605 -23.348  0.00  0.00    -0.077 C 
BRANCH  20  22
ATOM     21  N   UNL     1      32.316  -9.347 -22.694  0.00  0.00    -0.307 N 
ATOM     22  C   UNL     1      32.689 -12.215 -22.826  0.00  0.00    -0.017 C 
ATOM     23  C   UNL     1      31.504 -11.592 -22.082  0.00  0.00    +0.019 C 
ATOM     24  C   UNL     1      33.114 -11.294 -23.973  0.00  0.00    +0.019 C 
ATOM     25  C   UNL     1      31.833 -10.184 -21.587  0.00  0.00    +0.091 C 
ATOM     26  C   UNL     1      33.435  -9.884 -23.475  0.00  0.00    +0.091 C 
BRANCH  21  28
ATOM     27  N   UNL     1      31.869  -5.168 -22.308  0.00  0.00    -0.242 NA
ATOM     28  C   UNL     1      32.168  -7.961 -22.566  0.00  0.00    +0.051 C 
ATOM     29  C   UNL     1      32.167  -7.125 -23.694  0.00  0.00    +0.035 C 
ATOM     30  C   UNL     1      32.015  -7.362 -21.306  0.00  0.00    +0.035 C 
ATOM     31  C   UNL     1      32.018  -5.761 -23.514  0.00  0.00    +0.100 C 
ATOM     32  C   UNL     1      31.872  -5.987 -21.232  0.00  0.00    +0.100 C 
ENDBRANCH  21  28
ENDBRANCH  20  22
ENDBRANCH   1  20
TORSDOF 6
ENDMDL
MODEL 3
REMARK VINA RESULT:     -11.0      1.441      1.769
REMARK  Name = 446346
REMARK  6 active torsions:
REMARK  status: ('A' for Active; 'I' for Inactive)
REMARK    1  A    between atoms: N_1  and  C_20
REMARK    2  A    between atoms: N_2  and  S_8
REMARK    3  A    between atoms: S_8  and  C_11
REMARK    4  A    between atoms: C_12  and  C_14
REMARK    5  A    between atoms: C_20  and  C_22
REMARK    6  A    between atoms: N_21  and  C_28
REMARK                            x       y       z     vdW  Elec       q    Type
REMARK                         _______ _______ _______ _____ _____    ______ ____
ROOT
ATOM      1  N   UNL     1      35.409 -19.410 -20.635  0.00  0.00    +0.389 N 
ATOM      2  N   UNL     1      34.266 -21.808 -19.534  0.00  0.00    -0.160 NA
ATOM      3  C   UNL     1      34.077 -19.872 -21.050  0.00  0.00    -0.058 C 
ATOM      4  C   UNL     1      36.258 -20.550 -20.262  0.00  0.00    -0.058 C 
ATOM      5  C   UNL     1      33.401 -20.659 -19.929  0.00  0.00    +0.073 C 
ATOM      6  C   UNL     1      35.625 -21.351 -19.125  0.00  0.00    +0.073 C 
ATOM      7  H   UNL     1      35.300 -18.809 -19.818  0.00  0.00    -0.080 HD
ENDROOT
BRANCH   2   8
ATOM      8  S   UNL     1      33.535 -22.962 -18.502  0.00  0.00    +0.064 S 
ATOM      9  O   UNL     1      33.732 -24.273 -19.095  0.00  0.00    -0.153 OA
ATOM     10  O   UNL     1      32.191 -22.500 -18.200  0.00  0.00    -0.153 OA
BRANCH   8  11
ATOM     11  C   UNL     1      34.470 -22.883 -17.048  0.00  0.00    +0.141 C 
ATOM     12  C   UNL     1      34.016 -23.569 -15.992  0.00  0.00    +0.021 C 
BRANCH  12  14
ATOM     13 CL   UNL     1      36.708 -23.800 -10.674  0.00  0.00    -0.082 Cl
ATOM     14  C   UNL     1      34.681 -23.627 -14.678  0.00  0.00    +0.001 C 
ATOM     15  C   UNL     1      33.996 -24.149 -13.593  0.00  0.00    +0.001 C 
ATOM     16  C   UNL     1      35.979 -23.157 -14.553  0.00  0.00    +0.001 C 
ATOM     17  C   UNL     1      34.626 -24.203 -12.349  0.00  0.00    +0.011 C 
ATOM     18  C   UNL     1      36.608 -23.211 -13.309  0.00  0.00    +0.011 C 
ATOM     19  C   UNL     1      35.931 -23.734 -12.208  0.00  0.00    +0.058 C 
ENDBRANCH  12  14
ENDBRANCH   8  11
ENDBRANCH   2   8
BRANCH   1  20
ATOM     20  C   UNL     1      36.037 -18.628 -21.699  0.00  0.00    -0.077 C 
BRANCH  20  22
ATOM     21  N   UNL     1      34.266 -15.531 -24.113  0.00  0.00    -0.307 N 
ATOM     22  C   UNL     1      35.013 -17.777 -22.446  0.00  0.00    -0.017 C 
ATOM     23  C   UNL     1      35.314 -17.755 -23.948  0.00  0.00    +0.019 C 
ATOM     24  C   UNL     1      34.998 -16.343 -21.907  0.00  0.00    +0.019 C 
ATOM     25  C   UNL     1      34.320 -16.875 -24.704  0.00  0.00    +0.091 C 
ATOM     26  C   UNL     1      34.007 -15.464 -22.671  0.00  0.00    +0.091 C 
BRANCH  21  28
ATOM     27  N   UNL     1      33.000 -12.365 -26.601  0.00  0.00    -0.242 NA
ATOM     28  C   UNL     1      33.846 -14.481 -24.938  0.00  0.00    +0.051 C 
ATOM     29  C   UNL     1      33.349 -14.727 -26.228  0.00  0.00    +0.035 C 
ATOM     30  C   UNL     1      33.909 -13.148 -24.503  0.00  0.00    +0.035 C 
ATOM     31  C   UNL     1      32.947 -13.654 -27.005  0.00  0.00    +0.100 C 
ATOM     32  C   UNL     1      33.482 -12.145 -25.356  0.00  0.00    +0.100 C 
ENDBRANCH  21  28
ENDBRANCH  20  22
ENDBRANCH   1  20
TORSDOF 6
ENDMDL
MODEL 4
REMARK VINA RESULT:     -10.9      4.573      7.316
REMARK  Name = 446346
REMARK  6 active torsions:
REMARK  status: ('A' for Active; 'I' for Inactive)
REMARK    1  A    between atoms: N_1  and  C_20
REMARK    2  A    between atoms: N_2  and  S_8
REMARK    3  A    between atoms: S_8  and  C_11
REMARK    4  A    between atoms: C_12  and  C_14
REMARK    5  A    between atoms: C_20  and  C_22
REMARK    6  A    between atoms: N_21  and  C_28
REMARK                            x       y       z     vdW  Elec       q    Type
REMARK                         _______ _______ _______ _____ _____    ______ ____
ROOT
ATOM      1  N   UNL     1      31.830 -12.940 -21.572  0.00  0.00    +0.389 N 
ATOM      2  N   UNL     1      33.681 -14.819 -22.717  0.00  0.00    -0.160 NA
ATOM      3  C   UNL     1      32.639 -12.585 -22.748  0.00  0.00    -0.058 C 
ATOM      4  C   UNL     1      32.543 -13.908 -20.728  0.00  0.00    -0.058 C 
ATOM      5  C   UNL     1      32.971 -13.826 -23.573  0.00  0.00    +0.073 C 
ATOM      6  C   UNL     1      32.875 -15.175 -21.515  0.00  0.00    +0.073 C 
ATOM      7  H   UNL     1      30.964 -13.372 -21.897  0.00  0.00    -0.080 HD
ENDROOT
BRANCH   2   8
ATOM      8  S   UNL     1      34.387 -16.139 -23.548  0.00  0.00    +0.064 S 
ATOM      9  O   UNL     1      35.830 -16.015 -23.431  0.00  0.00    -0.153 OA
ATOM     10  O   UNL     1      33.773 -16.216 -24.862  0.00  0.00    -0.153 OA
BRANCH   8  11
ATOM     11  C   UNL     1      33.891 -17.526 -22.640  0.00  0.00    +0.141 C 
ATOM     12  C   UNL     1      34.831 -18.153 -21.921  0.00  0.00    +0.021 C 
BRANCH  12  14
ATOM     13 CL   UNL     1      33.872 -22.960 -18.521  0.00  0.00    -0.082 Cl
ATOM     14  C   UNL     1      34.594 -19.341 -21.082  0.00  0.00    +0.001 C 
ATOM     15  C   UNL     1      33.294 -19.695 -20.757  0.00  0.00    +0.001 C 
ATOM     16  C   UNL     1      35.676 -20.082 -20.632  0.00  0.00    +0.001 C 
ATOM     17  C   UNL     1      33.070 -20.818 -19.961  0.00  0.00    +0.011 C 
ATOM     18  C   UNL     1      35.451 -21.206 -19.837  0.00  0.00    +0.011 C 
ATOM     19  C   UNL     1      34.148 -21.574 -19.502  0.00  0.00    +0.058 C 
ENDBRANCH  12  14
ENDBRANCH   8  11
ENDBRANCH   2   8
BRANCH   1  20
ATOM     20  C   UNL     1      31.485 -11.744 -20.805  0.00  0.00    -0.077 C 
BRANCH  20  22
ATOM     21  N   UNL     1      31.433  -7.743 -22.401  0.00  0.00    -0.307 N 
ATOM     22  C   UNL     1      31.890 -10.470 -21.543  0.00  0.00    -0.017 C 
ATOM     23  C   UNL     1      32.004  -9.291 -20.571  0.00  0.00    +0.019 C 
ATOM     24  C   UNL     1      30.878 -10.130 -22.642  0.00  0.00    +0.019 C 
ATOM     25  C   UNL     1      32.372  -8.000 -21.301  0.00  0.00    +0.091 C 
ATOM     26  C   UNL     1      31.245  -8.834 -23.364  0.00  0.00    +0.091 C 
BRANCH  21  28
ATOM     27  N   UNL     1      30.980  -3.745 -23.676  0.00  0.00    -0.242 NA
ATOM     28  C   UNL     1      31.282  -6.417 -22.824  0.00  0.00    +0.051 C 
ATOM     29  C   UNL     1      31.631  -6.029 -24.128  0.00  0.00    +0.035 C 
ATOM     30  C   UNL     1      30.778  -5.434 -21.959  0.00  0.00    +0.035 C 
ATOM     31  C   UNL     1      31.464  -4.705 -24.497  0.00  0.00    +0.100 C 
ATOM     32  C   UNL     1      30.649  -4.136 -22.425  0.00  0.00    +0.100 C 
ENDBRANCH  21  28
ENDBRANCH  20  22
ENDBRANCH   1  20
TORSDOF 6
ENDMDL
MODEL 5
REMARK VINA RESULT:     -10.9      6.621     13.024
REMARK  Name = 446346
REMARK  6 active torsions:
REMARK  status: ('A' for Active; 'I' for Inactive)
REMARK    1  A    between atoms: N_1  and  C_20
REMARK    2  A    between atoms: N_2  and  S_8
REMARK    3  A    between atoms: S_8  and  C_11
REMARK    4  A    between atoms: C_12  and  C_14
REMARK    5  A    between atoms: C_20  and  C_22
REMARK    6  A    between atoms: N_21  and  C_28
REMARK                            x       y       z     vdW  Elec       q    Type
REMARK                         _______ _______ _______ _____ _____    ______ ____
ROOT
ATOM      1  N   UNL     1      33.916 -14.356 -23.254  0.00  0.00    +0.389 N 
ATOM      2  N   UNL     1      32.165 -12.241 -22.400  0.00  0.00    -0.160 NA
ATOM      3  C   UNL     1      33.738 -13.145 -24.069  0.00  0.00    -0.058 C 
ATOM      4  C   UNL     1      32.696 -14.647 -22.490  0.00  0.00    -0.058 C 
ATOM      5  C   UNL     1      33.394 -11.944 -23.190  0.00  0.00    +0.073 C 
ATOM      6  C   UNL     1      32.330 -13.476 -21.581  0.00  0.00    +0.073 C 
ATOM      7  H   UNL     1      34.677 -14.190 -22.595  0.00  0.00    -0.080 HD
ENDROOT
BRANCH   2   8
ATOM      8  S   UNL     1      31.469 -10.904 -21.587  0.00  0.00    +0.064 S 
ATOM      9  O   UNL     1      32.386 -10.501 -20.534  0.00  0.00    -0.153 OA
ATOM     10  O   UNL     1      30.098 -11.249 -21.258  0.00  0.00    -0.153 OA
BRANCH   8  11
ATOM     11  C   UNL     1      31.438  -9.652 -22.782  0.00  0.00    +0.141 C 
ATOM     12  C   UNL     1      32.046  -8.499 -22.474  0.00  0.00    +0.021 C 
BRANCH  12  14
ATOM     13 CL   UNL     1      32.382  -3.759 -26.080  0.00  0.00    -0.082 Cl
ATOM     14  C   UNL     1      32.129  -7.329 -23.365  0.00  0.00    +0.001 C 
ATOM     15  C   UNL     1      33.297  -7.097 -24.074  0.00  0.00    +0.001 C 
ATOM     16  C   UNL     1      31.038  -6.482 -23.477  0.00  0.00    +0.001 C 
ATOM     17  C   UNL     1      33.376  -5.988 -24.916  0.00  0.00    +0.011 C 
ATOM     18  C   UNL     1      31.117  -5.373 -24.320  0.00  0.00    +0.011 C 
ATOM     19  C   UNL     1      32.286  -5.127 -25.040  0.00  0.00    +0.058 C 
ENDBRANCH  12  14
ENDBRANCH   8  11
ENDBRANCH   2   8
BRANCH   1  20
ATOM     20  C   UNL     1      34.280 -15.494 -24.097  0.00  0.00    -0.077 C 
BRANCH  20  22
ATOM     21  N   UNL     1      34.908 -18.869 -21.495  0.00  0.00    -0.307 N 
ATOM     22  C   UNL     1      34.959 -16.596 -23.287  0.00  0.00    -0.017 C 
ATOM     23  C   UNL     1      34.497 -17.979 -23.755  0.00  0.00    +0.019 C 
ATOM     24  C   UNL     1      34.662 -16.437 -21.793  0.00  0.00    +0.019 C 
ATOM     25  C   UNL     1      35.139 -19.092 -22.928  0.00  0.00    +0.091 C 
ATOM     26  C   UNL     1      35.299 -17.557 -20.969  0.00  0.00    +0.091 C 
BRANCH  21  28
ATOM     27  N   UNL     1      35.027 -22.241 -18.960  0.00  0.00    -0.242 NA
ATOM     28  C   UNL     1      34.948 -19.987 -20.654  0.00  0.00    +0.051 C 
ATOM     29  C   UNL     1      36.169 -20.512 -20.203  0.00  0.00    +0.035 C 
ATOM     30  C   UNL     1      33.767 -20.620 -20.235  0.00  0.00    +0.035 C 
ATOM     31  C   UNL     1      36.155 -21.620 -19.372  0.00  0.00    +0.100 C 
ATOM     32  C   UNL     1      33.860 -21.724 -19.403  0.00  0.00    +0.100 C 
ENDBRANCH  21  28
ENDBRANCH  20  22
ENDBRANCH   1  20
TORSDOF 6
ENDMDL
MODEL 6
REMARK VINA RESULT:     -10.9      4.604      7.680
REMARK  Name = 446346
REMARK  6 active torsions:
REMARK  status: ('A' for Active; 'I' for Inactive)
REMARK    1  A    between atoms: N_1  and  C_20
REMARK    2  A    between atoms: N_2  and  S_8
REMARK    3  A    between atoms: S_8  and  C_11
REMARK    4  A    between atoms: C_12  and  C_14
REMARK    5  A    between atoms: C_20  and  C_22
REMARK    6  A    between atoms: N_21  and  C_28
REMARK                            x       y       z     vdW  Elec       q    Type
REMARK                         _______ _______ _______ _____ _____    ______ ____
ROOT
ATOM      1  N   UNL     1      31.785 -12.338 -21.785  0.00  0.00    +0.389 N 
ATOM      2  N   UNL     1      33.591 -14.431 -22.576  0.00  0.00    -0.160 NA
ATOM      3  C   UNL     1      32.743 -12.137 -22.882  0.00  0.00    -0.058 C 
ATOM      4  C   UNL     1      32.322 -13.286 -20.800  0.00  0.00    -0.058 C 
ATOM      5  C   UNL     1      33.062 -13.460 -23.576  0.00  0.00    +0.073 C 
ATOM      6  C   UNL     1      32.632 -14.632 -21.452  0.00  0.00    +0.073 C 
ATOM      7  H   UNL     1      30.928 -12.730 -22.176  0.00  0.00    -0.080 HD
ENDROOT
BRANCH   2   8
ATOM      8  S   UNL     1      34.273 -15.860 -23.227  0.00  0.00    +0.064 S 
ATOM      9  O   UNL     1      35.716 -15.693 -23.245  0.00  0.00    -0.153 OA
ATOM     10  O   UNL     1      33.567 -16.170 -24.457  0.00  0.00    -0.153 OA
BRANCH   8  11
ATOM     11  C   UNL     1      33.888 -17.082 -22.063  0.00  0.00    +0.141 C 
ATOM     12  C   UNL     1      34.606 -18.212 -22.103  0.00  0.00    +0.021 C 
BRANCH  12  14
ATOM     13 CL   UNL     1      33.882 -22.836 -18.406  0.00  0.00    -0.082 Cl
ATOM     14  C   UNL     1      34.428 -19.353 -21.189  0.00  0.00    +0.001 C 
ATOM     15  C   UNL     1      35.543 -20.033 -20.725  0.00  0.00    +0.001 C 
ATOM     16  C   UNL     1      33.147 -19.728 -20.812  0.00  0.00    +0.001 C 
ATOM     17  C   UNL     1      35.373 -21.115 -19.861  0.00  0.00    +0.011 C 
ATOM     18  C   UNL     1      32.978 -20.809 -19.947  0.00  0.00    +0.011 C 
ATOM     19  C   UNL     1      34.092 -21.502 -19.472  0.00  0.00    +0.058 C 
ENDBRANCH  12  14
ENDBRANCH   8  11
ENDBRANCH   2   8
BRANCH   1  20
ATOM     20  C   UNL     1      31.458 -11.063 -21.148  0.00  0.00    -0.077 C 
BRANCH  20  22
ATOM     21  N   UNL     1      31.768  -7.158 -22.939  0.00  0.00    -0.307 N 
ATOM     22  C   UNL     1      31.958  -9.880 -21.973  0.00  0.00    -0.017 C 
ATOM     23  C   UNL     1      32.275  -8.683 -21.071  0.00  0.00    +0.019 C 
ATOM     24  C   UNL     1      30.922  -9.469 -23.023  0.00  0.00    +0.019 C 
ATOM     25  C   UNL     1      32.742  -7.478 -21.887  0.00  0.00    +0.091 C 
ATOM     26  C   UNL     1      31.389  -8.258 -23.832  0.00  0.00    +0.091 C 
BRANCH  21  28
ATOM     27  N   UNL     1      31.700  -3.193 -24.385  0.00  0.00    -0.242 NA
ATOM     28  C   UNL     1      31.746  -5.843 -23.418  0.00  0.00    +0.051 C 
ATOM     29  C   UNL     1      31.289  -4.786 -22.614  0.00  0.00    +0.035 C 
ATOM     30  C   UNL     1      32.178  -5.539 -24.719  0.00  0.00    +0.035 C 
ATOM     31  C   UNL     1      31.287  -3.503 -23.135  0.00  0.00    +0.100 C 
ATOM     32  C   UNL     1      32.136  -4.222 -25.146  0.00  0.00    +0.100 C 
ENDBRANCH  21  28
ENDBRANCH  20  22
ENDBRANCH   1  20
TORSDOF 6
ENDMDL
MODEL 7
REMARK VINA RESULT:     -10.9      4.381     11.555
REMARK  Name = 446346
REMARK  6 active torsions:
REMARK  status: ('A' for Active; 'I' for Inactive)
REMARK    1  A    between atoms: N_1  and  C_20
REMARK    2  A    between atoms: N_2  and  S_8
REMARK    3  A    between atoms: S_8  and  C_11
REMARK    4  A    between atoms: C_12  and  C_14
REMARK    5  A    between atoms: C_20  and  C_22
REMARK    6  A    between atoms: N_21  and  C_28
REMARK                            x       y       z     vdW  Elec       q    Type
REMARK                         _______ _______ _______ _____ _____    ______ ____
ROOT
ATOM      1  N   UNL     1      34.469 -21.229 -19.435  0.00  0.00    +0.389 N 
ATOM      2  N   UNL     1      34.785 -19.562 -21.756  0.00  0.00    -0.160 NA
ATOM      3  C   UNL     1      35.715 -21.246 -20.215  0.00  0.00    -0.058 C 
ATOM      4  C   UNL     1      33.324 -20.912 -20.299  0.00  0.00    -0.058 C 
ATOM      5  C   UNL     1      35.952 -19.897 -20.891  0.00  0.00    +0.073 C 
ATOM      6  C   UNL     1      33.514 -19.556 -20.978  0.00  0.00    +0.073 C 
ATOM      7  H   UNL     1      34.546 -20.503 -18.723  0.00  0.00    -0.080 HD
ENDROOT
BRANCH   2   8
ATOM      8  S   UNL     1      35.009 -18.233 -22.813  0.00  0.00    +0.064 S 
ATOM      9  O   UNL     1      34.338 -18.545 -24.063  0.00  0.00    -0.153 OA
ATOM     10  O   UNL     1      36.422 -17.900 -22.815  0.00  0.00    -0.153 OA
BRANCH   8  11
ATOM     11  C   UNL     1      34.151 -16.937 -22.051  0.00  0.00    +0.141 C 
ATOM     12  C   UNL     1      33.943 -15.832 -22.779  0.00  0.00    +0.021 C 
BRANCH  12  14
ATOM     13 CL   UNL     1      31.042 -10.989 -20.853  0.00  0.00    -0.082 Cl
ATOM     14  C   UNL     1      33.227 -14.636 -22.303  0.00  0.00    +0.001 C 
ATOM     15  C   UNL     1      32.916 -14.520 -20.957  0.00  0.00    +0.001 C 
ATOM     16  C   UNL     1      32.877 -13.648 -23.210  0.00  0.00    +0.001 C 
ATOM     17  C   UNL     1      32.237 -13.388 -20.507  0.00  0.00    +0.011 C 
ATOM     18  C   UNL     1      32.198 -12.516 -22.759  0.00  0.00    +0.011 C 
ATOM     19  C   UNL     1      31.879 -12.386 -21.408  0.00  0.00    +0.058 C 
ENDBRANCH  12  14
ENDBRANCH   8  11
ENDBRANCH   2   8
BRANCH   1  20
ATOM     20  C   UNL     1      34.266 -22.511 -18.763  0.00  0.00    -0.077 C 
BRANCH  20  22
ATOM     21  N   UNL     1      35.697 -23.397 -14.797  0.00  0.00    -0.307 N 
ATOM     22  C   UNL     1      34.552 -22.410 -17.266  0.00  0.00    -0.017 C 
ATOM     23  C   UNL     1      36.060 -22.358 -17.002  0.00  0.00    +0.019 C 
ATOM     24  C   UNL     1      33.942 -23.595 -16.512  0.00  0.00    +0.019 C 
ATOM     25  C   UNL     1      36.363 -22.295 -15.506  0.00  0.00    +0.091 C 
ATOM     26  C   UNL     1      34.253 -23.533 -15.017  0.00  0.00    +0.091 C 
BRANCH  21  28
ATOM     27  N   UNL     1      37.365 -24.634 -11.123  0.00  0.00    -0.242 NA
ATOM     28  C   UNL     1      36.250 -23.807 -13.579  0.00  0.00    +0.051 C 
ATOM     29  C   UNL     1      37.601 -24.176 -13.484  0.00  0.00    +0.035 C 
ATOM     30  C   UNL     1      35.472 -23.862 -12.412  0.00  0.00    +0.035 C 
ATOM     31  C   UNL     1      38.101 -24.575 -12.255  0.00  0.00    +0.100 C 
ATOM     32  C   UNL     1      36.066 -24.275 -11.231  0.00  0.00    +0.100 C 
ENDBRANCH  21  28
ENDBRANCH  20  22
ENDBRANCH   1  20
TORSDOF 6
ENDMDL
MODEL 8
REMARK VINA RESULT:     -10.7      7.753     14.529
REMARK  Name = 446346
REMARK  6 active torsions:
REMARK  status: ('A' for Active; 'I' for Inactive)
REMARK    1  A    between atoms: N_1  and  C_20
REMARK    2  A    between atoms: N_2  and  S_8
REMARK    3  A    between atoms: S_8  and  C_11
REMARK    4  A    between atoms: C_12  and  C_14
REMARK    5  A    between atoms: C_20  and  C_22
REMARK    6  A    between atoms: N_21  and  C_28
REMARK                            x       y       z     vdW  Elec       q    Type
REMARK                         _______ _______ _______ _____ _____    ______ ____
ROOT
ATOM      1  N   UNL     1      33.354 -12.356 -23.406  0.00  0.00    +0.389 N 
ATOM      2  N   UNL     1      32.674  -9.571 -23.190  0.00  0.00    -0.160 NA
ATOM      3  C   UNL     1      33.811 -11.386 -24.412  0.00  0.00    -0.058 C 
ATOM      4  C   UNL     1      32.072 -11.934 -22.827  0.00  0.00    -0.058 C 
ATOM      5  C   UNL     1      33.968  -9.998 -23.795  0.00  0.00    +0.073 C 
ATOM      6  C   UNL     1      32.195 -10.556 -22.179  0.00  0.00    +0.073 C 
ATOM      7  H   UNL     1      34.048 -12.395 -22.659  0.00  0.00    -0.080 HD
ENDROOT
BRANCH   2   8
ATOM      8  S   UNL     1      32.587  -7.927 -22.718  0.00  0.00    +0.064 S 
ATOM      9  O   UNL     1      33.368  -7.775 -21.502  0.00  0.00    -0.153 OA
ATOM     10  O   UNL     1      31.189  -7.534 -22.733  0.00  0.00    -0.153 OA
BRANCH   8  11
ATOM     11  C   UNL     1      33.400  -7.078 -23.988  0.00  0.00    +0.141 C 
ATOM     12  C   UNL     1      32.696  -6.151 -24.650  0.00  0.00    +0.021 C 
BRANCH  12  14
ATOM     13 CL   UNL     1      34.822  -2.802 -29.105  0.00  0.00    -0.082 Cl
ATOM     14  C   UNL     1      33.221  -5.324 -25.751  0.00  0.00    +0.001 C 
ATOM     15  C   UNL     1      34.503  -5.555 -26.222  0.00  0.00    +0.001 C 
ATOM     16  C   UNL     1      32.422  -4.330 -26.295  0.00  0.00    +0.001 C 
ATOM     17  C   UNL     1      35.001  -4.771 -27.263  0.00  0.00    +0.011 C 
ATOM     18  C   UNL     1      32.920  -3.547 -27.336  0.00  0.00    +0.011 C 
ATOM     19  C   UNL     1      34.209  -3.768 -27.821  0.00  0.00    +0.058 C 
ENDBRANCH  12  14
ENDBRANCH   8  11
ENDBRANCH   2   8
BRANCH   1  20
ATOM     20  C   UNL     1      33.238 -13.690 -23.994  0.00  0.00    -0.077 C 
BRANCH  20  22
ATOM     21  N   UNL     1      34.654 -17.210 -21.955  0.00  0.00    -0.307 N 
ATOM     22  C   UNL     1      34.151 -14.692 -23.292  0.00  0.00    -0.017 C 
ATOM     23  C   UNL     1      34.201 -16.016 -24.062  0.00  0.00    +0.019 C 
ATOM     24  C   UNL     1      33.677 -14.952 -21.859  0.00  0.00    +0.019 C 
ATOM     25  C   UNL     1      35.081 -17.043 -23.351  0.00  0.00    +0.091 C 
ATOM     26  C   UNL     1      34.555 -15.986 -21.154  0.00  0.00    +0.091 C 
BRANCH  21  28
ATOM     27  N   UNL     1      35.596 -20.863 -20.061  0.00  0.00    -0.242 NA
ATOM     28  C   UNL     1      34.966 -18.422 -21.327  0.00  0.00    +0.051 C 
ATOM     29  C   UNL     1      36.299 -18.779 -21.064  0.00  0.00    +0.035 C 
ATOM     30  C   UNL     1      33.958 -19.318 -20.940  0.00  0.00    +0.035 C 
ATOM     31  C   UNL     1      36.555 -19.989 -20.440  0.00  0.00    +0.100 C 
ATOM     32  C   UNL     1      34.319 -20.503 -20.322  0.00  0.00    +0.100 C 
ENDBRANCH  21  28
ENDBRANCH  20  22
ENDBRANCH   1  20
TORSDOF 6
ENDMDL
MODEL 9
REMARK VINA RESULT:     -10.3      5.153     11.474
REMARK  Name = 446346
REMARK  6 active torsions:
REMARK  status: ('A' for Active; 'I' for Inactive)
REMARK    1  A    between atoms: N_1  and  C_20
REMARK    2  A    between atoms: N_2  and  S_8
REMARK    3  A    between atoms: S_8  and  C_11
REMARK    4  A    between atoms: C_12  and  C_14
REMARK    5  A    between atoms: C_20  and  C_22
REMARK    6  A    between atoms: N_21  and  C_28
REMARK                            x       y       z     vdW  Elec       q    Type
REMARK                         _______ _______ _______ _____ _____    ______ ____
ROOT
ATOM      1  N   UNL     1      35.044 -18.022 -22.748  0.00  0.00    +0.389 N 
ATOM      2  N   UNL     1      34.273 -16.162 -24.800  0.00  0.00    -0.160 NA
ATOM      3  C   UNL     1      35.058 -16.573 -22.500  0.00  0.00    -0.058 C 
ATOM      4  C   UNL     1      35.313 -18.305 -24.164  0.00  0.00    -0.058 C 
ATOM      5  C   UNL     1      34.016 -15.864 -23.362  0.00  0.00    +0.073 C 
ATOM      6  C   UNL     1      34.276 -17.630 -25.060  0.00  0.00    +0.073 C 
ATOM      7  H   UNL     1      34.116 -18.378 -22.518  0.00  0.00    -0.080 HD
ENDROOT
BRANCH   2   8
ATOM      8  S   UNL     1      33.387 -15.217 -25.920  0.00  0.00    +0.064 S 
ATOM      9  O   UNL     1      32.292 -16.033 -26.417  0.00  0.00    -0.153 OA
ATOM     10  O   UNL     1      34.332 -14.630 -26.853  0.00  0.00    -0.153 OA
BRANCH   8  11
ATOM     11  C   UNL     1      32.715 -13.942 -24.960  0.00  0.00    +0.141 C 
ATOM     12  C   UNL     1      33.531 -12.933 -24.630  0.00  0.00    +0.021 C 
BRANCH  12  14
ATOM     13 CL   UNL     1      31.927  -8.186 -21.393  0.00  0.00    -0.082 Cl
ATOM     14  C   UNL     1      33.135 -11.761 -23.830  0.00  0.00    +0.001 C 
ATOM     15  C   UNL     1      32.257 -11.927 -22.771  0.00  0.00    +0.001 C 
ATOM     16  C   UNL     1      33.647 -10.514 -24.153  0.00  0.00    +0.001 C 
ATOM     17  C   UNL     1      31.881 -10.816 -22.014  0.00  0.00    +0.011 C 
ATOM     18  C   UNL     1      33.272  -9.404 -23.395  0.00  0.00    +0.011 C 
ATOM     19  C   UNL     1      32.389  -9.556 -22.326  0.00  0.00    +0.058 C 
ENDBRANCH  12  14
ENDBRANCH   8  11
ENDBRANCH   2   8
BRANCH   1  20
ATOM     20  C   UNL     1      36.019 -18.699 -21.894  0.00  0.00    -0.077 C 
BRANCH  20  22
ATOM     21  N   UNL     1      34.470 -21.514 -19.025  0.00  0.00    -0.307 N 
ATOM     22  C   UNL     1      35.436 -19.965 -21.272  0.00  0.00    -0.017 C 
ATOM     23  C   UNL     1      34.080 -19.676 -20.619  0.00  0.00    +0.019 C 
ATOM     24  C   UNL     1      36.391 -20.551 -20.228  0.00  0.00    +0.019 C 
ATOM     25  C   UNL     1      33.500 -20.927 -19.960  0.00  0.00    +0.091 C 
ATOM     26  C   UNL     1      35.804 -21.798 -19.565  0.00  0.00    +0.091 C 
BRANCH  21  28
ATOM     27  N   UNL     1      32.950 -23.893 -15.887  0.00  0.00    -0.242 NA
ATOM     28  C   UNL     1      33.966 -22.303 -17.984  0.00  0.00    +0.051 C 
ATOM     29  C   UNL     1      32.588 -22.537 -17.855  0.00  0.00    +0.035 C 
ATOM     30  C   UNL     1      34.822 -22.886 -17.037  0.00  0.00    +0.035 C 
ATOM     31  C   UNL     1      32.139 -23.324 -16.808  0.00  0.00    +0.100 C 
ATOM     32  C   UNL     1      34.274 -23.658 -16.026  0.00  0.00    +0.100 C 
ENDBRANCH  21  28
ENDBRANCH  20  22
ENDBRANCH   1  20
TORSDOF 6
ENDMDL
