MODEL 1
REMARK VINA RESULT:      -6.4      0.000      0.000
REMARK  Name = 2094
REMARK  0 active torsions:
REMARK  status: ('A' for Active; 'I' for Inactive)
REMARK                            x       y       z     vdW  Elec       q    Type
REMARK                         _______ _______ _______ _____ _____    ______ ____
ROOT
ATOM      1  O   UNL     1      32.353 -20.324 -20.863  0.00  0.00    -0.222 OA
ATOM      2  N   UNL     1      36.809 -20.673 -19.486  0.00  0.00    -0.250 N 
ATOM      3  N   UNL     1      36.651 -19.669 -20.363  0.00  0.00    -0.262 N 
ATOM      4  N   UNL     1      35.201 -22.288 -18.644  0.00  0.00    -0.227 NA
ATOM      5  N   UNL     1      32.924 -22.032 -19.411  0.00  0.00    -0.175 NA
ATOM      6  C   UNL     1      34.586 -20.532 -20.177  0.00  0.00    +0.131 C 
ATOM      7  C   UNL     1      35.575 -21.269 -19.341  0.00  0.00    +0.154 C 
ATOM      8  C   UNL     1      35.334 -19.575 -20.746  0.00  0.00    +0.090 C 
ATOM      9  C   UNL     1      33.184 -20.929 -20.199  0.00  0.00    +0.156 C 
ATOM     10  C   UNL     1      33.862 -22.622 -18.722  0.00  0.00    +0.264 C 
ATOM     11  H   UNL     1      37.645 -20.933 -19.033  0.00  0.00    +0.171 HD
ATOM     12  H   UNL     1      37.374 -19.084 -20.687  0.00  0.00    +0.170 HD
ENDROOT
TORSDOF 0
ENDMDL
MODEL 2
REMARK VINA RESULT:      -6.3      9.124      9.405
REMARK  Name = 2094
REMARK  0 active torsions:
REMARK  status: ('A' for Active; 'I' for Inactive)
REMARK                            x       y       z     vdW  Elec       q    Type
REMARK                         _______ _______ _______ _____ _____    ______ ____
ROOT
ATOM      1  O   UNL     1      39.095 -22.793 -11.669  0.00  0.00    -0.222 OA
ATOM      2  N   UNL     1      37.114 -26.722 -13.254  0.00  0.00    -0.250 N 
ATOM      3  N   UNL     1      38.306 -26.514 -13.834  0.00  0.00    -0.262 N 
ATOM      4  N   UNL     1      35.886 -25.362 -11.658  0.00  0.00    -0.227 NA
ATOM      5  N   UNL     1      36.987 -23.349 -10.897  0.00  0.00    -0.175 NA
ATOM      6  C   UNL     1      38.073 -24.747 -12.467  0.00  0.00    +0.131 C 
ATOM      7  C   UNL     1      36.891 -25.653 -12.413  0.00  0.00    +0.154 C 
ATOM      8  C   UNL     1      38.878 -25.362 -13.346  0.00  0.00    +0.090 C 
ATOM      9  C   UNL     1      38.125 -23.540 -11.654  0.00  0.00    +0.156 C 
ATOM     10  C   UNL     1      35.993 -24.195 -10.925  0.00  0.00    +0.264 C 
ATOM     11  H   UNL     1      36.514 -27.490 -13.401  0.00  0.00    +0.171 HD
ATOM     12  H   UNL     1      38.714 -27.101 -14.511  0.00  0.00    +0.170 HD
ENDROOT
TORSDOF 0
ENDMDL
MODEL 3
REMARK VINA RESULT:      -6.3      2.163      2.852
REMARK  Name = 2094
REMARK  0 active torsions:
REMARK  status: ('A' for Active; 'I' for Inactive)
REMARK                            x       y       z     vdW  Elec       q    Type
REMARK                         _______ _______ _______ _____ _____    ______ ____
ROOT
ATOM      1  O   UNL     1      36.826 -21.602 -19.021  0.00  0.00    -0.222 OA
ATOM      2  N   UNL     1      32.620 -20.361 -20.649  0.00  0.00    -0.250 N 
ATOM      3  N   UNL     1      33.593 -19.631 -21.216  0.00  0.00    -0.262 N 
ATOM      4  N   UNL     1      32.743 -22.071 -18.927  0.00  0.00    -0.227 NA
ATOM      5  N   UNL     1      34.956 -22.646 -18.145  0.00  0.00    -0.175 NA
ATOM      6  C   UNL     1      34.705 -20.980 -19.806  0.00  0.00    +0.131 C 
ATOM      7  C   UNL     1      33.233 -21.201 -19.744  0.00  0.00    +0.154 C 
ATOM      8  C   UNL     1      34.821 -20.019 -20.735  0.00  0.00    +0.090 C 
ATOM      9  C   UNL     1      35.612 -21.755 -18.971  0.00  0.00    +0.156 C 
ATOM     10  C   UNL     1      33.656 -22.760 -18.152  0.00  0.00    +0.264 C 
ATOM     11  H   UNL     1      31.655 -20.306 -20.841  0.00  0.00    +0.171 HD
ATOM     12  H   UNL     1      33.449 -18.920 -21.882  0.00  0.00    +0.170 HD
ENDROOT
TORSDOF 0
ENDMDL
MODEL 4
REMARK VINA RESULT:      -6.2      6.245      7.322
REMARK  Name = 2094
REMARK  0 active torsions:
REMARK  status: ('A' for Active; 'I' for Inactive)
REMARK                            x       y       z     vdW  Elec       q    Type
REMARK                         _______ _______ _______ _____ _____    ______ ____
ROOT
ATOM      1  O   UNL     1      32.889 -15.670 -26.596  0.00  0.00    -0.222 OA
ATOM      2  N   UNL     1      35.673 -16.990 -23.077  0.00  0.00    -0.250 N 
ATOM      3  N   UNL     1      35.503 -17.987 -23.960  0.00  0.00    -0.262 N 
ATOM      4  N   UNL     1      34.709 -14.760 -23.025  0.00  0.00    -0.227 NA
ATOM      5  N   UNL     1      33.281 -14.167 -24.882  0.00  0.00    -0.175 NA
ATOM      6  C   UNL     1      34.263 -16.318 -24.810  0.00  0.00    +0.131 C 
ATOM      7  C   UNL     1      34.913 -15.932 -23.526  0.00  0.00    +0.154 C 
ATOM      8  C   UNL     1      34.693 -17.576 -24.992  0.00  0.00    +0.090 C 
ATOM      9  C   UNL     1      33.415 -15.378 -25.530  0.00  0.00    +0.156 C 
ATOM     10  C   UNL     1      33.881 -13.924 -23.749  0.00  0.00    +0.264 C 
ATOM     11  H   UNL     1      36.232 -17.011 -22.266  0.00  0.00    +0.171 HD
ATOM     12  H   UNL     1      35.901 -18.884 -23.880  0.00  0.00    +0.170 HD
ENDROOT
TORSDOF 0
ENDMDL
MODEL 5
REMARK VINA RESULT:      -6.2      1.509      2.255
REMARK  Name = 2094
REMARK  0 active torsions:
REMARK  status: ('A' for Active; 'I' for Inactive)
REMARK                            x       y       z     vdW  Elec       q    Type
REMARK                         _______ _______ _______ _____ _____    ______ ____
ROOT
ATOM      1  O   UNL     1      32.873 -22.287 -19.148  0.00  0.00    -0.222 OA
ATOM      2  N   UNL     1      35.416 -18.965 -21.240  0.00  0.00    -0.250 N 
ATOM      3  N   UNL     1      34.129 -18.897 -21.615  0.00  0.00    -0.262 N 
ATOM      4  N   UNL     1      36.543 -20.547 -19.780  0.00  0.00    -0.227 NA
ATOM      5  N   UNL     1      35.151 -22.229 -18.746  0.00  0.00    -0.175 NA
ATOM      6  C   UNL     1      34.172 -20.644 -20.204  0.00  0.00    +0.131 C 
ATOM      7  C   UNL     1      35.522 -20.041 -20.385  0.00  0.00    +0.154 C 
ATOM      8  C   UNL     1      33.396 -19.872 -20.980  0.00  0.00    +0.090 C 
ATOM      9  C   UNL     1      33.978 -21.790 -19.326  0.00  0.00    +0.156 C 
ATOM     10  C   UNL     1      36.293 -21.643 -18.976  0.00  0.00    +0.264 C 
ATOM     11  H   UNL     1      36.144 -18.363 -21.521  0.00  0.00    +0.171 HD
ATOM     12  H   UNL     1      33.762 -18.243 -22.252  0.00  0.00    +0.170 HD
ENDROOT
TORSDOF 0
ENDMDL
MODEL 6
REMARK VINA RESULT:      -6.2      7.235      8.447
REMARK  Name = 2094
REMARK  0 active torsions:
REMARK  status: ('A' for Active; 'I' for Inactive)
REMARK                            x       y       z     vdW  Elec       q    Type
REMARK                         _______ _______ _______ _____ _____    ______ ____
ROOT
ATOM      1  O   UNL     1      35.230 -25.142 -10.411  0.00  0.00    -0.222 OA
ATOM      2  N   UNL     1      35.477 -22.919 -14.518  0.00  0.00    -0.250 N 
ATOM      3  N   UNL     1      34.237 -23.383 -14.293  0.00  0.00    -0.262 N 
ATOM      4  N   UNL     1      37.503 -23.149 -13.197  0.00  0.00    -0.227 NA
ATOM      5  N   UNL     1      37.281 -24.314 -11.091  0.00  0.00    -0.175 NA
ATOM      6  C   UNL     1      35.382 -24.043 -12.477  0.00  0.00    +0.131 C 
ATOM      7  C   UNL     1      36.247 -23.313 -13.446  0.00  0.00    +0.154 C 
ATOM      8  C   UNL     1      34.182 -24.021 -13.076  0.00  0.00    +0.090 C 
ATOM      9  C   UNL     1      35.929 -24.556 -11.228  0.00  0.00    +0.156 C 
ATOM     10  C   UNL     1      37.960 -23.674 -12.003  0.00  0.00    +0.264 C 
ATOM     11  H   UNL     1      35.777 -22.398 -15.299  0.00  0.00    +0.171 HD
ATOM     12  H   UNL     1      33.477 -23.281 -14.910  0.00  0.00    +0.170 HD
ENDROOT
TORSDOF 0
ENDMDL
MODEL 7
REMARK VINA RESULT:      -6.2      1.649      3.097
REMARK  Name = 2094
REMARK  0 active torsions:
REMARK  status: ('A' for Active; 'I' for Inactive)
REMARK                            x       y       z     vdW  Elec       q    Type
REMARK                         _______ _______ _______ _____ _____    ______ ____
ROOT
ATOM      1  O   UNL     1      36.261 -18.669 -21.307  0.00  0.00    -0.222 OA
ATOM      2  N   UNL     1      32.940 -21.598 -19.801  0.00  0.00    -0.250 N 
ATOM      3  N   UNL     1      32.428 -20.665 -20.620  0.00  0.00    -0.262 N 
ATOM      4  N   UNL     1      35.207 -21.888 -18.978  0.00  0.00    -0.227 NA
ATOM      5  N   UNL     1      36.856 -20.328 -19.808  0.00  0.00    -0.175 NA
ATOM      6  C   UNL     1      34.608 -20.135 -20.521  0.00  0.00    +0.131 C 
ATOM      7  C   UNL     1      34.283 -21.316 -19.673  0.00  0.00    +0.154 C 
ATOM      8  C   UNL     1      33.421 -19.823 -21.062  0.00  0.00    +0.090 C 
ATOM      9  C   UNL     1      35.970 -19.626 -20.601  0.00  0.00    +0.156 C 
ATOM     10  C   UNL     1      36.474 -21.346 -19.087  0.00  0.00    +0.264 C 
ATOM     11  H   UNL     1      32.451 -22.339 -19.374  0.00  0.00    +0.171 HD
ATOM     12  H   UNL     1      31.478 -20.594 -20.869  0.00  0.00    +0.170 HD
ENDROOT
TORSDOF 0
ENDMDL
MODEL 8
REMARK VINA RESULT:      -6.1      1.696      2.382
REMARK  Name = 2094
REMARK  0 active torsions:
REMARK  status: ('A' for Active; 'I' for Inactive)
REMARK                            x       y       z     vdW  Elec       q    Type
REMARK                         _______ _______ _______ _____ _____    ______ ____
ROOT
ATOM      1  O   UNL     1      34.228 -23.047 -18.875  0.00  0.00    -0.222 OA
ATOM      2  N   UNL     1      36.073 -19.166 -20.723  0.00  0.00    -0.250 N 
ATOM      3  N   UNL     1      37.009 -19.895 -20.095  0.00  0.00    -0.262 N 
ATOM      4  N   UNL     1      33.679 -19.530 -20.931  0.00  0.00    -0.227 NA
ATOM      5  N   UNL     1      32.815 -21.559 -19.945  0.00  0.00    -0.175 NA
ATOM      6  C   UNL     1      35.128 -21.083 -19.789  0.00  0.00    +0.131 C 
ATOM      7  C   UNL     1      34.876 -19.828 -20.553  0.00  0.00    +0.154 C 
ATOM      8  C   UNL     1      36.450 -21.037 -19.570  0.00  0.00    +0.090 C 
ATOM      9  C   UNL     1      34.039 -22.002 -19.484  0.00  0.00    +0.156 C 
ATOM     10  C   UNL     1      32.691 -20.435 -20.595  0.00  0.00    +0.264 C 
ATOM     11  H   UNL     1      36.214 -18.321 -21.210  0.00  0.00    +0.171 HD
ATOM     12  H   UNL     1      37.959 -19.649 -20.020  0.00  0.00    +0.170 HD
ENDROOT
TORSDOF 0
ENDMDL
MODEL 9
REMARK VINA RESULT:      -6.1      7.357      8.295
REMARK  Name = 2094
REMARK  0 active torsions:
REMARK  status: ('A' for Active; 'I' for Inactive)
REMARK                            x       y       z     vdW  Elec       q    Type
REMARK                         _______ _______ _______ _____ _____    ______ ____
ROOT
ATOM      1  O   UNL     1      37.703 -23.090 -12.951  0.00  0.00    -0.222 OA
ATOM      2  N   UNL     1      36.406 -26.924 -15.294  0.00  0.00    -0.250 N 
ATOM      3  N   UNL     1      35.352 -26.130 -15.046  0.00  0.00    -0.262 N 
ATOM      4  N   UNL     1      38.735 -26.690 -14.645  0.00  0.00    -0.227 NA
ATOM      5  N   UNL     1      39.313 -24.680 -13.436  0.00  0.00    -0.175 NA
ATOM      6  C   UNL     1      37.071 -25.032 -14.106  0.00  0.00    +0.131 C 
ATOM      7  C   UNL     1      37.501 -26.320 -14.718  0.00  0.00    +0.154 C 
ATOM      8  C   UNL     1      35.756 -25.003 -14.369  0.00  0.00    +0.090 C 
ATOM      9  C   UNL     1      38.033 -24.161 -13.443  0.00  0.00    +0.156 C 
ATOM     10  C   UNL     1      39.593 -25.828 -13.990  0.00  0.00    +0.264 C 
ATOM     11  H   UNL     1      36.396 -27.775 -15.792  0.00  0.00    +0.171 HD
ATOM     12  H   UNL     1      34.424 -26.325 -15.310  0.00  0.00    +0.170 HD
ENDROOT
TORSDOF 0
ENDMDL
