MODEL 1
REMARK VINA RESULT:      -7.5      0.000      0.000
REMARK  Name = 3052776
REMARK  3 active torsions:
REMARK  status: ('A' for Active; 'I' for Inactive)
REMARK    1  A    between atoms: C_1  and  N_10
REMARK    2  A    between atoms: N_10  and  C_13
REMARK    3  A    between atoms: C_13  and  C_14
REMARK                            x       y       z     vdW  Elec       q    Type
REMARK                         _______ _______ _______ _____ _____    ______ ____
ROOT
ATOM      1  C   UNL     1      35.041 -18.434 -21.857  0.00  0.00    -0.037 C 
ATOM      2  C   UNL     1      35.603 -18.617 -23.282  0.00  0.00    -0.012 C 
ATOM      3  C   UNL     1      34.939 -17.537 -24.148  0.00  0.00    +0.024 C 
ATOM      4  C   UNL     1      34.814 -16.948 -21.834  0.00  0.00    -0.046 C 
ATOM      5  C   UNL     1      34.752 -16.445 -23.142  0.00  0.00    -0.028 C 
ATOM      6  C   UNL     1      34.613 -16.115 -20.745  0.00  0.00    -0.007 C 
ATOM      7  C   UNL     1      34.497 -15.105 -23.384  0.00  0.00    -0.005 C 
ATOM      8  C   UNL     1      34.369 -14.759 -20.979  0.00  0.00    -0.000 C 
ATOM      9  C   UNL     1      34.313 -14.258 -22.289  0.00  0.00    -0.000 C 
ENDROOT
BRANCH   1  10
ATOM     10  N   UNL     1      35.976 -18.924 -20.857  0.00  0.00    +0.396 N 
ATOM     11  H   UNL     1      35.912 -18.338 -20.025  0.00  0.00    -0.082 HD
ATOM     12  H   UNL     1      36.917 -18.889 -21.248  0.00  0.00    -0.082 HD
BRANCH  10  13
ATOM     13  C   UNL     1      35.676 -20.303 -20.494  0.00  0.00    -0.001 C 
BRANCH  13  14
ATOM     14  C   UNL     1      34.243 -20.478 -20.237  0.00  0.00    -0.102 C 
ATOM     15  C   UNL     1      33.071 -20.627 -20.027  0.00  0.00    -0.016 C 
ENDBRANCH  13  14
ENDBRANCH  10  13
ENDBRANCH   1  10
TORSDOF 3
ENDMDL
MODEL 2
REMARK VINA RESULT:      -7.4      1.310      4.941
REMARK  Name = 3052776
REMARK  3 active torsions:
REMARK  status: ('A' for Active; 'I' for Inactive)
REMARK    1  A    between atoms: C_1  and  N_10
REMARK    2  A    between atoms: N_10  and  C_13
REMARK    3  A    between atoms: C_13  and  C_14
REMARK                            x       y       z     vdW  Elec       q    Type
REMARK                         _______ _______ _______ _____ _____    ______ ____
ROOT
ATOM      1  C   UNL     1      35.356 -18.279 -21.400  0.00  0.00    -0.037 C 
ATOM      2  C   UNL     1      36.768 -18.883 -21.542  0.00  0.00    -0.012 C 
ATOM      3  C   UNL     1      36.919 -19.896 -20.398  0.00  0.00    +0.024 C 
ATOM      4  C   UNL     1      34.609 -19.445 -20.818  0.00  0.00    -0.046 C 
ATOM      5  C   UNL     1      35.504 -20.360 -20.244  0.00  0.00    -0.028 C 
ATOM      6  C   UNL     1      33.240 -19.653 -20.742  0.00  0.00    -0.007 C 
ATOM      7  C   UNL     1      35.051 -21.496 -19.595  0.00  0.00    -0.005 C 
ATOM      8  C   UNL     1      32.775 -20.803 -20.101  0.00  0.00    -0.000 C 
ATOM      9  C   UNL     1      33.674 -21.719 -19.532  0.00  0.00    -0.000 C 
ENDROOT
BRANCH   1  10
ATOM     10  N   UNL     1      34.855 -17.811 -22.682  0.00  0.00    +0.396 N 
ATOM     11  H   UNL     1      33.865 -18.045 -22.759  0.00  0.00    -0.082 HD
ATOM     12  H   UNL     1      35.388 -18.264 -23.424  0.00  0.00    -0.082 HD
BRANCH  10  13
ATOM     13  C   UNL     1      35.014 -16.369 -22.812  0.00  0.00    -0.001 C 
BRANCH  13  14
ATOM     14  C   UNL     1      34.592 -15.683 -21.586  0.00  0.00    -0.102 C 
ATOM     15  C   UNL     1      34.252 -15.123 -20.580  0.00  0.00    -0.016 C 
ENDBRANCH  13  14
ENDBRANCH  10  13
ENDBRANCH   1  10
TORSDOF 3
ENDMDL
MODEL 3
REMARK VINA RESULT:      -7.4      3.114      5.365
REMARK  Name = 3052776
REMARK  3 active torsions:
REMARK  status: ('A' for Active; 'I' for Inactive)
REMARK    1  A    between atoms: C_1  and  N_10
REMARK    2  A    between atoms: N_10  and  C_13
REMARK    3  A    between atoms: C_13  and  C_14
REMARK                            x       y       z     vdW  Elec       q    Type
REMARK                         _______ _______ _______ _____ _____    ______ ____
ROOT
ATOM      1  C   UNL     1      33.763 -22.357 -19.107  0.00  0.00    -0.037 C 
ATOM      2  C   UNL     1      35.064 -22.367 -18.277  0.00  0.00    -0.012 C 
ATOM      3  C   UNL     1      36.140 -21.716 -19.158  0.00  0.00    +0.024 C 
ATOM      4  C   UNL     1      33.958 -21.105 -19.916  0.00  0.00    -0.046 C 
ATOM      5  C   UNL     1      35.313 -20.748 -19.945  0.00  0.00    -0.028 C 
ATOM      6  C   UNL     1      33.018 -20.373 -20.626  0.00  0.00    -0.007 C 
ATOM      7  C   UNL     1      35.753 -19.655 -20.673  0.00  0.00    -0.005 C 
ATOM      8  C   UNL     1      33.451 -19.260 -21.352  0.00  0.00    -0.000 C 
ATOM      9  C   UNL     1      34.808 -18.903 -21.374  0.00  0.00    -0.000 C 
ENDROOT
BRANCH   1  10
ATOM     10  N   UNL     1      32.592 -22.352 -18.246  0.00  0.00    +0.396 N 
ATOM     11  H   UNL     1      31.786 -22.678 -18.778  0.00  0.00    -0.082 HD
ATOM     12  H   UNL     1      32.439 -21.401 -17.911  0.00  0.00    -0.082 HD
BRANCH  10  13
ATOM     13  C   UNL     1      32.786 -23.223 -17.095  0.00  0.00    -0.001 C 
BRANCH  13  14
ATOM     14  C   UNL     1      31.643 -23.145 -16.180  0.00  0.00    -0.102 C 
ATOM     15  C   UNL     1      30.704 -23.078 -15.435  0.00  0.00    -0.016 C 
ENDBRANCH  13  14
ENDBRANCH  10  13
ENDBRANCH   1  10
TORSDOF 3
ENDMDL
MODEL 4
REMARK VINA RESULT:      -7.4      1.454      5.484
REMARK  Name = 3052776
REMARK  3 active torsions:
REMARK  status: ('A' for Active; 'I' for Inactive)
REMARK    1  A    between atoms: C_1  and  N_10
REMARK    2  A    between atoms: N_10  and  C_13
REMARK    3  A    between atoms: C_13  and  C_14
REMARK                            x       y       z     vdW  Elec       q    Type
REMARK                         _______ _______ _______ _____ _____    ______ ____
ROOT
ATOM      1  C   UNL     1      34.887 -19.375 -21.220  0.00  0.00    -0.037 C 
ATOM      2  C   UNL     1      33.373 -19.096 -21.116  0.00  0.00    -0.012 C 
ATOM      3  C   UNL     1      32.722 -20.417 -20.678  0.00  0.00    +0.024 C 
ATOM      4  C   UNL     1      35.054 -20.417 -20.150  0.00  0.00    -0.046 C 
ATOM      5  C   UNL     1      33.819 -21.010 -19.850  0.00  0.00    -0.028 C 
ATOM      6  C   UNL     1      36.217 -20.855 -19.535  0.00  0.00    -0.007 C 
ATOM      7  C   UNL     1      33.722 -22.040 -18.928  0.00  0.00    -0.005 C 
ATOM      8  C   UNL     1      36.126 -21.883 -18.594  0.00  0.00    -0.000 C 
ATOM      9  C   UNL     1      34.887 -22.471 -18.292  0.00  0.00    -0.000 C 
ENDROOT
BRANCH   1  10
ATOM     10  N   UNL     1      35.658 -18.160 -21.015  0.00  0.00    +0.396 N 
ATOM     11  H   UNL     1      36.645 -18.360 -21.178  0.00  0.00    -0.082 HD
ATOM     12  H   UNL     1      35.512 -17.840 -20.057  0.00  0.00    -0.082 HD
BRANCH  10  13
ATOM     13  C   UNL     1      35.228 -17.107 -21.925  0.00  0.00    -0.001 C 
BRANCH  13  14
ATOM     14  C   UNL     1      34.745 -15.938 -21.183  0.00  0.00    -0.102 C 
ATOM     15  C   UNL     1      34.350 -14.984 -20.571  0.00  0.00    -0.016 C 
ENDBRANCH  13  14
ENDBRANCH  10  13
ENDBRANCH   1  10
TORSDOF 3
ENDMDL
MODEL 5
REMARK VINA RESULT:      -7.3      2.169      5.342
REMARK  Name = 3052776
REMARK  3 active torsions:
REMARK  status: ('A' for Active; 'I' for Inactive)
REMARK    1  A    between atoms: C_1  and  N_10
REMARK    2  A    between atoms: N_10  and  C_13
REMARK    3  A    between atoms: C_13  and  C_14
REMARK                            x       y       z     vdW  Elec       q    Type
REMARK                         _______ _______ _______ _____ _____    ______ ____
ROOT
ATOM      1  C   UNL     1      34.903 -18.708 -21.186  0.00  0.00    -0.037 C 
ATOM      2  C   UNL     1      36.395 -18.947 -21.500  0.00  0.00    -0.012 C 
ATOM      3  C   UNL     1      36.941 -19.812 -20.355  0.00  0.00    +0.024 C 
ATOM      4  C   UNL     1      34.560 -19.983 -20.469  0.00  0.00    -0.046 C 
ATOM      5  C   UNL     1      35.724 -20.605 -19.994  0.00  0.00    -0.028 C 
ATOM      6  C   UNL     1      33.311 -20.522 -20.200  0.00  0.00    -0.007 C 
ATOM      7  C   UNL     1      35.663 -21.773 -19.252  0.00  0.00    -0.005 C 
ATOM      8  C   UNL     1      33.241 -21.707 -19.464  0.00  0.00    -0.000 C 
ATOM      9  C   UNL     1      34.408 -22.329 -18.995  0.00  0.00    -0.000 C 
ENDROOT
BRANCH   1  10
ATOM     10  N   UNL     1      34.144 -18.467 -22.401  0.00  0.00    +0.396 N 
ATOM     11  H   UNL     1      33.841 -17.493 -22.418  0.00  0.00    -0.082 HD
ATOM     12  H   UNL     1      33.338 -19.092 -22.410  0.00  0.00    -0.082 HD
BRANCH  10  13
ATOM     13  C   UNL     1      34.951 -18.735 -23.584  0.00  0.00    -0.001 C 
BRANCH  13  14
ATOM     14  C   UNL     1      34.794 -17.669 -24.579  0.00  0.00    -0.102 C 
ATOM     15  C   UNL     1      34.669 -16.793 -25.390  0.00  0.00    -0.016 C 
ENDBRANCH  13  14
ENDBRANCH  10  13
ENDBRANCH   1  10
TORSDOF 3
ENDMDL
MODEL 6
REMARK VINA RESULT:      -7.3      3.259      5.103
REMARK  Name = 3052776
REMARK  3 active torsions:
REMARK  status: ('A' for Active; 'I' for Inactive)
REMARK    1  A    between atoms: C_1  and  N_10
REMARK    2  A    between atoms: N_10  and  C_13
REMARK    3  A    between atoms: C_13  and  C_14
REMARK                            x       y       z     vdW  Elec       q    Type
REMARK                         _______ _______ _______ _____ _____    ______ ____
ROOT
ATOM      1  C   UNL     1      35.009 -22.281 -18.819  0.00  0.00    -0.037 C 
ATOM      2  C   UNL     1      36.448 -21.748 -18.652  0.00  0.00    -0.012 C 
ATOM      3  C   UNL     1      36.755 -20.938 -19.920  0.00  0.00    +0.024 C 
ATOM      4  C   UNL     1      34.394 -21.177 -19.633  0.00  0.00    -0.046 C 
ATOM      5  C   UNL     1      35.393 -20.419 -20.261  0.00  0.00    -0.028 C 
ATOM      6  C   UNL     1      33.053 -20.902 -19.853  0.00  0.00    -0.007 C 
ATOM      7  C   UNL     1      35.073 -19.373 -21.110  0.00  0.00    -0.005 C 
ATOM      8  C   UNL     1      32.722 -19.840 -20.698  0.00  0.00    -0.000 C 
ATOM      9  C   UNL     1      33.724 -19.080 -21.321  0.00  0.00    -0.000 C 
ENDROOT
BRANCH   1  10
ATOM     10  N   UNL     1      34.383 -22.511 -17.528  0.00  0.00    +0.396 N 
ATOM     11  H   UNL     1      33.944 -21.647 -17.211  0.00  0.00    -0.082 HD
ATOM     12  H   UNL     1      35.099 -22.811 -16.868  0.00  0.00    -0.082 HD
BRANCH  10  13
ATOM     13  C   UNL     1      33.369 -23.554 -17.617  0.00  0.00    -0.001 C 
BRANCH  13  14
ATOM     14  C   UNL     1      32.230 -23.253 -16.745  0.00  0.00    -0.102 C 
ATOM     15  C   UNL     1      31.299 -23.011 -16.026  0.00  0.00    -0.016 C 
ENDBRANCH  13  14
ENDBRANCH  10  13
ENDBRANCH   1  10
TORSDOF 3
ENDMDL
MODEL 7
REMARK VINA RESULT:      -7.2      2.144      5.382
REMARK  Name = 3052776
REMARK  3 active torsions:
REMARK  status: ('A' for Active; 'I' for Inactive)
REMARK    1  A    between atoms: C_1  and  N_10
REMARK    2  A    between atoms: N_10  and  C_13
REMARK    3  A    between atoms: C_13  and  C_14
REMARK                            x       y       z     vdW  Elec       q    Type
REMARK                         _______ _______ _______ _____ _____    ______ ____
ROOT
ATOM      1  C   UNL     1      34.459 -19.395 -21.406  0.00  0.00    -0.037 C 
ATOM      2  C   UNL     1      32.989 -19.388 -20.938  0.00  0.00    -0.012 C 
ATOM      3  C   UNL     1      32.737 -20.759 -20.293  0.00  0.00    +0.024 C 
ATOM      4  C   UNL     1      35.080 -20.288 -20.369  0.00  0.00    -0.046 C 
ATOM      5  C   UNL     1      34.095 -21.066 -19.743  0.00  0.00    -0.028 C 
ATOM      6  C   UNL     1      36.419 -20.449 -20.048  0.00  0.00    -0.007 C 
ATOM      7  C   UNL     1      34.427 -22.007 -18.783  0.00  0.00    -0.005 C 
ATOM      8  C   UNL     1      36.761 -21.387 -19.071  0.00  0.00    -0.000 C 
ATOM      9  C   UNL     1      35.772 -22.160 -18.442  0.00  0.00    -0.000 C 
ENDROOT
BRANCH   1  10
ATOM     10  N   UNL     1      35.000 -18.047 -21.455  0.00  0.00    +0.396 N 
ATOM     11  H   UNL     1      35.570 -17.886 -20.625  0.00  0.00    -0.082 HD
ATOM     12  H   UNL     1      34.224 -17.386 -21.489  0.00  0.00    -0.082 HD
BRANCH  10  13
ATOM     13  C   UNL     1      35.823 -17.856 -22.642  0.00  0.00    -0.001 C 
BRANCH  13  14
ATOM     14  C   UNL     1      35.085 -18.221 -23.855  0.00  0.00    -0.102 C 
ATOM     15  C   UNL     1      34.484 -18.517 -24.852  0.00  0.00    -0.016 C 
ENDBRANCH  13  14
ENDBRANCH  10  13
ENDBRANCH   1  10
TORSDOF 3
ENDMDL
MODEL 8
REMARK VINA RESULT:      -7.2      1.082      2.584
REMARK  Name = 3052776
REMARK  3 active torsions:
REMARK  status: ('A' for Active; 'I' for Inactive)
REMARK    1  A    between atoms: C_1  and  N_10
REMARK    2  A    between atoms: N_10  and  C_13
REMARK    3  A    between atoms: C_13  and  C_14
REMARK                            x       y       z     vdW  Elec       q    Type
REMARK                         _______ _______ _______ _____ _____    ______ ____
ROOT
ATOM      1  C   UNL     1      35.533 -17.746 -21.742  0.00  0.00    -0.037 C 
ATOM      2  C   UNL     1      34.829 -16.748 -20.798  0.00  0.00    -0.012 C 
ATOM      3  C   UNL     1      34.642 -15.454 -21.603  0.00  0.00    +0.024 C 
ATOM      4  C   UNL     1      34.982 -17.310 -23.071  0.00  0.00    -0.046 C 
ATOM      5  C   UNL     1      34.481 -16.003 -22.986  0.00  0.00    -0.028 C 
ATOM      6  C   UNL     1      34.981 -17.992 -24.278  0.00  0.00    -0.007 C 
ATOM      7  C   UNL     1      33.966 -15.359 -24.099  0.00  0.00    -0.005 C 
ATOM      8  C   UNL     1      34.451 -17.354 -25.402  0.00  0.00    -0.000 C 
ATOM      9  C   UNL     1      33.946 -16.048 -25.313  0.00  0.00    -0.000 C 
ENDROOT
BRANCH   1  10
ATOM     10  N   UNL     1      35.229 -19.119 -21.375  0.00  0.00    +0.396 N 
ATOM     11  H   UNL     1      35.781 -19.376 -20.558  0.00  0.00    -0.082 HD
ATOM     12  H   UNL     1      35.454 -19.724 -22.164  0.00  0.00    -0.082 HD
BRANCH  10  13
ATOM     13  C   UNL     1      33.814 -19.275 -21.061  0.00  0.00    -0.001 C 
BRANCH  13  14
ATOM     14  C   UNL     1      33.592 -20.453 -20.217  0.00  0.00    -0.102 C 
ATOM     15  C   UNL     1      33.411 -21.415 -19.521  0.00  0.00    -0.016 C 
ENDBRANCH  13  14
ENDBRANCH  10  13
ENDBRANCH   1  10
TORSDOF 3
ENDMDL
MODEL 9
REMARK VINA RESULT:      -7.1      1.176      1.354
REMARK  Name = 3052776
REMARK  3 active torsions:
REMARK  status: ('A' for Active; 'I' for Inactive)
REMARK    1  A    between atoms: C_1  and  N_10
REMARK    2  A    between atoms: N_10  and  C_13
REMARK    3  A    between atoms: C_13  and  C_14
REMARK                            x       y       z     vdW  Elec       q    Type
REMARK                         _______ _______ _______ _____ _____    ______ ____
ROOT
ATOM      1  C   UNL     1      34.535 -17.447 -22.046  0.00  0.00    -0.037 C 
ATOM      2  C   UNL     1      35.348 -17.135 -23.320  0.00  0.00    -0.012 C 
ATOM      3  C   UNL     1      34.541 -16.087 -24.098  0.00  0.00    +0.024 C 
ATOM      4  C   UNL     1      33.875 -16.119 -21.803  0.00  0.00    -0.046 C 
ATOM      5  C   UNL     1      33.877 -15.351 -22.976  0.00  0.00    -0.028 C 
ATOM      6  C   UNL     1      33.262 -15.649 -20.651  0.00  0.00    -0.007 C 
ATOM      7  C   UNL     1      33.277 -14.103 -23.019  0.00  0.00    -0.005 C 
ATOM      8  C   UNL     1      32.667 -14.386 -20.682  0.00  0.00    -0.000 C 
ATOM      9  C   UNL     1      32.675 -13.618 -21.857  0.00  0.00    -0.000 C 
ENDROOT
BRANCH   1  10
ATOM     10  N   UNL     1      35.399 -17.905 -20.971  0.00  0.00    +0.396 N 
ATOM     11  H   UNL     1      35.069 -17.517 -20.088  0.00  0.00    -0.082 HD
ATOM     12  H   UNL     1      36.351 -17.595 -21.165  0.00  0.00    -0.082 HD
BRANCH  10  13
ATOM     13  C   UNL     1      35.397 -19.360 -20.882  0.00  0.00    -0.001 C 
BRANCH  13  14
ATOM     14  C   UNL     1      34.041 -19.867 -20.643  0.00  0.00    -0.102 C 
ATOM     15  C   UNL     1      32.934 -20.288 -20.448  0.00  0.00    -0.016 C 
ENDBRANCH  13  14
ENDBRANCH  10  13
ENDBRANCH   1  10
TORSDOF 3
ENDMDL
