MODEL 1
REMARK VINA RESULT:      -7.8      0.000      0.000
REMARK  Name = 51701
REMARK  7 active torsions:
REMARK  status: ('A' for Active; 'I' for Inactive)
REMARK    1  A    between atoms: C_2  and  C_13
REMARK    2  A    between atoms: C_3  and  C_20
REMARK    3  A    between atoms: C_4  and  C_25
REMARK    4  A    between atoms: C_20  and  O_21
REMARK    5  A    between atoms: O_21  and  C_22
REMARK    6  A    between atoms: C_25  and  O_26
REMARK    7  A    between atoms: O_26  and  C_27
REMARK                            x       y       z     vdW  Elec       q    Type
REMARK                         _______ _______ _______ _____ _____    ______ ____
ROOT
ATOM      1  N   UNL     1      33.976 -22.660 -17.413  0.00  0.00    -0.334 N 
ATOM      2  C   UNL     1      35.218 -22.882 -14.879  0.00  0.00    +0.013 C 
ATOM      3  C   UNL     1      33.748 -23.237 -15.129  0.00  0.00    +0.071 C 
ATOM      4  C   UNL     1      35.984 -22.562 -16.166  0.00  0.00    +0.085 C 
ATOM      5  C   UNL     1      33.194 -23.099 -16.355  0.00  0.00    +0.098 C 
ATOM      6  C   UNL     1      35.342 -22.438 -17.349  0.00  0.00    +0.028 C 
ATOM      7  C   UNL     1      31.756 -23.376 -16.703  0.00  0.00    +0.026 C 
ATOM      8  C   UNL     1      35.988 -22.075 -18.659  0.00  0.00    +0.047 C 
ATOM      9  H   UNL     1      33.527 -22.495 -18.274  0.00  0.00    +0.147 HD
ENDROOT
BRANCH   2  13
ATOM     10  O   UNL     1      37.455 -23.186 -11.056  0.00  0.00    -0.242 OA
ATOM     11  N   UNL     1      36.731 -22.767 -12.161  0.00  0.00    -0.048 NA
ATOM     12  N   UNL     1      37.741 -24.539 -11.110  0.00  0.00    -0.048 NA
ATOM     13  C   UNL     1      35.897 -24.003 -14.144  0.00  0.00    +0.023 C 
ATOM     14  C   UNL     1      36.557 -23.857 -12.918  0.00  0.00    +0.143 A 
ATOM     15  C   UNL     1      35.899 -25.298 -14.674  0.00  0.00    +0.002 C 
ATOM     16  C   UNL     1      37.199 -24.983 -12.251  0.00  0.00    +0.143 A 
ATOM     17  C   UNL     1      36.524 -26.394 -14.024  0.00  0.00    +0.002 C 
ATOM     18  C   UNL     1      37.195 -26.282 -12.793  0.00  0.00    +0.024 C 
ENDBRANCH   2  13
BRANCH   3  20
ATOM     19  O   UNL     1      32.953 -23.249 -12.895  0.00  0.00    -0.245 OA
ATOM     20  C   UNL     1      33.000 -23.787 -13.987  0.00  0.00    +0.339 C 
BRANCH  20  21
ATOM     21  O   UNL     1      32.412 -24.943 -14.378  0.00  0.00    -0.446 OA
BRANCH  21  22
ATOM     22  C   UNL     1      31.224 -25.293 -13.659  0.00  0.00    +0.209 C 
ATOM     23  C   UNL     1      30.076 -25.424 -14.638  0.00  0.00    +0.051 C 
ENDBRANCH  21  22
ENDBRANCH  20  21
ENDBRANCH   3  20
BRANCH   4  25
ATOM     24  O   UNL     1      38.024 -21.378 -15.939  0.00  0.00    -0.245 OA
ATOM     25  C   UNL     1      37.447 -22.443 -16.051  0.00  0.00    +0.342 C 
BRANCH  25  26
ATOM     26  O   UNL     1      37.981 -23.688 -16.091  0.00  0.00    -0.445 OA
BRANCH  26  27
ATOM     27  C   UNL     1      39.240 -23.829 -15.423  0.00  0.00    +0.209 C 
ATOM     28  C   UNL     1      39.601 -25.298 -15.361  0.00  0.00    +0.051 C 
ENDBRANCH  26  27
ENDBRANCH  25  26
ENDBRANCH   4  25
TORSDOF 7
ENDMDL
MODEL 2
REMARK VINA RESULT:      -7.6     14.759     18.042
REMARK  Name = 51701
REMARK  7 active torsions:
REMARK  status: ('A' for Active; 'I' for Inactive)
REMARK    1  A    between atoms: C_2  and  C_13
REMARK    2  A    between atoms: C_3  and  C_20
REMARK    3  A    between atoms: C_4  and  C_25
REMARK    4  A    between atoms: C_20  and  O_21
REMARK    5  A    between atoms: O_21  and  C_22
REMARK    6  A    between atoms: C_25  and  O_26
REMARK    7  A    between atoms: O_26  and  C_27
REMARK                            x       y       z     vdW  Elec       q    Type
REMARK                         _______ _______ _______ _____ _____    ______ ____
ROOT
ATOM      1  N   UNL     1      34.142 -11.663 -24.669  0.00  0.00    -0.334 N 
ATOM      2  C   UNL     1      33.375  -9.629 -22.856  0.00  0.00    +0.013 C 
ATOM      3  C   UNL     1      34.385  -9.410 -23.988  0.00  0.00    +0.071 C 
ATOM      4  C   UNL     1      32.701 -11.004 -22.912  0.00  0.00    +0.085 C 
ATOM      5  C   UNL     1      34.733 -10.417 -24.821  0.00  0.00    +0.098 C 
ATOM      6  C   UNL     1      33.122 -11.953 -23.778  0.00  0.00    +0.028 C 
ATOM      7  C   UNL     1      35.740 -10.325 -25.935  0.00  0.00    +0.026 C 
ATOM      8  C   UNL     1      32.568 -13.348 -23.880  0.00  0.00    +0.047 C 
ATOM      9  H   UNL     1      34.473 -12.396 -25.238  0.00  0.00    +0.147 HD
ENDROOT
BRANCH   2  13
ATOM     10  O   UNL     1      32.309  -6.279 -20.145  0.00  0.00    -0.242 OA
ATOM     11  N   UNL     1      32.877  -7.383 -20.758  0.00  0.00    -0.048 NA
ATOM     12  N   UNL     1      31.256  -5.765 -20.882  0.00  0.00    -0.048 NA
ATOM     13  C   UNL     1      32.334  -8.547 -22.881  0.00  0.00    +0.023 C 
ATOM     14  C   UNL     1      32.184  -7.572 -21.888  0.00  0.00    +0.143 A 
ATOM     15  C   UNL     1      31.430  -8.459 -23.947  0.00  0.00    +0.002 C 
ATOM     16  C   UNL     1      31.153  -6.545 -21.967  0.00  0.00    +0.143 A 
ATOM     17  C   UNL     1      30.426  -7.458 -24.023  0.00  0.00    +0.002 C 
ATOM     18  C   UNL     1      30.249  -6.465 -23.042  0.00  0.00    +0.024 C 
ENDBRANCH   2  13
BRANCH   3  20
ATOM     19  O   UNL     1      35.542  -7.459 -23.297  0.00  0.00    -0.245 OA
ATOM     20  C   UNL     1      34.901  -8.041 -24.154  0.00  0.00    +0.339 C 
BRANCH  20  21
ATOM     21  O   UNL     1      34.540  -7.592 -25.380  0.00  0.00    -0.446 OA
BRANCH  21  22
ATOM     22  C   UNL     1      34.614  -6.174 -25.553  0.00  0.00    +0.209 C 
ATOM     23  C   UNL     1      33.216  -5.595 -25.485  0.00  0.00    +0.051 C 
ENDBRANCH  21  22
ENDBRANCH  20  21
ENDBRANCH   3  20
BRANCH   4  25
ATOM     24  O   UNL     1      30.401 -10.997 -22.343  0.00  0.00    -0.245 OA
ATOM     25  C   UNL     1      31.554 -11.213 -22.015  0.00  0.00    +0.342 C 
BRANCH  25  26
ATOM     26  O   UNL     1      32.018 -11.667 -20.826  0.00  0.00    -0.445 OA
BRANCH  26  27
ATOM     27  C   UNL     1      31.243 -11.283 -19.685  0.00  0.00    +0.209 C 
ATOM     28  C   UNL     1      31.970 -10.179 -18.946  0.00  0.00    +0.051 C 
ENDBRANCH  26  27
ENDBRANCH  25  26
ENDBRANCH   4  25
TORSDOF 7
ENDMDL
MODEL 3
REMARK VINA RESULT:      -7.0      1.757      2.165
REMARK  Name = 51701
REMARK  7 active torsions:
REMARK  status: ('A' for Active; 'I' for Inactive)
REMARK    1  A    between atoms: C_2  and  C_13
REMARK    2  A    between atoms: C_3  and  C_20
REMARK    3  A    between atoms: C_4  and  C_25
REMARK    4  A    between atoms: C_20  and  O_21
REMARK    5  A    between atoms: O_21  and  C_22
REMARK    6  A    between atoms: C_25  and  O_26
REMARK    7  A    between atoms: O_26  and  C_27
REMARK                            x       y       z     vdW  Elec       q    Type
REMARK                         _______ _______ _______ _____ _____    ______ ____
ROOT
ATOM      1  N   UNL     1      34.157 -22.710 -17.587  0.00  0.00    -0.334 N 
ATOM      2  C   UNL     1      35.202 -22.884 -14.963  0.00  0.00    +0.013 C 
ATOM      3  C   UNL     1      33.779 -23.318 -15.331  0.00  0.00    +0.071 C 
ATOM      4  C   UNL     1      36.050 -22.510 -16.182  0.00  0.00    +0.085 C 
ATOM      5  C   UNL     1      33.318 -23.201 -16.597  0.00  0.00    +0.098 C 
ATOM      6  C   UNL     1      35.498 -22.413 -17.413  0.00  0.00    +0.028 C 
ATOM      7  C   UNL     1      31.931 -23.555 -17.061  0.00  0.00    +0.026 C 
ATOM      8  C   UNL     1      36.225 -22.003 -18.665  0.00  0.00    +0.047 C 
ATOM      9  H   UNL     1      33.769 -22.562 -18.480  0.00  0.00    +0.147 HD
ENDROOT
BRANCH   2  13
ATOM     10  O   UNL     1      36.325 -27.093 -15.819  0.00  0.00    -0.242 OA
ATOM     11  N   UNL     1      35.856 -25.791 -15.867  0.00  0.00    -0.048 NA
ATOM     12  N   UNL     1      36.903 -27.389 -14.597  0.00  0.00    -0.048 NA
ATOM     13  C   UNL     1      35.882 -23.971 -14.180  0.00  0.00    +0.023 C 
ATOM     14  C   UNL     1      36.137 -25.257 -14.671  0.00  0.00    +0.143 A 
ATOM     15  C   UNL     1      36.312 -23.736 -12.869  0.00  0.00    +0.002 C 
ATOM     16  C   UNL     1      36.802 -26.272 -13.864  0.00  0.00    +0.143 A 
ATOM     17  C   UNL     1      36.960 -24.725 -12.083  0.00  0.00    +0.002 C 
ATOM     18  C   UNL     1      37.230 -26.026 -12.546  0.00  0.00    +0.024 C 
ENDBRANCH   2  13
BRANCH   3  20
ATOM     19  O   UNL     1      33.030 -25.098 -13.957  0.00  0.00    -0.245 OA
ATOM     20  C   UNL     1      32.974 -23.919 -14.256  0.00  0.00    +0.339 C 
BRANCH  20  21
ATOM     21  O   UNL     1      32.207 -22.949 -13.701  0.00  0.00    -0.446 OA
BRANCH  21  22
ATOM     22  C   UNL     1      30.856 -23.330 -13.422  0.00  0.00    +0.209 C 
ATOM     23  C   UNL     1      29.972 -22.886 -14.568  0.00  0.00    +0.051 C 
ENDBRANCH  21  22
ENDBRANCH  20  21
ENDBRANCH   3  20
BRANCH   4  25
ATOM     24  O   UNL     1      37.973 -21.240 -15.633  0.00  0.00    -0.245 OA
ATOM     25  C   UNL     1      37.489 -22.312 -15.950  0.00  0.00    +0.342 C 
BRANCH  25  26
ATOM     26  O   UNL     1      38.121 -23.494 -16.146  0.00  0.00    -0.445 OA
BRANCH  26  27
ATOM     27  C   UNL     1      39.302 -23.688 -15.360  0.00  0.00    +0.209 C 
ATOM     28  C   UNL     1      39.636 -25.164 -15.331  0.00  0.00    +0.051 C 
ENDBRANCH  26  27
ENDBRANCH  25  26
ENDBRANCH   4  25
TORSDOF 7
ENDMDL
MODEL 4
REMARK VINA RESULT:      -6.8     11.782     15.215
REMARK  Name = 51701
REMARK  7 active torsions:
REMARK  status: ('A' for Active; 'I' for Inactive)
REMARK    1  A    between atoms: C_2  and  C_13
REMARK    2  A    between atoms: C_3  and  C_20
REMARK    3  A    between atoms: C_4  and  C_25
REMARK    4  A    between atoms: C_20  and  O_21
REMARK    5  A    between atoms: O_21  and  C_22
REMARK    6  A    between atoms: C_25  and  O_26
REMARK    7  A    between atoms: O_26  and  C_27
REMARK                            x       y       z     vdW  Elec       q    Type
REMARK                         _______ _______ _______ _____ _____    ______ ____
ROOT
ATOM      1  N   UNL     1      32.761 -13.571 -20.229  0.00  0.00    -0.334 N 
ATOM      2  C   UNL     1      32.595 -13.034 -23.003  0.00  0.00    +0.013 C 
ATOM      3  C   UNL     1      32.022 -12.101 -21.930  0.00  0.00    +0.071 C 
ATOM      4  C   UNL     1      33.411 -14.191 -22.418  0.00  0.00    +0.085 C 
ATOM      5  C   UNL     1      32.111 -12.409 -20.616  0.00  0.00    +0.098 C 
ATOM      6  C   UNL     1      33.437 -14.424 -21.087  0.00  0.00    +0.028 C 
ATOM      7  C   UNL     1      31.550 -11.591 -19.485  0.00  0.00    +0.026 C 
ATOM      8  C   UNL     1      34.159 -15.560 -20.414  0.00  0.00    +0.047 C 
ATOM      9  H   UNL     1      32.741 -13.807 -19.273  0.00  0.00    +0.147 HD
ENDROOT
BRANCH   2  13
ATOM     10  O   UNL     1      33.344 -13.254 -27.374  0.00  0.00    -0.242 OA
ATOM     11  N   UNL     1      32.910 -13.449 -26.073  0.00  0.00    -0.048 NA
ATOM     12  N   UNL     1      34.228 -12.193 -27.470  0.00  0.00    -0.048 NA
ATOM     13  C   UNL     1      33.439 -12.248 -23.967  0.00  0.00    +0.023 C 
ATOM     14  C   UNL     1      33.519 -12.508 -25.340  0.00  0.00    +0.143 A 
ATOM     15  C   UNL     1      34.215 -11.175 -23.515  0.00  0.00    +0.002 C 
ATOM     16  C   UNL     1      34.356 -11.710 -26.227  0.00  0.00    +0.143 A 
ATOM     17  C   UNL     1      35.031 -10.398 -24.379  0.00  0.00    +0.002 C 
ATOM     18  C   UNL     1      35.133 -10.632 -25.762  0.00  0.00    +0.024 C 
ENDBRANCH   2  13
BRANCH   3  20
ATOM     19  O   UNL     1      30.316 -10.761 -22.887  0.00  0.00    -0.245 OA
ATOM     20  C   UNL     1      31.431 -10.839 -22.403  0.00  0.00    +0.339 C 
BRANCH  20  21
ATOM     21  O   UNL     1      32.328  -9.844 -22.199  0.00  0.00    -0.446 OA
BRANCH  21  22
ATOM     22  C   UNL     1      31.768  -8.606 -21.749  0.00  0.00    +0.209 C 
ATOM     23  C   UNL     1      32.608  -8.073 -20.607  0.00  0.00    +0.051 C 
ENDBRANCH  21  22
ENDBRANCH  20  21
ENDBRANCH   3  20
BRANCH   4  25
ATOM     24  O   UNL     1      35.403 -14.925 -23.469  0.00  0.00    -0.245 OA
ATOM     25  C   UNL     1      34.192 -14.995 -23.371  0.00  0.00    +0.342 C 
BRANCH  25  26
ATOM     26  O   UNL     1      33.337 -15.781 -24.070  0.00  0.00    -0.445 OA
BRANCH  26  27
ATOM     27  C   UNL     1      33.908 -16.438 -25.206  0.00  0.00    +0.209 C 
ATOM     28  C   UNL     1      34.401 -17.807 -24.788  0.00  0.00    +0.051 C 
ENDBRANCH  26  27
ENDBRANCH  25  26
ENDBRANCH   4  25
TORSDOF 7
ENDMDL
MODEL 5
REMARK VINA RESULT:      -6.8     15.126     17.949
REMARK  Name = 51701
REMARK  7 active torsions:
REMARK  status: ('A' for Active; 'I' for Inactive)
REMARK    1  A    between atoms: C_2  and  C_13
REMARK    2  A    between atoms: C_3  and  C_20
REMARK    3  A    between atoms: C_4  and  C_25
REMARK    4  A    between atoms: C_20  and  O_21
REMARK    5  A    between atoms: O_21  and  C_22
REMARK    6  A    between atoms: C_25  and  O_26
REMARK    7  A    between atoms: O_26  and  C_27
REMARK                            x       y       z     vdW  Elec       q    Type
REMARK                         _______ _______ _______ _____ _____    ______ ____
ROOT
ATOM      1  N   UNL     1      34.232 -11.275 -24.102  0.00  0.00    -0.334 N 
ATOM      2  C   UNL     1      32.491  -9.139 -23.455  0.00  0.00    +0.013 C 
ATOM      3  C   UNL     1      32.254 -10.584 -23.001  0.00  0.00    +0.071 C 
ATOM      4  C   UNL     1      33.844  -8.942 -24.144  0.00  0.00    +0.085 C 
ATOM      5  C   UNL     1      33.106 -11.575 -23.349  0.00  0.00    +0.098 C 
ATOM      6  C   UNL     1      34.629  -9.997 -24.459  0.00  0.00    +0.028 C 
ATOM      7  C   UNL     1      32.950 -13.029 -22.996  0.00  0.00    +0.026 C 
ATOM      8  C   UNL     1      35.948  -9.920 -25.180  0.00  0.00    +0.047 C 
ATOM      9  H   UNL     1      34.790 -12.028 -24.406  0.00  0.00    +0.147 HD
ENDROOT
BRANCH   2  13
ATOM     10  O   UNL     1      30.135  -5.468 -22.627  0.00  0.00    -0.242 OA
ATOM     11  N   UNL     1      30.712  -6.599 -23.182  0.00  0.00    -0.048 NA
ATOM     12  N   UNL     1      30.595  -5.233 -21.342  0.00  0.00    -0.048 NA
ATOM     13  C   UNL     1      32.372  -8.208 -22.282  0.00  0.00    +0.023 C 
ATOM     14  C   UNL     1      31.540  -7.083 -22.248  0.00  0.00    +0.143 A 
ATOM     15  C   UNL     1      33.120  -8.435 -21.121  0.00  0.00    +0.002 C 
ATOM     16  C   UNL     1      31.467  -6.215 -21.079  0.00  0.00    +0.143 A 
ATOM     17  C   UNL     1      33.048  -7.589 -19.983  0.00  0.00    +0.002 C 
ATOM     18  C   UNL     1      32.223  -6.452 -19.916  0.00  0.00    +0.024 C 
ENDBRANCH   2  13
BRANCH   3  20
ATOM     19  O   UNL     1      29.942 -10.655 -22.482  0.00  0.00    -0.245 OA
ATOM     20  C   UNL     1      31.095 -10.818 -22.125  0.00  0.00    +0.339 C 
BRANCH  20  21
ATOM     21  O   UNL     1      31.548 -11.225 -20.915  0.00  0.00    -0.446 OA
BRANCH  21  22
ATOM     22  C   UNL     1      30.742 -10.830 -19.801  0.00  0.00    +0.209 C 
ATOM     23  C   UNL     1      31.617 -10.731 -18.569  0.00  0.00    +0.051 C 
ENDBRANCH  21  22
ENDBRANCH  20  21
ENDBRANCH   3  20
BRANCH   4  25
ATOM     24  O   UNL     1      35.197  -7.021 -23.835  0.00  0.00    -0.245 OA
ATOM     25  C   UNL     1      34.258  -7.553 -24.399  0.00  0.00    +0.342 C 
BRANCH  25  26
ATOM     26  O   UNL     1      33.431  -7.024 -25.333  0.00  0.00    -0.445 OA
BRANCH  26  27
ATOM     27  C   UNL     1      33.775  -5.705 -25.772  0.00  0.00    +0.209 C 
ATOM     28  C   UNL     1      32.544  -4.827 -25.702  0.00  0.00    +0.051 C 
ENDBRANCH  26  27
ENDBRANCH  25  26
ENDBRANCH   4  25
TORSDOF 7
ENDMDL
MODEL 6
REMARK VINA RESULT:      -6.6      1.688      2.952
REMARK  Name = 51701
REMARK  7 active torsions:
REMARK  status: ('A' for Active; 'I' for Inactive)
REMARK    1  A    between atoms: C_2  and  C_13
REMARK    2  A    between atoms: C_3  and  C_20
REMARK    3  A    between atoms: C_4  and  C_25
REMARK    4  A    between atoms: C_20  and  O_21
REMARK    5  A    between atoms: O_21  and  C_22
REMARK    6  A    between atoms: C_25  and  O_26
REMARK    7  A    between atoms: O_26  and  C_27
REMARK                            x       y       z     vdW  Elec       q    Type
REMARK                         _______ _______ _______ _____ _____    ______ ____
ROOT
ATOM      1  N   UNL     1      32.347 -23.090 -16.693  0.00  0.00    -0.334 N 
ATOM      2  C   UNL     1      34.720 -23.230 -15.157  0.00  0.00    +0.013 C 
ATOM      3  C   UNL     1      33.363 -23.739 -14.657  0.00  0.00    +0.071 C 
ATOM      4  C   UNL     1      34.694 -22.799 -16.626  0.00  0.00    +0.085 C 
ATOM      5  C   UNL     1      32.252 -23.636 -15.422  0.00  0.00    +0.098 C 
ATOM      6  C   UNL     1      33.531 -22.720 -17.311  0.00  0.00    +0.028 C 
ATOM      7  C   UNL     1      30.867 -24.062 -15.017  0.00  0.00    +0.026 C 
ATOM      8  C   UNL     1      33.386 -22.259 -18.736  0.00  0.00    +0.047 C 
ATOM      9  H   UNL     1      31.510 -22.956 -17.194  0.00  0.00    +0.147 HD
ENDROOT
BRANCH   2  13
ATOM     10  O   UNL     1      38.582 -23.388 -12.972  0.00  0.00    -0.242 OA
ATOM     11  N   UNL     1      37.371 -23.024 -13.537  0.00  0.00    -0.048 NA
ATOM     12  N   UNL     1      38.920 -24.696 -13.277  0.00  0.00    -0.048 NA
ATOM     13  C   UNL     1      35.770 -24.285 -14.951  0.00  0.00    +0.023 C 
ATOM     14  C   UNL     1      36.937 -24.102 -14.201  0.00  0.00    +0.143 A 
ATOM     15  C   UNL     1      35.619 -25.554 -15.524  0.00  0.00    +0.002 C 
ATOM     16  C   UNL     1      37.921 -25.165 -14.037  0.00  0.00    +0.143 A 
ATOM     17  C   UNL     1      36.578 -26.588 -15.363  0.00  0.00    +0.002 C 
ATOM     18  C   UNL     1      37.761 -26.437 -14.617  0.00  0.00    +0.024 C 
ENDBRANCH   2  13
BRANCH   3  20
ATOM     19  O   UNL     1      32.631 -25.339 -13.067  0.00  0.00    -0.245 OA
ATOM     20  C   UNL     1      33.350 -24.394 -13.339  0.00  0.00    +0.339 C 
BRANCH  20  21
ATOM     21  O   UNL     1      34.247 -23.767 -12.540  0.00  0.00    -0.446 OA
BRANCH  21  22
ATOM     22  C   UNL     1      34.856 -24.595 -11.545  0.00  0.00    +0.209 C 
ATOM     23  C   UNL     1      35.850 -23.768 -10.756  0.00  0.00    +0.051 C 
ENDBRANCH  21  22
ENDBRANCH  20  21
ENDBRANCH   3  20
BRANCH   4  25
ATOM     24  O   UNL     1      37.036 -22.438 -16.630  0.00  0.00    -0.245 OA
ATOM     25  C   UNL     1      35.995 -22.523 -17.255  0.00  0.00    +0.342 C 
BRANCH  25  26
ATOM     26  O   UNL     1      35.805 -22.392 -18.591  0.00  0.00    -0.445 OA
BRANCH  26  27
ATOM     27  C   UNL     1      36.732 -21.525 -19.253  0.00  0.00    +0.209 C 
ATOM     28  C   UNL     1      35.966 -20.593 -20.168  0.00  0.00    +0.051 C 
ENDBRANCH  26  27
ENDBRANCH  25  26
ENDBRANCH   4  25
TORSDOF 7
ENDMDL
MODEL 7
REMARK VINA RESULT:      -6.5      2.410      4.618
REMARK  Name = 51701
REMARK  7 active torsions:
REMARK  status: ('A' for Active; 'I' for Inactive)
REMARK    1  A    between atoms: C_2  and  C_13
REMARK    2  A    between atoms: C_3  and  C_20
REMARK    3  A    between atoms: C_4  and  C_25
REMARK    4  A    between atoms: C_20  and  O_21
REMARK    5  A    between atoms: O_21  and  C_22
REMARK    6  A    between atoms: C_25  and  O_26
REMARK    7  A    between atoms: O_26  and  C_27
REMARK                            x       y       z     vdW  Elec       q    Type
REMARK                         _______ _______ _______ _____ _____    ______ ____
ROOT
ATOM      1  N   UNL     1      31.439 -22.854 -14.864  0.00  0.00    -0.334 N 
ATOM      2  C   UNL     1      33.881 -24.196 -15.359  0.00  0.00    +0.013 C 
ATOM      3  C   UNL     1      33.034 -23.555 -16.465  0.00  0.00    +0.071 C 
ATOM      4  C   UNL     1      33.360 -23.889 -13.952  0.00  0.00    +0.085 C 
ATOM      5  C   UNL     1      31.865 -22.938 -16.181  0.00  0.00    +0.098 C 
ATOM      6  C   UNL     1      32.173 -23.270 -13.765  0.00  0.00    +0.028 C 
ATOM      7  C   UNL     1      30.937 -22.314 -17.188  0.00  0.00    +0.026 C 
ATOM      8  C   UNL     1      31.545 -22.970 -12.431  0.00  0.00    +0.047 C 
ATOM      9  H   UNL     1      30.547 -22.470 -14.698  0.00  0.00    +0.147 HD
ENDROOT
BRANCH   2  13
ATOM     10  O   UNL     1      37.811 -26.244 -15.096  0.00  0.00    -0.242 OA
ATOM     11  N   UNL     1      36.466 -25.914 -15.117  0.00  0.00    -0.048 NA
ATOM     12  N   UNL     1      38.616 -25.142 -15.326  0.00  0.00    -0.048 NA
ATOM     13  C   UNL     1      35.310 -23.750 -15.485  0.00  0.00    +0.023 C 
ATOM     14  C   UNL     1      36.416 -24.598 -15.361  0.00  0.00    +0.143 A 
ATOM     15  C   UNL     1      35.612 -22.408 -15.746  0.00  0.00    +0.002 C 
ATOM     16  C   UNL     1      37.782 -24.107 -15.494  0.00  0.00    +0.143 A 
ATOM     17  C   UNL     1      36.943 -21.930 -15.875  0.00  0.00    +0.002 C 
ATOM     18  C   UNL     1      38.075 -22.756 -15.756  0.00  0.00    +0.024 C 
ENDBRANCH   2  13
BRANCH   3  20
ATOM     19  O   UNL     1      33.615 -24.602 -18.511  0.00  0.00    -0.245 OA
ATOM     20  C   UNL     1      33.590 -23.595 -17.827  0.00  0.00    +0.339 C 
BRANCH  20  21
ATOM     21  O   UNL     1      34.040 -22.356 -18.143  0.00  0.00    -0.446 OA
BRANCH  21  22
ATOM     22  C   UNL     1      34.085 -22.066 -19.543  0.00  0.00    +0.209 C 
ATOM     23  C   UNL     1      33.220 -20.855 -19.823  0.00  0.00    +0.051 C 
ENDBRANCH  21  22
ENDBRANCH  20  21
ENDBRANCH   3  20
BRANCH   4  25
ATOM     24  O   UNL     1      34.126 -25.304 -12.212  0.00  0.00    -0.245 OA
ATOM     25  C   UNL     1      34.237 -24.260 -12.830  0.00  0.00    +0.342 C 
BRANCH  25  26
ATOM     26  O   UNL     1      35.135 -23.263 -12.640  0.00  0.00    -0.445 OA
BRANCH  26  27
ATOM     27  C   UNL     1      36.139 -23.531 -11.655  0.00  0.00    +0.209 C 
ATOM     28  C   UNL     1      37.426 -22.849 -12.067  0.00  0.00    +0.051 C 
ENDBRANCH  26  27
ENDBRANCH  25  26
ENDBRANCH   4  25
TORSDOF 7
ENDMDL
MODEL 8
REMARK VINA RESULT:      -6.3     13.463     16.652
REMARK  Name = 51701
REMARK  7 active torsions:
REMARK  status: ('A' for Active; 'I' for Inactive)
REMARK    1  A    between atoms: C_2  and  C_13
REMARK    2  A    between atoms: C_3  and  C_20
REMARK    3  A    between atoms: C_4  and  C_25
REMARK    4  A    between atoms: C_20  and  O_21
REMARK    5  A    between atoms: O_21  and  C_22
REMARK    6  A    between atoms: C_25  and  O_26
REMARK    7  A    between atoms: O_26  and  C_27
REMARK                            x       y       z     vdW  Elec       q    Type
REMARK                         _______ _______ _______ _____ _____    ______ ____
ROOT
ATOM      1  N   UNL     1      33.330 -13.748 -22.282  0.00  0.00    -0.334 N 
ATOM      2  C   UNL     1      32.396 -11.357 -23.474  0.00  0.00    +0.013 C 
ATOM      3  C   UNL     1      32.152 -11.715 -22.004  0.00  0.00    +0.071 C 
ATOM      4  C   UNL     1      33.336 -12.338 -24.182  0.00  0.00    +0.085 C 
ATOM      5  C   UNL     1      32.605 -12.878 -21.482  0.00  0.00    +0.098 C 
ATOM      6  C   UNL     1      33.733 -13.482 -23.581  0.00  0.00    +0.028 C 
ATOM      7  C   UNL     1      32.387 -13.348 -20.070  0.00  0.00    +0.026 C 
ATOM      8  C   UNL     1      34.609 -14.536 -24.202  0.00  0.00    +0.047 C 
ATOM      9  H   UNL     1      33.578 -14.621 -21.898  0.00  0.00    +0.147 HD
ENDROOT
BRANCH   2  13
ATOM     10  O   UNL     1      30.569  -7.332 -23.891  0.00  0.00    -0.242 OA
ATOM     11  N   UNL     1      30.819  -8.689 -23.764  0.00  0.00    -0.048 NA
ATOM     12  N   UNL     1      31.740  -6.593 -23.914  0.00  0.00    -0.048 NA
ATOM     13  C   UNL     1      32.941  -9.961 -23.578  0.00  0.00    +0.023 C 
ATOM     14  C   UNL     1      32.150  -8.812 -23.705  0.00  0.00    +0.143 A 
ATOM     15  C   UNL     1      34.322  -9.736 -23.548  0.00  0.00    +0.002 C 
ATOM     16  C   UNL     1      32.736  -7.481 -23.802  0.00  0.00    +0.143 A 
ATOM     17  C   UNL     1      34.892  -8.439 -23.642  0.00  0.00    +0.002 C 
ATOM     18  C   UNL     1      34.127  -7.266 -23.771  0.00  0.00    +0.024 C 
ENDBRANCH   2  13
BRANCH   3  20
ATOM     19  O   UNL     1      30.247 -10.638 -21.091  0.00  0.00    -0.245 OA
ATOM     20  C   UNL     1      31.460 -10.706 -21.187  0.00  0.00    +0.339 C 
BRANCH  20  21
ATOM     21  O   UNL     1      32.392  -9.916 -20.600  0.00  0.00    -0.446 OA
BRANCH  21  22
ATOM     22  C   UNL     1      31.870  -8.801 -19.870  0.00  0.00    +0.209 C 
ATOM     23  C   UNL     1      32.653  -7.559 -20.243  0.00  0.00    +0.051 C 
ENDBRANCH  21  22
ENDBRANCH  20  21
ENDBRANCH   3  20
BRANCH   4  25
ATOM     24  O   UNL     1      34.871 -11.371 -25.706  0.00  0.00    -0.245 OA
ATOM     25  C   UNL     1      33.815 -11.946 -25.517  0.00  0.00    +0.342 C 
BRANCH  25  26
ATOM     26  O   UNL     1      32.895 -12.336 -26.432  0.00  0.00    -0.445 OA
BRANCH  26  27
ATOM     27  C   UNL     1      33.333 -13.357 -27.336  0.00  0.00    +0.209 C 
ATOM     28  C   UNL     1      32.688 -14.669 -26.947  0.00  0.00    +0.051 C 
ENDBRANCH  26  27
ENDBRANCH  25  26
ENDBRANCH   4  25
TORSDOF 7
ENDMDL
MODEL 9
REMARK VINA RESULT:      -6.3     11.970     15.482
REMARK  Name = 51701
REMARK  7 active torsions:
REMARK  status: ('A' for Active; 'I' for Inactive)
REMARK    1  A    between atoms: C_2  and  C_13
REMARK    2  A    between atoms: C_3  and  C_20
REMARK    3  A    between atoms: C_4  and  C_25
REMARK    4  A    between atoms: C_20  and  O_21
REMARK    5  A    between atoms: O_21  and  C_22
REMARK    6  A    between atoms: C_25  and  O_26
REMARK    7  A    between atoms: O_26  and  C_27
REMARK                            x       y       z     vdW  Elec       q    Type
REMARK                         _______ _______ _______ _____ _____    ______ ____
ROOT
ATOM      1  N   UNL     1      31.699 -13.192 -20.867  0.00  0.00    -0.334 N 
ATOM      2  C   UNL     1      33.598 -12.554 -22.867  0.00  0.00    +0.013 C 
ATOM      3  C   UNL     1      33.457 -13.953 -22.257  0.00  0.00    +0.071 C 
ATOM      4  C   UNL     1      32.502 -11.587 -22.409  0.00  0.00    +0.085 C 
ATOM      5  C   UNL     1      32.544 -14.207 -21.291  0.00  0.00    +0.098 C 
ATOM      6  C   UNL     1      31.634 -11.928 -21.430  0.00  0.00    +0.028 C 
ATOM      7  C   UNL     1      32.348 -15.527 -20.597  0.00  0.00    +0.026 C 
ATOM      8  C   UNL     1      30.557 -11.038 -20.870  0.00  0.00    +0.047 C 
ATOM      9  H   UNL     1      31.101 -13.385 -20.109  0.00  0.00    +0.147 HD
ENDROOT
BRANCH   2  13
ATOM     10  O   UNL     1      35.700 -10.361 -26.105  0.00  0.00    -0.242 OA
ATOM     11  N   UNL     1      35.216 -10.835 -24.897  0.00  0.00    -0.048 NA
ATOM     12  N   UNL     1      35.164 -11.051 -27.180  0.00  0.00    -0.048 NA
ATOM     13  C   UNL     1      33.606 -12.647 -24.366  0.00  0.00    +0.023 C 
ATOM     14  C   UNL     1      34.371 -11.827 -25.204  0.00  0.00    +0.143 A 
ATOM     15  C   UNL     1      32.817 -13.600 -25.020  0.00  0.00    +0.002 C 
ATOM     16  C   UNL     1      34.338 -11.964 -26.655  0.00  0.00    +0.143 A 
ATOM     17  C   UNL     1      32.785 -13.733 -26.433  0.00  0.00    +0.002 C 
ATOM     18  C   UNL     1      33.541 -12.926 -27.303  0.00  0.00    +0.024 C 
ENDBRANCH   2  13
BRANCH   3  20
ATOM     19  O   UNL     1      35.517 -15.070 -22.619  0.00  0.00    -0.245 OA
ATOM     20  C   UNL     1      34.317 -15.007 -22.819  0.00  0.00    +0.339 C 
BRANCH  20  21
ATOM     21  O   UNL     1      33.546 -15.840 -23.560  0.00  0.00    -0.446 OA
BRANCH  21  22
ATOM     22  C   UNL     1      34.189 -17.047 -23.981  0.00  0.00    +0.209 C 
ATOM     23  C   UNL     1      34.623 -16.896 -25.424  0.00  0.00    +0.051 C 
ENDBRANCH  21  22
ENDBRANCH  20  21
ENDBRANCH   3  20
BRANCH   4  25
ATOM     24  O   UNL     1      31.658 -10.100 -24.050  0.00  0.00    -0.245 OA
ATOM     25  C   UNL     1      32.418 -10.302 -23.120  0.00  0.00    +0.342 C 
BRANCH  25  26
ATOM     26  O   UNL     1      33.304  -9.444 -22.558  0.00  0.00    -0.445 OA
BRANCH  26  27
ATOM     27  C   UNL     1      33.282  -8.115 -23.092  0.00  0.00    +0.209 C 
ATOM     28  C   UNL     1      34.700  -7.690 -23.411  0.00  0.00    +0.051 C 
ENDBRANCH  26  27
ENDBRANCH  25  26
ENDBRANCH   4  25
TORSDOF 7
ENDMDL
