MODEL 1
REMARK VINA RESULT:      -6.1      0.000      0.000
REMARK  Name = 123831
REMARK  8 active torsions:
REMARK  status: ('A' for Active; 'I' for Inactive)
REMARK    1  A    between atoms: C_1  and  C_2
REMARK    2  A    between atoms: C_1  and  C_12
REMARK    3  A    between atoms: C_2  and  C_3
REMARK    4  A    between atoms: C_3  and  N_4
REMARK    5  A    between atoms: N_4  and  C_7
REMARK    6  A    between atoms: C_12  and  N_13
REMARK    7  A    between atoms: C_12  and  C_18
REMARK    8  A    between atoms: C_18  and  O_19
REMARK                            x       y       z     vdW  Elec       q    Type
REMARK                         _______ _______ _______ _____ _____    ______ ____
ROOT
ATOM      1  C   UNK     1      38.410 -25.718 -12.970  0.00  0.00    -0.009 C 
ENDROOT
BRANCH   1   2
ATOM      2  C   UNK     1      38.192 -24.506 -12.052  0.00  0.00    +0.025 C 
BRANCH   2   3
ATOM      3  C   UNK     1      36.715 -24.170 -11.873  0.00  0.00    +0.129 C 
BRANCH   3   4
ATOM      4  N   UNK     1      36.271 -23.284 -12.948  0.00  0.00    -0.240 NA
BRANCH   4   7
ATOM      5  N   UNK     1      35.275 -23.286 -15.078  0.00  0.00    -0.317 N 
ATOM      6  N   UNK     1      34.315 -24.578 -13.363  0.00  0.00    -0.370 N 
ATOM      7  C   UNK     1      35.326 -23.710 -13.737  0.00  0.00    +0.195 C 
ATOM      8  C   UNK     1      34.248 -23.718 -16.024  0.00  0.00    +0.128 C 
ATOM      9  C   UNK     1      36.347 -22.467 -15.642  0.00  0.00    +0.128 C 
ATOM     10  H   UNK     1      34.277 -24.922 -12.442  0.00  0.00    +0.159 HD
ATOM     11  H   UNK     1      33.634 -24.852 -14.019  0.00  0.00    +0.159 HD
ENDBRANCH   4   7
ENDBRANCH   3   4
ENDBRANCH   2   3
ENDBRANCH   1   2
BRANCH   1  12
ATOM     12  C   UNK     1      38.892 -25.307 -14.369  0.00  0.00    +0.036 C 
BRANCH  12  13
ATOM     13  N   UNK     1      37.930 -25.748 -15.376  0.00  0.00    +0.389 N 
ATOM     14  H   UNK     1      37.886 -25.060 -16.129  0.00  0.00    -0.088 HD
ATOM     15  H   UNK     1      37.009 -25.842 -14.949  0.00  0.00    -0.088 HD
ATOM     16  H   UNK     1      38.223 -26.648 -15.755  0.00  0.00    -0.088 HD
ENDBRANCH  12  13
BRANCH  12  18
ATOM     17  O   UNK     1      40.978 -26.495 -13.948  0.00  0.00    -0.253 OA
ATOM     18  C   UNK     1      40.211 -25.961 -14.739  0.00  0.00    +0.293 C 
BRANCH  18  19
ATOM     19  O   UNK     1      40.449 -25.914 -16.077  0.00  0.00    -0.482 OA
ATOM     20  H   UNK     1      40.565 -26.708 -16.559  0.00  0.00    +0.295 HD
ENDBRANCH  18  19
ENDBRANCH  12  18
ENDBRANCH   1  12
TORSDOF 8
ENDMDL
MODEL 2
REMARK VINA RESULT:      -6.1      3.439      4.599
REMARK  Name = 123831
REMARK  8 active torsions:
REMARK  status: ('A' for Active; 'I' for Inactive)
REMARK    1  A    between atoms: C_1  and  C_2
REMARK    2  A    between atoms: C_1  and  C_12
REMARK    3  A    between atoms: C_2  and  C_3
REMARK    4  A    between atoms: C_3  and  N_4
REMARK    5  A    between atoms: N_4  and  C_7
REMARK    6  A    between atoms: C_12  and  N_13
REMARK    7  A    between atoms: C_12  and  C_18
REMARK    8  A    between atoms: C_18  and  O_19
REMARK                            x       y       z     vdW  Elec       q    Type
REMARK                         _______ _______ _______ _____ _____    ______ ____
ROOT
ATOM      1  C   UNK     1      35.427 -24.622 -14.982  0.00  0.00    -0.009 C 
ENDROOT
BRANCH   1   2
ATOM      2  C   UNK     1      35.461 -23.293 -15.751  0.00  0.00    +0.025 C 
BRANCH   2   3
ATOM      3  C   UNK     1      34.313 -23.168 -16.747  0.00  0.00    +0.129 C 
BRANCH   3   4
ATOM      4  N   UNK     1      34.829 -22.767 -18.055  0.00  0.00    -0.240 NA
BRANCH   4   7
ATOM      5  N   UNK     1      34.621 -21.093 -19.694  0.00  0.00    -0.317 N 
ATOM      6  N   UNK     1      32.679 -22.115 -18.847  0.00  0.00    -0.370 N 
ATOM      7  C   UNK     1      34.061 -22.042 -18.818  0.00  0.00    +0.195 C 
ATOM      8  C   UNK     1      33.828 -20.243 -20.579  0.00  0.00    +0.128 C 
ATOM      9  C   UNK     1      36.071 -20.994 -19.856  0.00  0.00    +0.128 C 
ATOM     10  H   UNK     1      32.208 -22.754 -18.265  0.00  0.00    +0.159 HD
ATOM     11  H   UNK     1      32.168 -21.530 -19.451  0.00  0.00    +0.159 HD
ENDBRANCH   4   7
ENDBRANCH   3   4
ENDBRANCH   2   3
ENDBRANCH   1   2
BRANCH   1  12
ATOM     12  C   UNK     1      36.836 -25.149 -14.671  0.00  0.00    +0.036 C 
BRANCH  12  13
ATOM     13  N   UNK     1      37.836 -24.315 -15.333  0.00  0.00    +0.389 N 
ATOM     14  H   UNK     1      38.663 -24.876 -15.541  0.00  0.00    -0.088 HD
ATOM     15  H   UNK     1      38.096 -23.543 -14.720  0.00  0.00    -0.088 HD
ATOM     16  H   UNK     1      37.450 -23.945 -16.201  0.00  0.00    -0.088 HD
ENDBRANCH  12  13
BRANCH  12  18
ATOM     17  O   UNK     1      36.340 -27.120 -16.015  0.00  0.00    -0.253 OA
ATOM     18  C   UNK     1      37.053 -26.556 -15.196  0.00  0.00    +0.293 C 
BRANCH  18  19
ATOM     19  O   UNK     1      38.166 -27.134 -14.668  0.00  0.00    -0.482 OA
ATOM     20  H   UNK     1      38.813 -27.504 -15.234  0.00  0.00    +0.295 HD
ENDBRANCH  18  19
ENDBRANCH  12  18
ENDBRANCH   1  12
TORSDOF 8
ENDMDL
MODEL 3
REMARK VINA RESULT:      -6.0      7.727      9.803
REMARK  Name = 123831
REMARK  8 active torsions:
REMARK  status: ('A' for Active; 'I' for Inactive)
REMARK    1  A    between atoms: C_1  and  C_2
REMARK    2  A    between atoms: C_1  and  C_12
REMARK    3  A    between atoms: C_2  and  C_3
REMARK    4  A    between atoms: C_3  and  N_4
REMARK    5  A    between atoms: N_4  and  C_7
REMARK    6  A    between atoms: C_12  and  N_13
REMARK    7  A    between atoms: C_12  and  C_18
REMARK    8  A    between atoms: C_18  and  O_19
REMARK                            x       y       z     vdW  Elec       q    Type
REMARK                         _______ _______ _______ _____ _____    ______ ____
ROOT
ATOM      1  C   UNK     1      35.081 -20.930 -19.889  0.00  0.00    -0.009 C 
ENDROOT
BRANCH   1   2
ATOM      2  C   UNK     1      35.126 -20.070 -21.160  0.00  0.00    +0.025 C 
BRANCH   2   3
ATOM      3  C   UNK     1      36.100 -18.902 -21.039  0.00  0.00    +0.129 C 
BRANCH   3   4
ATOM      4  N   UNK     1      35.360 -17.646 -20.921  0.00  0.00    -0.240 NA
BRANCH   4   7
ATOM      5  N   UNK     1      34.623 -15.645 -21.912  0.00  0.00    -0.317 N 
ATOM      6  N   UNK     1      35.698 -17.255 -23.246  0.00  0.00    -0.370 N 
ATOM      7  C   UNK     1      35.246 -16.905 -21.986  0.00  0.00    +0.195 C 
ATOM      8  C   UNK     1      34.456 -14.756 -23.059  0.00  0.00    +0.128 C 
ATOM      9  C   UNK     1      34.208 -15.095 -20.622  0.00  0.00    +0.128 C 
ATOM     10  H   UNK     1      36.146 -18.120 -23.385  0.00  0.00    +0.159 HD
ATOM     11  H   UNK     1      35.572 -16.639 -24.004  0.00  0.00    +0.159 HD
ENDBRANCH   4   7
ENDBRANCH   3   4
ENDBRANCH   2   3
ENDBRANCH   1   2
BRANCH   1  12
ATOM     12  C   UNK     1      33.732 -21.644 -19.718  0.00  0.00    +0.036 C 
BRANCH  12  13
ATOM     13  N   UNK     1      32.658 -20.660 -19.613  0.00  0.00    +0.389 N 
ATOM     14  H   UNK     1      33.053 -19.751 -19.370  0.00  0.00    -0.088 HD
ATOM     15  H   UNK     1      32.001 -20.949 -18.890  0.00  0.00    -0.088 HD
ATOM     16  H   UNK     1      32.172 -20.591 -20.507  0.00  0.00    -0.088 HD
ENDBRANCH  12  13
BRANCH  12  18
ATOM     17  O   UNK     1      34.644 -22.895 -17.835  0.00  0.00    -0.253 OA
ATOM     18  C   UNK     1      33.672 -22.465 -18.443  0.00  0.00    +0.293 C 
BRANCH  18  19
ATOM     19  O   UNK     1      32.395 -22.658 -18.017  0.00  0.00    -0.482 OA
ATOM     20  H   UNK     1      32.188 -23.395 -17.479  0.00  0.00    +0.295 HD
ENDBRANCH  18  19
ENDBRANCH  12  18
ENDBRANCH   1  12
TORSDOF 8
ENDMDL
MODEL 4
REMARK VINA RESULT:      -6.0      1.788      2.620
REMARK  Name = 123831
REMARK  8 active torsions:
REMARK  status: ('A' for Active; 'I' for Inactive)
REMARK    1  A    between atoms: C_1  and  C_2
REMARK    2  A    between atoms: C_1  and  C_12
REMARK    3  A    between atoms: C_2  and  C_3
REMARK    4  A    between atoms: C_3  and  N_4
REMARK    5  A    between atoms: N_4  and  C_7
REMARK    6  A    between atoms: C_12  and  N_13
REMARK    7  A    between atoms: C_12  and  C_18
REMARK    8  A    between atoms: C_18  and  O_19
REMARK                            x       y       z     vdW  Elec       q    Type
REMARK                         _______ _______ _______ _____ _____    ______ ____
ROOT
ATOM      1  C   UNK     1      37.776 -24.217 -14.443  0.00  0.00    -0.009 C 
ENDROOT
BRANCH   1   2
ATOM      2  C   UNK     1      37.718 -23.221 -15.610  0.00  0.00    +0.025 C 
BRANCH   2   3
ATOM      3  C   UNK     1      36.351 -22.558 -15.742  0.00  0.00    +0.129 C 
BRANCH   3   4
ATOM      4  N   UNK     1      35.436 -23.442 -16.466  0.00  0.00    -0.240 NA
BRANCH   4   7
ATOM      5  N   UNK     1      33.126 -23.167 -16.809  0.00  0.00    -0.317 N 
ATOM      6  N   UNK     1      33.882 -24.054 -14.767  0.00  0.00    -0.370 N 
ATOM      7  C   UNK     1      34.219 -23.560 -16.015  0.00  0.00    +0.195 C 
ATOM      8  C   UNK     1      31.734 -23.267 -16.376  0.00  0.00    +0.128 C 
ATOM      9  C   UNK     1      33.326 -22.741 -18.194  0.00  0.00    +0.128 C 
ATOM     10  H   UNK     1      34.588 -24.352 -14.149  0.00  0.00    +0.159 HD
ATOM     11  H   UNK     1      32.937 -24.110 -14.498  0.00  0.00    +0.159 HD
ENDBRANCH   4   7
ENDBRANCH   3   4
ENDBRANCH   2   3
ENDBRANCH   1   2
BRANCH   1  12
ATOM     12  C   UNK     1      38.470 -25.530 -14.833  0.00  0.00    +0.036 C 
BRANCH  12  13
ATOM     13  N   UNK     1      38.252 -26.535 -13.797  0.00  0.00    +0.389 N 
ATOM     14  H   UNK     1      37.390 -26.323 -13.293  0.00  0.00    -0.088 HD
ATOM     15  H   UNK     1      39.036 -26.528 -13.145  0.00  0.00    -0.088 HD
ATOM     16  H   UNK     1      38.176 -27.456 -14.227  0.00  0.00    -0.088 HD
ENDBRANCH  12  13
BRANCH  12  18
ATOM     17  O   UNK     1      40.690 -24.805 -14.137  0.00  0.00    -0.253 OA
ATOM     18  C   UNK     1      39.975 -25.372 -14.952  0.00  0.00    +0.293 C 
BRANCH  18  19
ATOM     19  O   UNK     1      40.465 -25.964 -16.075  0.00  0.00    -0.482 OA
ATOM     20  H   UNK     1      41.389 -25.987 -16.226  0.00  0.00    +0.295 HD
ENDBRANCH  18  19
ENDBRANCH  12  18
ENDBRANCH   1  12
TORSDOF 8
ENDMDL
MODEL 5
REMARK VINA RESULT:      -5.9      3.170      3.925
REMARK  Name = 123831
REMARK  8 active torsions:
REMARK  status: ('A' for Active; 'I' for Inactive)
REMARK    1  A    between atoms: C_1  and  C_2
REMARK    2  A    between atoms: C_1  and  C_12
REMARK    3  A    between atoms: C_2  and  C_3
REMARK    4  A    between atoms: C_3  and  N_4
REMARK    5  A    between atoms: N_4  and  C_7
REMARK    6  A    between atoms: C_12  and  N_13
REMARK    7  A    between atoms: C_12  and  C_18
REMARK    8  A    between atoms: C_18  and  O_19
REMARK                            x       y       z     vdW  Elec       q    Type
REMARK                         _______ _______ _______ _____ _____    ______ ____
ROOT
ATOM      1  C   UNK     1      37.321 -25.569 -12.906  0.00  0.00    -0.009 C 
ENDROOT
BRANCH   1   2
ATOM      2  C   UNK     1      37.404 -25.386 -14.429  0.00  0.00    +0.025 C 
BRANCH   2   3
ATOM      3  C   UNK     1      36.092 -25.725 -15.128  0.00  0.00    +0.129 C 
BRANCH   3   4
ATOM      4  N   UNK     1      35.438 -24.499 -15.584  0.00  0.00    -0.240 NA
BRANCH   4   7
ATOM      5  N   UNK     1      33.331 -23.535 -15.987  0.00  0.00    -0.317 N 
ATOM      6  N   UNK     1      33.690 -24.706 -13.979  0.00  0.00    -0.370 N 
ATOM      7  C   UNK     1      34.219 -24.273 -15.182  0.00  0.00    +0.195 C 
ATOM      8  C   UNK     1      31.951 -23.240 -15.608  0.00  0.00    +0.128 C 
ATOM      9  C   UNK     1      33.717 -23.121 -17.335  0.00  0.00    +0.128 C 
ATOM     10  H   UNK     1      34.245 -25.230 -13.357  0.00  0.00    +0.159 HD
ATOM     11  H   UNK     1      32.757 -24.493 -13.746  0.00  0.00    +0.159 HD
ENDBRANCH   4   7
ENDBRANCH   3   4
ENDBRANCH   2   3
ENDBRANCH   1   2
BRANCH   1  12
ATOM     12  C   UNK     1      37.019 -24.250 -12.178  0.00  0.00    +0.036 C 
BRANCH  12  13
ATOM     13  N   UNK     1      38.237 -23.733 -11.560  0.00  0.00    +0.389 N 
ATOM     14  H   UNK     1      38.003 -22.942 -10.958  0.00  0.00    -0.088 HD
ATOM     15  H   UNK     1      38.883 -23.426 -12.286  0.00  0.00    -0.088 HD
ATOM     16  H   UNK     1      38.674 -24.467 -11.003  0.00  0.00    -0.088 HD
ENDBRANCH  12  13
BRANCH  12  18
ATOM     17  O   UNK     1      36.186 -24.050  -9.897  0.00  0.00    -0.253 OA
ATOM     18  C   UNK     1      36.022 -24.432 -11.048  0.00  0.00    +0.293 C 
BRANCH  18  19
ATOM     19  O   UNK     1      34.887 -25.057 -11.461  0.00  0.00    -0.482 OA
ATOM     20  H   UNK     1      34.887 -25.985 -11.594  0.00  0.00    +0.295 HD
ENDBRANCH  18  19
ENDBRANCH  12  18
ENDBRANCH   1  12
TORSDOF 8
ENDMDL
MODEL 6
REMARK VINA RESULT:      -5.9      5.980      8.049
REMARK  Name = 123831
REMARK  8 active torsions:
REMARK  status: ('A' for Active; 'I' for Inactive)
REMARK    1  A    between atoms: C_1  and  C_2
REMARK    2  A    between atoms: C_1  and  C_12
REMARK    3  A    between atoms: C_2  and  C_3
REMARK    4  A    between atoms: C_3  and  N_4
REMARK    5  A    between atoms: N_4  and  C_7
REMARK    6  A    between atoms: C_12  and  N_13
REMARK    7  A    between atoms: C_12  and  C_18
REMARK    8  A    between atoms: C_18  and  O_19
REMARK                            x       y       z     vdW  Elec       q    Type
REMARK                         _______ _______ _______ _____ _____    ______ ____
ROOT
ATOM      1  C   UNK     1      29.617 -23.803 -14.955  0.00  0.00    -0.009 C 
ENDROOT
BRANCH   1   2
ATOM      2  C   UNK     1      30.245 -25.158 -14.596  0.00  0.00    +0.025 C 
BRANCH   2   3
ATOM      3  C   UNK     1      31.549 -25.008 -13.820  0.00  0.00    +0.129 C 
BRANCH   3   4
ATOM      4  N   UNK     1      32.454 -24.109 -14.535  0.00  0.00    -0.240 NA
BRANCH   4   7
ATOM      5  N   UNK     1      34.658 -23.883 -15.323  0.00  0.00    -0.317 N 
ATOM      6  N   UNK     1      34.297 -24.717 -13.154  0.00  0.00    -0.370 N 
ATOM      7  C   UNK     1      33.733 -24.238 -14.323  0.00  0.00    +0.195 C 
ATOM      8  C   UNK     1      36.106 -23.998 -15.163  0.00  0.00    +0.128 C 
ATOM      9  C   UNK     1      34.209 -23.248 -16.561  0.00  0.00    +0.128 C 
ATOM     10  H   UNK     1      33.720 -24.988 -12.404  0.00  0.00    +0.159 HD
ATOM     11  H   UNK     1      35.276 -24.787 -13.072  0.00  0.00    +0.159 HD
ENDBRANCH   4   7
ENDBRANCH   3   4
ENDBRANCH   2   3
ENDBRANCH   1   2
BRANCH   1  12
ATOM     12  C   UNK     1      29.583 -23.563 -16.472  0.00  0.00    +0.036 C 
BRANCH  12  13
ATOM     13  N   UNK     1      30.650 -22.642 -16.853  0.00  0.00    +0.389 N 
ATOM     14  H   UNK     1      31.440 -22.753 -16.216  0.00  0.00    -0.088 HD
ATOM     15  H   UNK     1      30.307 -21.683 -16.804  0.00  0.00    -0.088 HD
ATOM     16  H   UNK     1      30.952 -22.847 -17.806  0.00  0.00    -0.088 HD
ENDBRANCH  12  13
BRANCH  12  18
ATOM     17  O   UNK     1      27.952 -21.763 -16.667  0.00  0.00    -0.253 OA
ATOM     18  C   UNK     1      28.288 -22.911 -16.922  0.00  0.00    +0.293 C 
BRANCH  18  19
ATOM     19  O   UNK     1      27.531 -23.748 -17.682  0.00  0.00    -0.482 OA
ATOM     20  H   UNK     1      26.718 -24.074 -17.349  0.00  0.00    +0.295 HD
ENDBRANCH  18  19
ENDBRANCH  12  18
ENDBRANCH   1  12
TORSDOF 8
ENDMDL
MODEL 7
REMARK VINA RESULT:      -5.9      2.670      3.634
REMARK  Name = 123831
REMARK  8 active torsions:
REMARK  status: ('A' for Active; 'I' for Inactive)
REMARK    1  A    between atoms: C_1  and  C_2
REMARK    2  A    between atoms: C_1  and  C_12
REMARK    3  A    between atoms: C_2  and  C_3
REMARK    4  A    between atoms: C_3  and  N_4
REMARK    5  A    between atoms: N_4  and  C_7
REMARK    6  A    between atoms: C_12  and  N_13
REMARK    7  A    between atoms: C_12  and  C_18
REMARK    8  A    between atoms: C_18  and  O_19
REMARK                            x       y       z     vdW  Elec       q    Type
REMARK                         _______ _______ _______ _____ _____    ______ ____
ROOT
ATOM      1  C   UNK     1      36.962 -24.191 -15.058  0.00  0.00    -0.009 C 
ENDROOT
BRANCH   1   2
ATOM      2  C   UNK     1      35.893 -23.112 -15.281  0.00  0.00    +0.025 C 
BRANCH   2   3
ATOM      3  C   UNK     1      34.586 -23.688 -15.816  0.00  0.00    +0.129 C 
BRANCH   3   4
ATOM      4  N   UNK     1      33.463 -23.212 -15.008  0.00  0.00    -0.240 NA
BRANCH   4   7
ATOM      5  N   UNK     1      31.270 -24.052 -15.136  0.00  0.00    -0.317 N 
ATOM      6  N   UNK     1      32.813 -25.093 -13.700  0.00  0.00    -0.370 N 
ATOM      7  C   UNK     1      32.579 -24.087 -14.620  0.00  0.00    +0.195 C 
ATOM      8  C   UNK     1      30.223 -24.995 -14.751  0.00  0.00    +0.128 C 
ATOM      9  C   UNK     1      30.917 -23.119 -16.206  0.00  0.00    +0.128 C 
ATOM     10  H   UNK     1      33.703 -25.188 -13.290  0.00  0.00    +0.159 HD
ATOM     11  H   UNK     1      32.090 -25.716 -13.456  0.00  0.00    +0.159 HD
ENDBRANCH   4   7
ENDBRANCH   3   4
ENDBRANCH   2   3
ENDBRANCH   1   2
BRANCH   1  12
ATOM     12  C   UNK     1      36.349 -25.544 -14.670  0.00  0.00    +0.036 C 
BRANCH  12  13
ATOM     13  N   UNK     1      36.307 -25.672 -13.216  0.00  0.00    +0.389 N 
ATOM     14  H   UNK     1      36.632 -26.602 -12.946  0.00  0.00    -0.088 HD
ATOM     15  H   UNK     1      35.350 -25.541 -12.890  0.00  0.00    -0.088 HD
ATOM     16  H   UNK     1      36.910 -24.966 -12.794  0.00  0.00    -0.088 HD
ENDBRANCH  12  13
BRANCH  12  18
ATOM     17  O   UNK     1      38.144 -27.191 -14.587  0.00  0.00    -0.253 OA
ATOM     18  C   UNK     1      37.177 -26.715 -15.167  0.00  0.00    +0.293 C 
BRANCH  18  19
ATOM     19  O   UNK     1      36.707 -27.212 -16.343  0.00  0.00    -0.482 OA
ATOM     20  H   UNK     1      37.296 -27.621 -16.946  0.00  0.00    +0.295 HD
ENDBRANCH  18  19
ENDBRANCH  12  18
ENDBRANCH   1  12
TORSDOF 8
ENDMDL
MODEL 8
REMARK VINA RESULT:      -5.8     11.249     13.491
REMARK  Name = 123831
REMARK  8 active torsions:
REMARK  status: ('A' for Active; 'I' for Inactive)
REMARK    1  A    between atoms: C_1  and  C_2
REMARK    2  A    between atoms: C_1  and  C_12
REMARK    3  A    between atoms: C_2  and  C_3
REMARK    4  A    between atoms: C_3  and  N_4
REMARK    5  A    between atoms: N_4  and  C_7
REMARK    6  A    between atoms: C_12  and  N_13
REMARK    7  A    between atoms: C_12  and  C_18
REMARK    8  A    between atoms: C_18  and  O_19
REMARK                            x       y       z     vdW  Elec       q    Type
REMARK                         _______ _______ _______ _____ _____    ______ ____
ROOT
ATOM      1  C   UNK     1      32.436 -14.775 -21.707  0.00  0.00    -0.009 C 
ENDROOT
BRANCH   1   2
ATOM      2  C   UNK     1      33.226 -15.172 -20.451  0.00  0.00    +0.025 C 
BRANCH   2   3
ATOM      3  C   UNK     1      34.699 -15.432 -20.748  0.00  0.00    +0.129 C 
BRANCH   3   4
ATOM      4  N   UNK     1      34.917 -16.860 -20.977  0.00  0.00    -0.240 NA
BRANCH   4   7
ATOM      5  N   UNK     1      34.743 -18.594 -22.557  0.00  0.00    -0.317 N 
ATOM      6  N   UNK     1      35.497 -16.479 -23.256  0.00  0.00    -0.370 N 
ATOM      7  C   UNK     1      35.053 -17.266 -22.208  0.00  0.00    +0.195 C 
ATOM      8  C   UNK     1      34.869 -19.124 -23.913  0.00  0.00    +0.128 C 
ATOM      9  C   UNK     1      34.148 -19.501 -21.577  0.00  0.00    +0.128 C 
ATOM     10  H   UNK     1      35.735 -15.536 -23.097  0.00  0.00    +0.159 HD
ATOM     11  H   UNK     1      35.574 -16.860 -24.160  0.00  0.00    +0.159 HD
ENDBRANCH   4   7
ENDBRANCH   3   4
ENDBRANCH   2   3
ENDBRANCH   1   2
BRANCH   1  12
ATOM     12  C   UNK     1      32.847 -13.394 -22.238  0.00  0.00    +0.036 C 
BRANCH  12  13
ATOM     13  N   UNK     1      31.663 -12.558 -22.419  0.00  0.00    +0.389 N 
ATOM     14  H   UNK     1      31.861 -11.612 -22.091  0.00  0.00    -0.088 HD
ATOM     15  H   UNK     1      30.887 -12.947 -21.885  0.00  0.00    -0.088 HD
ATOM     16  H   UNK     1      31.415 -12.529 -23.408  0.00  0.00    -0.088 HD
ENDBRANCH  12  13
BRANCH  12  18
ATOM     17  O   UNK     1      33.449 -14.434 -24.358  0.00  0.00    -0.253 OA
ATOM     18  C   UNK     1      33.512 -13.475 -23.600  0.00  0.00    +0.293 C 
BRANCH  18  19
ATOM     19  O   UNK     1      34.183 -12.334 -23.912  0.00  0.00    -0.482 OA
ATOM     20  H   UNK     1      34.976 -12.120 -23.461  0.00  0.00    +0.295 HD
ENDBRANCH  18  19
ENDBRANCH  12  18
ENDBRANCH   1  12
TORSDOF 8
ENDMDL
MODEL 9
REMARK VINA RESULT:      -5.8     11.693     13.674
REMARK  Name = 123831
REMARK  8 active torsions:
REMARK  status: ('A' for Active; 'I' for Inactive)
REMARK    1  A    between atoms: C_1  and  C_2
REMARK    2  A    between atoms: C_1  and  C_12
REMARK    3  A    between atoms: C_2  and  C_3
REMARK    4  A    between atoms: C_3  and  N_4
REMARK    5  A    between atoms: N_4  and  C_7
REMARK    6  A    between atoms: C_12  and  N_13
REMARK    7  A    between atoms: C_12  and  C_18
REMARK    8  A    between atoms: C_18  and  O_19
REMARK                            x       y       z     vdW  Elec       q    Type
REMARK                         _______ _______ _______ _____ _____    ______ ____
ROOT
ATOM      1  C   UNK     1      34.547 -15.783 -21.215  0.00  0.00    -0.009 C 
ENDROOT
BRANCH   1   2
ATOM      2  C   UNK     1      33.093 -15.349 -20.981  0.00  0.00    +0.025 C 
BRANCH   2   3
ATOM      3  C   UNK     1      32.591 -14.389 -22.054  0.00  0.00    +0.129 C 
BRANCH   3   4
ATOM      4  N   UNK     1      33.717 -13.891 -22.844  0.00  0.00    -0.240 NA
BRANCH   4   7
ATOM      5  N   UNK     1      33.610 -12.635 -24.829  0.00  0.00    -0.317 N 
ATOM      6  N   UNK     1      33.414 -14.975 -24.943  0.00  0.00    -0.370 N 
ATOM      7  C   UNK     1      33.586 -13.862 -24.140  0.00  0.00    +0.195 C 
ATOM      8  C   UNK     1      33.470 -12.518 -26.278  0.00  0.00    +0.128 C 
ATOM      9  C   UNK     1      33.907 -11.389 -24.122  0.00  0.00    +0.128 C 
ATOM     10  H   UNK     1      33.386 -15.873 -24.540  0.00  0.00    +0.159 HD
ATOM     11  H   UNK     1      33.321 -14.870 -25.917  0.00  0.00    +0.159 HD
ENDBRANCH   4   7
ENDBRANCH   3   4
ENDBRANCH   2   3
ENDBRANCH   1   2
BRANCH   1  12
ATOM     12  C   UNK     1      34.653 -17.254 -21.642  0.00  0.00    +0.036 C 
BRANCH  12  13
ATOM     13  N   UNK     1      35.538 -17.974 -20.730  0.00  0.00    +0.389 N 
ATOM     14  H   UNK     1      36.509 -17.741 -20.944  0.00  0.00    -0.088 HD
ATOM     15  H   UNK     1      35.398 -18.977 -20.840  0.00  0.00    -0.088 HD
ATOM     16  H   UNK     1      35.329 -17.704 -19.769  0.00  0.00    -0.088 HD
ENDBRANCH  12  13
BRANCH  12  18
ATOM     17  O   UNK     1      35.281 -18.450 -23.670  0.00  0.00    -0.253 OA
ATOM     18  C   UNK     1      35.261 -17.411 -23.023  0.00  0.00    +0.293 C 
BRANCH  18  19
ATOM     19  O   UNK     1      35.771 -16.241 -23.494  0.00  0.00    -0.482 OA
ATOM     20  H   UNK     1      36.665 -16.019 -23.323  0.00  0.00    +0.295 HD
ENDBRANCH  18  19
ENDBRANCH  12  18
ENDBRANCH   1  12
TORSDOF 8
ENDMDL
