MODEL 1
REMARK VINA RESULT:      -9.6      0.000      0.000
REMARK  Name = 104845
REMARK  2 active torsions:
REMARK  status: ('A' for Active; 'I' for Inactive)
REMARK    1  A    between atoms: C_9  and  C_22
REMARK    2  A    between atoms: C_20  and  O_24
REMARK                            x       y       z     vdW  Elec       q    Type
REMARK                         _______ _______ _______ _____ _____    ______ ____
ROOT
ATOM      1  O   UNL     1      34.004 -24.943 -12.288  0.00  0.00    -0.296 OA
ATOM      2  C   UNL     1      34.551 -23.329 -15.443  0.00  0.00    +0.007 C 
ATOM      3  C   UNL     1      33.155 -23.598 -16.020  0.00  0.00    +0.001 C 
ATOM      4  C   UNL     1      34.949 -24.518 -14.511  0.00  0.00    +0.058 C 
ATOM      5  C   UNL     1      32.069 -23.738 -14.928  0.00  0.00    +0.013 C 
ATOM      6  C   UNL     1      36.395 -24.348 -13.919  0.00  0.00    +0.007 C 
ATOM      7  C   UNL     1      37.372 -24.174 -15.131  0.00  0.00    +0.003 C 
ATOM      8  C   UNL     1      35.583 -23.123 -16.559  0.00  0.00    +0.000 C 
ATOM      9  C   UNL     1      30.830 -23.917 -15.832  0.00  0.00    +0.058 C 
ATOM     10  C   UNL     1      32.554 -22.587 -16.991  0.00  0.00    +0.000 C 
ATOM     11  C   UNL     1      32.414 -24.954 -14.067  0.00  0.00    +0.065 C 
ATOM     12  C   UNL     1      37.003 -22.981 -16.018  0.00  0.00    +0.000 C 
ATOM     13  C   UNL     1      33.817 -24.791 -13.494  0.00  0.00    +0.150 C 
ATOM     14  C   UNL     1      36.838 -25.632 -13.157  0.00  0.00    +0.003 C 
ATOM     15  C   UNL     1      31.050 -22.911 -16.980  0.00  0.00    +0.007 C 
ATOM     16  C   UNL     1      38.850 -24.114 -14.708  0.00  0.00    +0.029 C 
ATOM     17  C   UNL     1      36.456 -23.136 -12.955  0.00  0.00    +0.000 C 
ATOM     18  C   UNL     1      31.926 -22.489 -14.020  0.00  0.00    +0.001 C 
ATOM     19  C   UNL     1      38.316 -25.624 -12.741  0.00  0.00    +0.029 C 
ATOM     20  C   UNL     1      39.259 -25.353 -13.910  0.00  0.00    +0.111 C 
ENDROOT
BRANCH   9  22
ATOM     21  O   UNL     1      29.060 -24.548 -14.362  0.00  0.00    -0.296 OA
ATOM     22  C   UNL     1      29.514 -23.716 -15.146  0.00  0.00    +0.151 C 
ATOM     23  C   UNL     1      28.775 -22.443 -15.461  0.00  0.00    +0.072 C 
ENDBRANCH   9  22
BRANCH  20  24
ATOM     24  O   UNL     1      39.254 -26.497 -14.764  0.00  0.00    -0.384 OA
ATOM     25  H   UNL     1      39.810 -26.323 -15.540  0.00  0.00    +0.210 HD
ENDBRANCH  20  24
TORSDOF 2
ENDMDL
MODEL 2
REMARK VINA RESULT:      -8.5     10.569     13.130
REMARK  Name = 104845
REMARK  2 active torsions:
REMARK  status: ('A' for Active; 'I' for Inactive)
REMARK    1  A    between atoms: C_9  and  C_22
REMARK    2  A    between atoms: C_20  and  O_24
REMARK                            x       y       z     vdW  Elec       q    Type
REMARK                         _______ _______ _______ _____ _____    ______ ____
ROOT
ATOM      1  O   UNL     1      34.027 -14.475 -20.891  0.00  0.00    -0.296 OA
ATOM      2  C   UNL     1      33.962 -16.256 -24.002  0.00  0.00    +0.007 C 
ATOM      3  C   UNL     1      34.815 -17.445 -23.540  0.00  0.00    +0.001 C 
ATOM      4  C   UNL     1      34.443 -14.971 -23.256  0.00  0.00    +0.058 C 
ATOM      5  C   UNL     1      34.712 -17.704 -22.018  0.00  0.00    +0.013 C 
ATOM      6  C   UNL     1      33.655 -13.690 -23.714  0.00  0.00    +0.007 C 
ATOM      7  C   UNL     1      33.812 -13.584 -25.269  0.00  0.00    +0.003 C 
ATOM      8  C   UNL     1      34.034 -16.081 -25.524  0.00  0.00    +0.000 C 
ATOM      9  C   UNL     1      35.597 -18.965 -21.921  0.00  0.00    +0.058 C 
ATOM     10  C   UNL     1      34.555 -18.818 -24.151  0.00  0.00    +0.000 C 
ATOM     11  C   UNL     1      35.261 -16.477 -21.289  0.00  0.00    +0.065 C 
ATOM     12  C   UNL     1      33.300 -14.830 -26.000  0.00  0.00    +0.000 C 
ATOM     13  C   UNL     1      34.499 -15.235 -21.734  0.00  0.00    +0.150 C 
ATOM     14  C   UNL     1      34.283 -12.402 -23.104  0.00  0.00    +0.003 C 
ATOM     15  C   UNL     1      35.212 -19.795 -23.162  0.00  0.00    +0.007 C 
ATOM     16  C   UNL     1      33.187 -12.304 -25.851  0.00  0.00    +0.029 C 
ATOM     17  C   UNL     1      32.166 -13.780 -23.294  0.00  0.00    +0.000 C 
ATOM     18  C   UNL     1      33.269 -17.991 -21.526  0.00  0.00    +0.001 C 
ATOM     19  C   UNL     1      33.705 -11.102 -23.679  0.00  0.00    +0.029 C 
ATOM     20  C   UNL     1      33.769 -11.047 -25.202  0.00  0.00    +0.111 C 
ENDROOT
BRANCH   9  22
ATOM     21  O   UNL     1      36.331 -19.752 -19.792  0.00  0.00    -0.296 OA
ATOM     22  C   UNL     1      35.449 -19.743 -20.650  0.00  0.00    +0.151 C 
ATOM     23  C   UNL     1      34.168 -20.512 -20.473  0.00  0.00    +0.072 C 
ENDBRANCH   9  22
BRANCH  20  24
ATOM     24  O   UNL     1      35.135 -10.896 -25.588  0.00  0.00    -0.384 OA
ATOM     25  H   UNL     1      35.687 -11.501 -25.068  0.00  0.00    +0.210 HD
ENDBRANCH  20  24
TORSDOF 2
ENDMDL
MODEL 3
REMARK VINA RESULT:      -8.5      3.320      6.534
REMARK  Name = 104845
REMARK  2 active torsions:
REMARK  status: ('A' for Active; 'I' for Inactive)
REMARK    1  A    between atoms: C_9  and  C_22
REMARK    2  A    between atoms: C_20  and  O_24
REMARK                            x       y       z     vdW  Elec       q    Type
REMARK                         _______ _______ _______ _____ _____    ______ ____
ROOT
ATOM      1  O   UNL     1      32.622 -23.450 -17.206  0.00  0.00    -0.296 OA
ATOM      2  C   UNL     1      36.072 -22.476 -17.233  0.00  0.00    +0.007 C 
ATOM      3  C   UNL     1      36.290 -22.564 -15.717  0.00  0.00    +0.001 C 
ATOM      4  C   UNL     1      34.600 -22.032 -17.506  0.00  0.00    +0.058 C 
ATOM      5  C   UNL     1      35.346 -23.579 -15.031  0.00  0.00    +0.013 C 
ATOM      6  C   UNL     1      34.306 -21.863 -19.041  0.00  0.00    +0.007 C 
ATOM      7  C   UNL     1      35.360 -20.848 -19.602  0.00  0.00    +0.003 C 
ATOM      8  C   UNL     1      37.076 -21.515 -17.883  0.00  0.00    +0.000 C 
ATOM      9  C   UNL     1      35.873 -23.471 -13.584  0.00  0.00    +0.058 C 
ATOM     10  C   UNL     1      37.669 -22.953 -15.194  0.00  0.00    +0.000 C 
ATOM     11  C   UNL     1      33.907 -23.099 -15.227  0.00  0.00    +0.065 C 
ATOM     12  C   UNL     1      36.803 -21.308 -19.370  0.00  0.00    +0.000 C 
ATOM     13  C   UNL     1      33.623 -22.933 -16.715  0.00  0.00    +0.150 C 
ATOM     14  C   UNL     1      32.900 -21.234 -19.273  0.00  0.00    +0.003 C 
ATOM     15  C   UNL     1      37.405 -23.394 -13.744  0.00  0.00    +0.007 C 
ATOM     16  C   UNL     1      35.122 -20.491 -21.080  0.00  0.00    +0.029 C 
ATOM     17  C   UNL     1      34.382 -23.228 -19.770  0.00  0.00    +0.000 C 
ATOM     18  C   UNL     1      35.482 -25.027 -15.572  0.00  0.00    +0.001 C 
ATOM     19  C   UNL     1      32.635 -20.838 -20.732  0.00  0.00    +0.029 C 
ATOM     20  C   UNL     1      33.717 -19.930 -21.306  0.00  0.00    +0.111 C 
ENDROOT
BRANCH   9  22
ATOM     21  O   UNL     1      34.296 -24.684 -12.268  0.00  0.00    -0.296 OA
ATOM     22  C   UNL     1      35.453 -24.583 -12.674  0.00  0.00    +0.151 C 
ATOM     23  C   UNL     1      36.516 -25.574 -12.283  0.00  0.00    +0.072 C 
ENDBRANCH   9  22
BRANCH  20  24
ATOM     24  O   UNL     1      33.606 -18.650 -20.683  0.00  0.00    -0.384 OA
ATOM     25  H   UNL     1      33.432 -18.765 -19.736  0.00  0.00    +0.210 HD
ENDBRANCH  20  24
TORSDOF 2
ENDMDL
MODEL 4
REMARK VINA RESULT:      -8.4      1.338      6.752
REMARK  Name = 104845
REMARK  2 active torsions:
REMARK  status: ('A' for Active; 'I' for Inactive)
REMARK    1  A    between atoms: C_9  and  C_22
REMARK    2  A    between atoms: C_20  and  O_24
REMARK                            x       y       z     vdW  Elec       q    Type
REMARK                         _______ _______ _______ _____ _____    ______ ____
ROOT
ATOM      1  O   UNL     1      32.576 -25.227 -13.033  0.00  0.00    -0.296 OA
ATOM      2  C   UNL     1      33.625 -23.435 -15.956  0.00  0.00    +0.007 C 
ATOM      3  C   UNL     1      34.987 -22.990 -15.407  0.00  0.00    +0.001 C 
ATOM      4  C   UNL     1      32.604 -23.502 -14.776  0.00  0.00    +0.058 C 
ATOM      5  C   UNL     1      35.550 -23.955 -14.338  0.00  0.00    +0.013 C 
ATOM      6  C   UNL     1      31.163 -23.900 -15.262  0.00  0.00    +0.007 C 
ATOM      7  C   UNL     1      30.748 -22.868 -16.365  0.00  0.00    +0.003 C 
ATOM      8  C   UNL     1      33.139 -22.493 -17.065  0.00  0.00    +0.000 C 
ATOM      9  C   UNL     1      36.908 -23.269 -14.075  0.00  0.00    +0.058 C 
ATOM     10  C   UNL     1      36.151 -22.820 -16.379  0.00  0.00    +0.000 C 
ATOM     11  C   UNL     1      34.591 -23.956 -13.146  0.00  0.00    +0.065 C 
ATOM     12  C   UNL     1      31.730 -22.836 -17.541  0.00  0.00    +0.000 C 
ATOM     13  C   UNL     1      33.193 -24.339 -13.616  0.00  0.00    +0.150 C 
ATOM     14  C   UNL     1      30.130 -23.768 -14.104  0.00  0.00    +0.003 C 
ATOM     15  C   UNL     1      37.395 -22.844 -15.475  0.00  0.00    +0.007 C 
ATOM     16  C   UNL     1      29.302 -23.061 -16.855  0.00  0.00    +0.029 C 
ATOM     17  C   UNL     1      31.144 -25.353 -15.800  0.00  0.00    +0.000 C 
ATOM     18  C   UNL     1      35.743 -25.409 -14.843  0.00  0.00    +0.001 C 
ATOM     19  C   UNL     1      28.671 -23.927 -14.557  0.00  0.00    +0.029 C 
ATOM     20  C   UNL     1      28.301 -22.989 -15.701  0.00  0.00    +0.111 C 
ENDROOT
BRANCH   9  22
ATOM     21  O   UNL     1      38.835 -24.669 -13.954  0.00  0.00    -0.296 OA
ATOM     22  C   UNL     1      37.914 -24.115 -13.357  0.00  0.00    +0.151 C 
ATOM     23  C   UNL     1      37.744 -24.251 -11.868  0.00  0.00    +0.072 C 
ENDBRANCH   9  22
BRANCH  20  24
ATOM     24  O   UNL     1      28.252 -21.657 -15.191  0.00  0.00    -0.384 OA
ATOM     25  H   UNL     1      28.642 -21.048 -15.839  0.00  0.00    +0.210 HD
ENDBRANCH  20  24
TORSDOF 2
ENDMDL
MODEL 5
REMARK VINA RESULT:      -8.3     14.098     16.240
REMARK  Name = 104845
REMARK  2 active torsions:
REMARK  status: ('A' for Active; 'I' for Inactive)
REMARK    1  A    between atoms: C_9  and  C_22
REMARK    2  A    between atoms: C_20  and  O_24
REMARK                            x       y       z     vdW  Elec       q    Type
REMARK                         _______ _______ _______ _____ _____    ______ ____
ROOT
ATOM      1  O   UNL     1      34.113 -11.664 -25.095  0.00  0.00    -0.296 OA
ATOM      2  C   UNL     1      32.290 -10.707 -22.159  0.00  0.00    +0.007 C 
ATOM      3  C   UNL     1      32.720  -9.234 -22.159  0.00  0.00    +0.001 C 
ATOM      4  C   UNL     1      33.456 -11.574 -22.733  0.00  0.00    +0.058 C 
ATOM      5  C   UNL     1      33.060  -8.707 -23.573  0.00  0.00    +0.013 C 
ATOM      6  C   UNL     1      33.118 -13.108 -22.717  0.00  0.00    +0.007 C 
ATOM      7  C   UNL     1      32.753 -13.484 -21.241  0.00  0.00    +0.003 C 
ATOM      8  C   UNL     1      31.891 -11.168 -20.751  0.00  0.00    +0.000 C 
ATOM      9  C   UNL     1      33.364  -7.235 -23.222  0.00  0.00    +0.058 C 
ATOM     10  C   UNL     1      31.756  -8.187 -21.613  0.00  0.00    +0.000 C 
ATOM     11  C   UNL     1      34.257  -9.500 -24.101  0.00  0.00    +0.065 C 
ATOM     12  C   UNL     1      31.581 -12.662 -20.696  0.00  0.00    +0.000 C 
ATOM     13  C   UNL     1      33.931 -10.988 -24.084  0.00  0.00    +0.150 C 
ATOM     14  C   UNL     1      34.364 -13.957 -23.109  0.00  0.00    +0.003 C 
ATOM     15  C   UNL     1      32.283  -6.861 -22.187  0.00  0.00    +0.007 C 
ATOM     16  C   UNL     1      32.511 -14.991 -21.046  0.00  0.00    +0.029 C 
ATOM     17  C   UNL     1      31.957 -13.427 -23.692  0.00  0.00    +0.000 C 
ATOM     18  C   UNL     1      31.887  -8.814 -24.582  0.00  0.00    +0.001 C 
ATOM     19  C   UNL     1      34.172 -15.466 -22.903  0.00  0.00    +0.029 C 
ATOM     20  C   UNL     1      33.719 -15.818 -21.489  0.00  0.00    +0.111 C 
ENDROOT
BRANCH   9  22
ATOM     21  O   UNL     1      34.310  -6.280 -25.193  0.00  0.00    -0.296 OA
ATOM     22  C   UNL     1      33.379  -6.298 -24.390  0.00  0.00    +0.151 C 
ATOM     23  C   UNL     1      32.195  -5.380 -24.535  0.00  0.00    +0.072 C 
ENDBRANCH   9  22
BRANCH  20  24
ATOM     24  O   UNL     1      34.811 -15.589 -20.598  0.00  0.00    -0.384 OA
ATOM     25  H   UNL     1      35.454 -16.310 -20.682  0.00  0.00    +0.210 HD
ENDBRANCH  20  24
TORSDOF 2
ENDMDL
MODEL 6
REMARK VINA RESULT:      -7.1     14.495     17.072
REMARK  Name = 104845
REMARK  2 active torsions:
REMARK  status: ('A' for Active; 'I' for Inactive)
REMARK    1  A    between atoms: C_9  and  C_22
REMARK    2  A    between atoms: C_20  and  O_24
REMARK                            x       y       z     vdW  Elec       q    Type
REMARK                         _______ _______ _______ _____ _____    ______ ____
ROOT
ATOM      1  O   UNL     1      34.284  -9.851 -25.029  0.00  0.00    -0.296 OA
ATOM      2  C   UNL     1      32.581 -10.589 -21.961  0.00  0.00    +0.007 C 
ATOM      3  C   UNL     1      32.231 -12.044 -22.302  0.00  0.00    +0.001 C 
ATOM      4  C   UNL     1      32.571  -9.746 -23.276  0.00  0.00    +0.058 C 
ATOM      5  C   UNL     1      33.229 -12.687 -23.293  0.00  0.00    +0.013 C 
ATOM      6  C   UNL     1      32.868  -8.226 -23.007  0.00  0.00    +0.007 C 
ATOM      7  C   UNL     1      31.814  -7.729 -21.961  0.00  0.00    +0.003 C 
ATOM      8  C   UNL     1      31.611 -10.014 -20.920  0.00  0.00    +0.000 C 
ATOM      9  C   UNL     1      32.640 -14.112 -23.349  0.00  0.00    +0.058 C 
ATOM     10  C   UNL     1      32.147 -13.064 -21.171  0.00  0.00    +0.000 C 
ATOM     11  C   UNL     1      33.158 -11.912 -24.610  0.00  0.00    +0.065 C 
ATOM     12  C   UNL     1      31.855  -8.531 -20.656  0.00  0.00    +0.000 C 
ATOM     13  C   UNL     1      33.443 -10.438 -24.350  0.00  0.00    +0.150 C 
ATOM     14  C   UNL     1      32.659  -7.383 -24.300  0.00  0.00    +0.003 C 
ATOM     15  C   UNL     1      32.255 -14.421 -21.887  0.00  0.00    +0.007 C 
ATOM     16  C   UNL     1      31.906  -6.218 -21.686  0.00  0.00    +0.029 C 
ATOM     17  C   UNL     1      34.318  -8.030 -22.498  0.00  0.00    +0.000 C 
ATOM     18  C   UNL     1      34.695 -12.704 -22.785  0.00  0.00    +0.001 C 
ATOM     19  C   UNL     1      32.716  -5.867 -24.063  0.00  0.00    +0.029 C 
ATOM     20  C   UNL     1      31.759  -5.401 -22.971  0.00  0.00    +0.111 C 
ENDROOT
BRANCH   9  22
ATOM     21  O   UNL     1      33.715 -15.264 -25.140  0.00  0.00    -0.296 OA
ATOM     22  C   UNL     1      33.552 -15.150 -23.926  0.00  0.00    +0.151 C 
ATOM     23  C   UNL     1      34.261 -16.046 -22.947  0.00  0.00    +0.072 C 
ENDBRANCH   9  22
BRANCH  20  24
ATOM     24  O   UNL     1      30.424  -5.519 -23.464  0.00  0.00    -0.384 OA
ATOM     25  H   UNL     1      30.441  -5.575 -24.433  0.00  0.00    +0.210 HD
ENDBRANCH  20  24
TORSDOF 2
ENDMDL
