MODEL 1
REMARK VINA RESULT:      -5.6      0.000      0.000
REMARK  Name = 193344
REMARK  8 active torsions:
REMARK  status: ('A' for Active; 'I' for Inactive)
REMARK    1  A    between atoms: C_1  and  N_2
REMARK    2  A    between atoms: C_1  and  C_7
REMARK    3  A    between atoms: C_1  and  C_10
REMARK    4  A    between atoms: C_7  and  O_8
REMARK    5  A    between atoms: C_10  and  C_11
REMARK    6  A    between atoms: C_11  and  C_12
REMARK    7  A    between atoms: C_12  and  C_13
REMARK    8  A    between atoms: C_13  and  N_14
REMARK                            x       y       z     vdW  Elec       q    Type
REMARK                         _______ _______ _______ _____ _____    ______ ____
ROOT
ATOM      1  C   UNK     1      38.905 -25.248 -14.567  0.00  0.00    +0.036 C 
ENDROOT
BRANCH   1   2
ATOM      2  N   UNK     1      37.857 -26.072 -15.176  0.00  0.00    +0.389 N 
ATOM      3  H   UNK     1      38.205 -27.021 -15.309  0.00  0.00    -0.088 HD
ATOM      4  H   UNK     1      37.595 -25.676 -16.078  0.00  0.00    -0.088 HD
ATOM      5  H   UNK     1      37.041 -26.091 -14.563  0.00  0.00    -0.088 HD
ENDBRANCH   1   2
BRANCH   1   7
ATOM      6  O   UNK     1      40.953 -26.410 -13.939  0.00  0.00    -0.253 OA
ATOM      7  C   UNK     1      40.230 -25.947 -14.812  0.00  0.00    +0.293 C 
BRANCH   7   8
ATOM      8  O   UNK     1      40.555 -25.987 -16.130  0.00  0.00    -0.482 OA
ATOM      9  H   UNK     1      41.083 -26.686 -16.462  0.00  0.00    +0.295 HD
ENDBRANCH   7   8
ENDBRANCH   1   7
BRANCH   1  10
ATOM     10  C   UNK     1      38.622 -25.096 -13.066  0.00  0.00    -0.011 C 
BRANCH  10  11
ATOM     11  C   UNK     1      37.388 -25.884 -12.615  0.00  0.00    -0.004 C 
BRANCH  11  12
ATOM     12  C   UNK     1      36.216 -25.007 -12.153  0.00  0.00    -0.023 C 
BRANCH  12  13
ATOM     13  C   UNK     1      36.316 -23.538 -12.558  0.00  0.00    -0.078 C 
BRANCH  13  14
ATOM     14  N   UNK     1      35.285 -23.185 -13.501  0.00  0.00    +0.384 N 
ATOM     15  C   UNK     1      34.193 -24.168 -13.489  0.00  0.00    -0.101 C 
ATOM     16  C   UNK     1      35.827 -23.066 -14.861  0.00  0.00    -0.101 C 
ATOM     17  H   UNK     1      34.914 -22.279 -13.216  0.00  0.00    -0.080 HD
ENDBRANCH  13  14
ENDBRANCH  12  13
ENDBRANCH  11  12
ENDBRANCH  10  11
ENDBRANCH   1  10
TORSDOF 8
ENDMDL
MODEL 2
REMARK VINA RESULT:      -5.5      1.440      2.153
REMARK  Name = 193344
REMARK  8 active torsions:
REMARK  status: ('A' for Active; 'I' for Inactive)
REMARK    1  A    between atoms: C_1  and  N_2
REMARK    2  A    between atoms: C_1  and  C_7
REMARK    3  A    between atoms: C_1  and  C_10
REMARK    4  A    between atoms: C_7  and  O_8
REMARK    5  A    between atoms: C_10  and  C_11
REMARK    6  A    between atoms: C_11  and  C_12
REMARK    7  A    between atoms: C_12  and  C_13
REMARK    8  A    between atoms: C_13  and  N_14
REMARK                            x       y       z     vdW  Elec       q    Type
REMARK                         _______ _______ _______ _____ _____    ______ ____
ROOT
ATOM      1  C   UNK     1      38.755 -25.918 -14.501  0.00  0.00    +0.036 C 
ENDROOT
BRANCH   1   2
ATOM      2  N   UNK     1      38.696 -25.984 -13.038  0.00  0.00    +0.389 N 
ATOM      3  H   UNK     1      37.884 -26.534 -12.755  0.00  0.00    -0.088 HD
ATOM      4  H   UNK     1      38.618 -25.042 -12.658  0.00  0.00    -0.088 HD
ATOM      5  H   UNK     1      39.545 -26.425 -12.684  0.00  0.00    -0.088 HD
ENDBRANCH   1   2
BRANCH   1   7
ATOM      6  O   UNK     1      40.888 -24.778 -14.203  0.00  0.00    -0.253 OA
ATOM      7  C   UNK     1      40.165 -25.502 -14.877  0.00  0.00    +0.293 C 
BRANCH   7   8
ATOM      8  O   UNK     1      40.546 -26.003 -16.080  0.00  0.00    -0.482 OA
ATOM      9  H   UNK     1      41.451 -26.005 -16.322  0.00  0.00    +0.295 HD
ENDBRANCH   7   8
ENDBRANCH   1   7
BRANCH   1  10
ATOM     10  C   UNK     1      37.718 -24.904 -15.004  0.00  0.00    -0.011 C 
BRANCH  10  11
ATOM     11  C   UNK     1      36.294 -25.470 -15.012  0.00  0.00    -0.004 C 
BRANCH  11  12
ATOM     12  C   UNK     1      35.307 -24.702 -14.122  0.00  0.00    -0.023 C 
BRANCH  12  13
ATOM     13  C   UNK     1      35.806 -23.343 -13.637  0.00  0.00    -0.078 C 
BRANCH  13  14
ATOM     14  N   UNK     1      35.887 -23.299 -12.198  0.00  0.00    +0.384 N 
ATOM     15  C   UNK     1      37.234 -22.913 -11.753  0.00  0.00    -0.101 C 
ATOM     16  C   UNK     1      35.522 -24.593 -11.605  0.00  0.00    -0.101 C 
ATOM     17  H   UNK     1      35.222 -22.594 -11.881  0.00  0.00    -0.080 HD
ENDBRANCH  13  14
ENDBRANCH  12  13
ENDBRANCH  11  12
ENDBRANCH  10  11
ENDBRANCH   1  10
TORSDOF 8
ENDMDL
MODEL 3
REMARK VINA RESULT:      -5.4      8.724     10.475
REMARK  Name = 193344
REMARK  8 active torsions:
REMARK  status: ('A' for Active; 'I' for Inactive)
REMARK    1  A    between atoms: C_1  and  N_2
REMARK    2  A    between atoms: C_1  and  C_7
REMARK    3  A    between atoms: C_1  and  C_10
REMARK    4  A    between atoms: C_7  and  O_8
REMARK    5  A    between atoms: C_10  and  C_11
REMARK    6  A    between atoms: C_11  and  C_12
REMARK    7  A    between atoms: C_12  and  C_13
REMARK    8  A    between atoms: C_13  and  N_14
REMARK                            x       y       z     vdW  Elec       q    Type
REMARK                         _______ _______ _______ _____ _____    ______ ____
ROOT
ATOM      1  C   UNK     1      34.401 -21.183 -19.581  0.00  0.00    +0.036 C 
ENDROOT
BRANCH   1   2
ATOM      2  N   UNK     1      35.692 -21.554 -20.167  0.00  0.00    +0.389 N 
ATOM      3  H   UNK     1      35.980 -22.464 -19.807  0.00  0.00    -0.088 HD
ATOM      4  H   UNK     1      36.390 -20.854 -19.921  0.00  0.00    -0.088 HD
ATOM      5  H   UNK     1      35.602 -21.603 -21.182  0.00  0.00    -0.088 HD
ENDBRANCH   1   2
BRANCH   1   7
ATOM      6  O   UNK     1      34.065 -23.595 -19.508  0.00  0.00    -0.253 OA
ATOM      7  C   UNK     1      33.687 -22.469 -19.207  0.00  0.00    +0.293 C 
BRANCH   7   8
ATOM      8  O   UNK     1      32.546 -22.241 -18.508  0.00  0.00    -0.482 OA
ATOM      9  H   UNK     1      31.971 -22.952 -18.304  0.00  0.00    +0.295 HD
ENDBRANCH   7   8
ENDBRANCH   1   7
BRANCH   1  10
ATOM     10  C   UNK     1      33.594 -20.372 -20.604  0.00  0.00    -0.011 C 
BRANCH  10  11
ATOM     11  C   UNK     1      34.338 -19.121 -21.085  0.00  0.00    -0.004 C 
BRANCH  11  12
ATOM     12  C   UNK     1      34.574 -19.074 -22.601  0.00  0.00    -0.023 C 
BRANCH  12  13
ATOM     13  C   UNK     1      35.789 -18.259 -23.035  0.00  0.00    -0.078 C 
BRANCH  13  14
ATOM     14  N   UNK     1      35.446 -17.322 -24.076  0.00  0.00    +0.384 N 
ATOM     15  C   UNK     1      34.916 -16.072 -23.512  0.00  0.00    -0.101 C 
ATOM     16  C   UNK     1      34.467 -17.897 -25.007  0.00  0.00    -0.101 C 
ATOM     17  H   UNK     1      36.303 -17.113 -24.588  0.00  0.00    -0.080 HD
ENDBRANCH  13  14
ENDBRANCH  12  13
ENDBRANCH  11  12
ENDBRANCH  10  11
ENDBRANCH   1  10
TORSDOF 8
ENDMDL
MODEL 4
REMARK VINA RESULT:      -5.4      8.475     10.266
REMARK  Name = 193344
REMARK  8 active torsions:
REMARK  status: ('A' for Active; 'I' for Inactive)
REMARK    1  A    between atoms: C_1  and  N_2
REMARK    2  A    between atoms: C_1  and  C_7
REMARK    3  A    between atoms: C_1  and  C_10
REMARK    4  A    between atoms: C_7  and  O_8
REMARK    5  A    between atoms: C_10  and  C_11
REMARK    6  A    between atoms: C_11  and  C_12
REMARK    7  A    between atoms: C_12  and  C_13
REMARK    8  A    between atoms: C_13  and  N_14
REMARK                            x       y       z     vdW  Elec       q    Type
REMARK                         _______ _______ _______ _____ _____    ______ ____
ROOT
ATOM      1  C   UNK     1      33.884 -21.587 -19.895  0.00  0.00    +0.036 C 
ENDROOT
BRANCH   1   2
ATOM      2  N   UNK     1      32.661 -20.967 -19.380  0.00  0.00    +0.389 N 
ATOM      3  H   UNK     1      32.761 -19.951 -19.398  0.00  0.00    -0.088 HD
ATOM      4  H   UNK     1      32.500 -21.276 -18.422  0.00  0.00    -0.088 HD
ATOM      5  H   UNK     1      31.869 -21.240 -19.964  0.00  0.00    -0.088 HD
ENDBRANCH   1   2
BRANCH   1   7
ATOM      6  O   UNK     1      35.458 -22.306 -18.178  0.00  0.00    -0.253 OA
ATOM      7  C   UNK     1      34.423 -22.497 -18.805  0.00  0.00    +0.293 C 
BRANCH   7   8
ATOM      8  O   UNK     1      33.635 -23.585 -18.607  0.00  0.00    -0.482 OA
ATOM      9  H   UNK     1      33.100 -23.910 -19.304  0.00  0.00    +0.295 HD
ENDBRANCH   7   8
ENDBRANCH   1   7
BRANCH   1  10
ATOM     10  C   UNK     1      34.894 -20.491 -20.259  0.00  0.00    -0.011 C 
BRANCH  10  11
ATOM     11  C   UNK     1      34.321 -19.462 -21.239  0.00  0.00    -0.004 C 
BRANCH  11  12
ATOM     12  C   UNK     1      35.384 -18.649 -21.991  0.00  0.00    -0.023 C 
BRANCH  12  13
ATOM     13  C   UNK     1      35.175 -18.565 -23.502  0.00  0.00    -0.078 C 
BRANCH  13  14
ATOM     14  N   UNK     1      35.400 -17.226 -23.986  0.00  0.00    +0.384 N 
ATOM     15  C   UNK     1      35.036 -16.225 -22.973  0.00  0.00    -0.101 C 
ATOM     16  C   UNK     1      34.646 -16.973 -25.221  0.00  0.00    -0.101 C 
ATOM     17  H   UNK     1      36.396 -17.142 -24.187  0.00  0.00    -0.080 HD
ENDBRANCH  13  14
ENDBRANCH  12  13
ENDBRANCH  11  12
ENDBRANCH  10  11
ENDBRANCH   1  10
TORSDOF 8
ENDMDL
MODEL 5
REMARK VINA RESULT:      -5.3     10.760     12.590
REMARK  Name = 193344
REMARK  8 active torsions:
REMARK  status: ('A' for Active; 'I' for Inactive)
REMARK    1  A    between atoms: C_1  and  N_2
REMARK    2  A    between atoms: C_1  and  C_7
REMARK    3  A    between atoms: C_1  and  C_10
REMARK    4  A    between atoms: C_7  and  O_8
REMARK    5  A    between atoms: C_10  and  C_11
REMARK    6  A    between atoms: C_11  and  C_12
REMARK    7  A    between atoms: C_12  and  C_13
REMARK    8  A    between atoms: C_13  and  N_14
REMARK                            x       y       z     vdW  Elec       q    Type
REMARK                         _______ _______ _______ _____ _____    ______ ____
ROOT
ATOM      1  C   UNK     1      34.608 -18.153 -21.691  0.00  0.00    +0.036 C 
ENDROOT
BRANCH   1   2
ATOM      2  N   UNK     1      35.213 -17.227 -20.729  0.00  0.00    +0.389 N 
ATOM      3  H   UNK     1      34.660 -17.218 -19.871  0.00  0.00    -0.088 HD
ATOM      4  H   UNK     1      35.237 -16.290 -21.128  0.00  0.00    -0.088 HD
ATOM      5  H   UNK     1      36.164 -17.532 -20.517  0.00  0.00    -0.088 HD
ENDBRANCH   1   2
BRANCH   1   7
ATOM      6  O   UNK     1      33.272 -20.057 -20.963  0.00  0.00    -0.253 OA
ATOM      7  C   UNK     1      34.339 -19.455 -20.957  0.00  0.00    +0.293 C 
BRANCH   7   8
ATOM      8  O   UNK     1      35.419 -19.883 -20.255  0.00  0.00    -0.482 OA
ATOM      9  H   UNK     1      36.232 -19.420 -20.316  0.00  0.00    +0.295 HD
ENDBRANCH   7   8
ENDBRANCH   1   7
BRANCH   1  10
ATOM     10  C   UNK     1      35.570 -18.361 -22.867  0.00  0.00    -0.011 C 
BRANCH  10  11
ATOM     11  C   UNK     1      34.937 -19.153 -24.016  0.00  0.00    -0.004 C 
BRANCH  11  12
ATOM     12  C   UNK     1      34.293 -18.279 -25.102  0.00  0.00    -0.023 C 
BRANCH  12  13
ATOM     13  C   UNK     1      34.789 -16.835 -25.140  0.00  0.00    -0.078 C 
BRANCH  13  14
ATOM     14  N   UNK     1      33.735 -15.912 -24.801  0.00  0.00    +0.384 N 
ATOM     15  C   UNK     1      33.283 -15.164 -25.983  0.00  0.00    -0.101 C 
ATOM     16  C   UNK     1      34.167 -14.972 -23.758  0.00  0.00    -0.101 C 
ATOM     17  H   UNK     1      32.955 -16.463 -24.443  0.00  0.00    -0.080 HD
ENDBRANCH  13  14
ENDBRANCH  12  13
ENDBRANCH  11  12
ENDBRANCH  10  11
ENDBRANCH   1  10
TORSDOF 8
ENDMDL
MODEL 6
REMARK VINA RESULT:      -5.3      6.525      8.551
REMARK  Name = 193344
REMARK  8 active torsions:
REMARK  status: ('A' for Active; 'I' for Inactive)
REMARK    1  A    between atoms: C_1  and  N_2
REMARK    2  A    between atoms: C_1  and  C_7
REMARK    3  A    between atoms: C_1  and  C_10
REMARK    4  A    between atoms: C_7  and  O_8
REMARK    5  A    between atoms: C_10  and  C_11
REMARK    6  A    between atoms: C_11  and  C_12
REMARK    7  A    between atoms: C_12  and  C_13
REMARK    8  A    between atoms: C_13  and  N_14
REMARK                            x       y       z     vdW  Elec       q    Type
REMARK                         _______ _______ _______ _____ _____    ______ ____
ROOT
ATOM      1  C   UNK     1      28.876 -23.504 -15.396  0.00  0.00    +0.036 C 
ENDROOT
BRANCH   1   2
ATOM      2  N   UNK     1      29.092 -24.949 -15.281  0.00  0.00    +0.389 N 
ATOM      3  H   UNK     1      28.453 -25.439 -15.908  0.00  0.00    -0.088 HD
ATOM      4  H   UNK     1      28.920 -25.243 -14.321  0.00  0.00    -0.088 HD
ATOM      5  H   UNK     1      30.055 -25.170 -15.538  0.00  0.00    -0.088 HD
ENDBRANCH   1   2
BRANCH   1   7
ATOM      6  O   UNK     1      27.795 -24.103 -17.496  0.00  0.00    -0.253 OA
ATOM      7  C   UNK     1      28.272 -23.244 -16.764  0.00  0.00    +0.293 C 
BRANCH   7   8
ATOM      8  O   UNK     1      28.336 -21.935 -17.116  0.00  0.00    -0.482 OA
ATOM      9  H   UNK     1      27.904 -21.635 -17.891  0.00  0.00    +0.295 HD
ENDBRANCH   7   8
ENDBRANCH   1   7
BRANCH   1  10
ATOM     10  C   UNK     1      30.217 -22.777 -15.228  0.00  0.00    -0.011 C 
BRANCH  10  11
ATOM     11  C   UNK     1      31.343 -23.418 -16.044  0.00  0.00    -0.004 C 
BRANCH  11  12
ATOM     12  C   UNK     1      32.715 -23.385 -15.357  0.00  0.00    -0.023 C 
BRANCH  12  13
ATOM     13  C   UNK     1      32.826 -24.254 -14.106  0.00  0.00    -0.078 C 
BRANCH  13  14
ATOM     14  N   UNK     1      34.161 -24.774 -13.948  0.00  0.00    +0.384 N 
ATOM     15  C   UNK     1      34.813 -24.210 -12.757  0.00  0.00    -0.101 C 
ATOM     16  C   UNK     1      34.982 -24.503 -15.135  0.00  0.00    -0.101 C 
ATOM     17  H   UNK     1      34.079 -25.784 -13.829  0.00  0.00    -0.080 HD
ENDBRANCH  13  14
ENDBRANCH  12  13
ENDBRANCH  11  12
ENDBRANCH  10  11
ENDBRANCH   1  10
TORSDOF 8
ENDMDL
MODEL 7
REMARK VINA RESULT:      -5.2      6.648      8.635
REMARK  Name = 193344
REMARK  8 active torsions:
REMARK  status: ('A' for Active; 'I' for Inactive)
REMARK    1  A    between atoms: C_1  and  N_2
REMARK    2  A    between atoms: C_1  and  C_7
REMARK    3  A    between atoms: C_1  and  C_10
REMARK    4  A    between atoms: C_7  and  O_8
REMARK    5  A    between atoms: C_10  and  C_11
REMARK    6  A    between atoms: C_11  and  C_12
REMARK    7  A    between atoms: C_12  and  C_13
REMARK    8  A    between atoms: C_13  and  N_14
REMARK                            x       y       z     vdW  Elec       q    Type
REMARK                         _______ _______ _______ _____ _____    ______ ____
ROOT
ATOM      1  C   UNK     1      29.566 -23.516 -16.495  0.00  0.00    +0.036 C 
ENDROOT
BRANCH   1   2
ATOM      2  N   UNK     1      30.638 -22.618 -16.932  0.00  0.00    +0.389 N 
ATOM      3  H   UNK     1      30.251 -21.895 -17.538  0.00  0.00    -0.088 HD
ATOM      4  H   UNK     1      31.340 -23.151 -17.443  0.00  0.00    -0.088 HD
ATOM      5  H   UNK     1      31.069 -22.182 -16.115  0.00  0.00    -0.088 HD
ENDBRANCH   1   2
BRANCH   1   7
ATOM      6  O   UNK     1      27.883 -21.758 -16.625  0.00  0.00    -0.253 OA
ATOM      7  C   UNK     1      28.250 -22.889 -16.920  0.00  0.00    +0.293 C 
BRANCH   7   8
ATOM      8  O   UNK     1      27.489 -23.738 -17.658  0.00  0.00    -0.482 OA
ATOM      9  H   UNK     1      26.565 -23.784 -17.514  0.00  0.00    +0.295 HD
ENDBRANCH   7   8
ENDBRANCH   1   7
BRANCH   1  10
ATOM     10  C   UNK     1      29.638 -23.689 -14.972  0.00  0.00    -0.011 C 
BRANCH  10  11
ATOM     11  C   UNK     1      30.262 -25.026 -14.558  0.00  0.00    -0.004 C 
BRANCH  11  12
ATOM     12  C   UNK     1      31.661 -24.901 -13.937  0.00  0.00    -0.023 C 
BRANCH  12  13
ATOM     13  C   UNK     1      32.103 -23.471 -13.638  0.00  0.00    -0.078 C 
BRANCH  13  14
ATOM     14  N   UNK     1      33.502 -23.284 -13.932  0.00  0.00    +0.384 N 
ATOM     15  C   UNK     1      33.765 -23.419 -15.372  0.00  0.00    -0.101 C 
ATOM     16  C   UNK     1      34.335 -24.237 -13.187  0.00  0.00    -0.101 C 
ATOM     17  H   UNK     1      33.747 -22.337 -13.642  0.00  0.00    -0.080 HD
ENDBRANCH  13  14
ENDBRANCH  12  13
ENDBRANCH  11  12
ENDBRANCH  10  11
ENDBRANCH   1  10
TORSDOF 8
ENDMDL
MODEL 8
REMARK VINA RESULT:      -5.2     11.199     12.966
REMARK  Name = 193344
REMARK  8 active torsions:
REMARK  status: ('A' for Active; 'I' for Inactive)
REMARK    1  A    between atoms: C_1  and  N_2
REMARK    2  A    between atoms: C_1  and  C_7
REMARK    3  A    between atoms: C_1  and  C_10
REMARK    4  A    between atoms: C_7  and  O_8
REMARK    5  A    between atoms: C_10  and  C_11
REMARK    6  A    between atoms: C_11  and  C_12
REMARK    7  A    between atoms: C_12  and  C_13
REMARK    8  A    between atoms: C_13  and  N_14
REMARK                            x       y       z     vdW  Elec       q    Type
REMARK                         _______ _______ _______ _____ _____    ______ ____
ROOT
ATOM      1  C   UNK     1      35.418 -18.164 -21.699  0.00  0.00    +0.036 C 
ENDROOT
BRANCH   1   2
ATOM      2  N   UNK     1      35.902 -18.954 -20.563  0.00  0.00    +0.389 N 
ATOM      3  H   UNK     1      36.202 -19.873 -20.891  0.00  0.00    -0.088 HD
ATOM      4  H   UNK     1      35.152 -19.064 -19.882  0.00  0.00    -0.088 HD
ATOM      5  H   UNK     1      36.690 -18.475 -20.127  0.00  0.00    -0.088 HD
ENDBRANCH   1   2
BRANCH   1   7
ATOM      6  O   UNK     1      33.456 -16.730 -21.512  0.00  0.00    -0.253 OA
ATOM      7  C   UNK     1      34.584 -17.028 -21.136  0.00  0.00    +0.293 C 
BRANCH   7   8
ATOM      8  O   UNK     1      35.239 -16.339 -20.166  0.00  0.00    -0.482 OA
ATOM      9  H   UNK     1      35.456 -15.437 -20.297  0.00  0.00    +0.295 HD
ENDBRANCH   7   8
ENDBRANCH   1   7
BRANCH   1  10
ATOM     10  C   UNK     1      34.588 -19.064 -22.625  0.00  0.00    -0.011 C 
BRANCH  10  11
ATOM     11  C   UNK     1      35.079 -19.032 -24.075  0.00  0.00    -0.004 C 
BRANCH  11  12
ATOM     12  C   UNK     1      34.331 -18.036 -24.971  0.00  0.00    -0.023 C 
BRANCH  12  13
ATOM     13  C   UNK     1      34.811 -16.590 -24.862  0.00  0.00    -0.078 C 
BRANCH  13  14
ATOM     14  N   UNK     1      33.705 -15.683 -24.687  0.00  0.00    +0.384 N 
ATOM     15  C   UNK     1      33.161 -15.252 -25.983  0.00  0.00    -0.101 C 
ATOM     16  C   UNK     1      34.100 -14.507 -23.901  0.00  0.00    -0.101 C 
ATOM     17  H   UNK     1      32.979 -16.188 -24.179  0.00  0.00    -0.080 HD
ENDBRANCH  13  14
ENDBRANCH  12  13
ENDBRANCH  11  12
ENDBRANCH  10  11
ENDBRANCH   1  10
TORSDOF 8
ENDMDL
MODEL 9
REMARK VINA RESULT:      -5.1     10.195     12.231
REMARK  Name = 193344
REMARK  8 active torsions:
REMARK  status: ('A' for Active; 'I' for Inactive)
REMARK    1  A    between atoms: C_1  and  N_2
REMARK    2  A    between atoms: C_1  and  C_7
REMARK    3  A    between atoms: C_1  and  C_10
REMARK    4  A    between atoms: C_7  and  O_8
REMARK    5  A    between atoms: C_10  and  C_11
REMARK    6  A    between atoms: C_11  and  C_12
REMARK    7  A    between atoms: C_12  and  C_13
REMARK    8  A    between atoms: C_13  and  N_14
REMARK                            x       y       z     vdW  Elec       q    Type
REMARK                         _______ _______ _______ _____ _____    ______ ____
ROOT
ATOM      1  C   UNK     1      33.958 -15.946 -22.199  0.00  0.00    +0.036 C 
ENDROOT
BRANCH   1   2
ATOM      2  N   UNK     1      32.991 -14.862 -22.398  0.00  0.00    +0.389 N 
ATOM      3  H   UNK     1      32.161 -15.228 -22.864  0.00  0.00    -0.088 HD
ATOM      4  H   UNK     1      33.411 -14.133 -22.973  0.00  0.00    -0.088 HD
ATOM      5  H   UNK     1      32.729 -14.472 -21.492  0.00  0.00    -0.088 HD
ENDBRANCH   1   2
BRANCH   1   7
ATOM      6  O   UNK     1      34.802 -14.562 -20.380  0.00  0.00    -0.253 OA
ATOM      7  C   UNK     1      34.691 -15.665 -20.900  0.00  0.00    +0.293 C 
BRANCH   7   8
ATOM      8  O   UNK     1      35.249 -16.784 -20.371  0.00  0.00    -0.482 OA
ATOM      9  H   UNK     1      35.845 -16.716 -19.652  0.00  0.00    +0.295 HD
ENDBRANCH   7   8
ENDBRANCH   1   7
BRANCH   1  10
ATOM     10  C   UNK     1      34.924 -15.987 -23.391  0.00  0.00    -0.011 C 
BRANCH  10  11
ATOM     11  C   UNK     1      34.926 -17.343 -24.104  0.00  0.00    -0.004 C 
BRANCH  11  12
ATOM     12  C   UNK     1      35.543 -18.484 -23.283  0.00  0.00    -0.023 C 
BRANCH  12  13
ATOM     13  C   UNK     1      34.537 -19.486 -22.723  0.00  0.00    -0.078 C 
BRANCH  13  14
ATOM     14  N   UNK     1      34.488 -19.429 -21.283  0.00  0.00    +0.384 N 
ATOM     15  C   UNK     1      35.525 -20.280 -20.682  0.00  0.00    -0.101 C 
ATOM     16  C   UNK     1      33.167 -19.830 -20.780  0.00  0.00    -0.101 C 
ATOM     17  H   UNK     1      34.661 -18.461 -21.014  0.00  0.00    -0.080 HD
ENDBRANCH  13  14
ENDBRANCH  12  13
ENDBRANCH  11  12
ENDBRANCH  10  11
ENDBRANCH   1  10
TORSDOF 8
ENDMDL
