MODEL 1
REMARK VINA RESULT:      -5.9      0.000      0.000
REMARK  Name = 448652
REMARK  2 active torsions:
REMARK  status: ('A' for Active; 'I' for Inactive)
REMARK    1  A    between atoms: C_5  and  C_9
REMARK    2  A    between atoms: C_9  and  O_10
REMARK                            x       y       z     vdW  Elec       q    Type
REMARK                         _______ _______ _______ _____ _____    ______ ____
ROOT
ATOM      1  S   UNL     1      36.517 -24.154 -14.225  0.00  0.00    +0.095 S 
ATOM      2  O   UNL     1      38.151 -27.454 -14.710  0.00  0.00    -0.265 OA
ATOM      3  N   UNL     1      36.503 -25.834 -14.318  0.00  0.00    -0.276 N 
ATOM      4  N   UNL     1      38.166 -23.951 -14.514  0.00  0.00    -0.182 NA
ATOM      5  C   UNL     1      38.695 -25.127 -14.676  0.00  0.00    +0.222 A 
ATOM      6  C   UNL     1      37.759 -26.313 -14.573  0.00  0.00    +0.289 A 
ATOM      7  H   UNL     1      35.703 -26.394 -14.206  0.00  0.00    +0.179 HD
ENDROOT
BRANCH   5   9
ATOM      8  O   UNL     1      40.990 -24.673 -14.257  0.00  0.00    -0.243 OA
ATOM      9  C   UNL     1      40.150 -25.203 -14.945  0.00  0.00    +0.361 C 
BRANCH   9  10
ATOM     10  O   UNL     1      40.352 -25.940 -16.051  0.00  0.00    -0.476 OA
ATOM     11  H   UNL     1      41.037 -25.712 -16.647  0.00  0.00    +0.295 HD
ENDBRANCH   9  10
ENDBRANCH   5   9
TORSDOF 2
ENDMDL
MODEL 2
REMARK VINA RESULT:      -5.7      1.641      2.062
REMARK  Name = 448652
REMARK  2 active torsions:
REMARK  status: ('A' for Active; 'I' for Inactive)
REMARK    1  A    between atoms: C_5  and  C_9
REMARK    2  A    between atoms: C_9  and  O_10
REMARK                            x       y       z     vdW  Elec       q    Type
REMARK                         _______ _______ _______ _____ _____    ______ ____
ROOT
ATOM      1  S   UNL     1      36.946 -25.563 -12.974  0.00  0.00    +0.095 S 
ATOM      2  O   UNL     1      38.724 -23.598 -15.577  0.00  0.00    -0.265 OA
ATOM      3  N   UNL     1      37.090 -24.264 -14.033  0.00  0.00    -0.276 N 
ATOM      4  N   UNL     1      38.411 -26.302 -13.363  0.00  0.00    -0.182 NA
ATOM      5  C   UNL     1      38.996 -25.583 -14.274  0.00  0.00    +0.222 A 
ATOM      6  C   UNL     1      38.264 -24.339 -14.731  0.00  0.00    +0.289 A 
ATOM      7  H   UNL     1      36.422 -23.549 -14.136  0.00  0.00    +0.179 HD
ENDROOT
BRANCH   5   9
ATOM      8  O   UNL     1      41.183 -26.494 -14.074  0.00  0.00    -0.243 OA
ATOM      9  C   UNL     1      40.313 -26.039 -14.779  0.00  0.00    +0.361 C 
BRANCH   9  10
ATOM     10  O   UNL     1      40.356 -25.858 -16.109  0.00  0.00    -0.476 OA
ATOM     11  H   UNL     1      39.573 -25.651 -16.580  0.00  0.00    +0.295 HD
ENDBRANCH   9  10
ENDBRANCH   5   9
TORSDOF 2
ENDMDL
MODEL 3
REMARK VINA RESULT:      -5.4      3.076      3.415
REMARK  Name = 448652
REMARK  2 active torsions:
REMARK  status: ('A' for Active; 'I' for Inactive)
REMARK    1  A    between atoms: C_5  and  C_9
REMARK    2  A    between atoms: C_9  and  O_10
REMARK                            x       y       z     vdW  Elec       q    Type
REMARK                         _______ _______ _______ _____ _____    ______ ____
ROOT
ATOM      1  S   UNL     1      38.169 -25.597 -15.034  0.00  0.00    +0.095 S 
ATOM      2  O   UNL     1      36.948 -26.559 -11.660  0.00  0.00    -0.265 OA
ATOM      3  N   UNL     1      37.533 -26.692 -13.926  0.00  0.00    -0.276 N 
ATOM      4  N   UNL     1      38.273 -24.284 -13.980  0.00  0.00    -0.182 NA
ATOM      5  C   UNL     1      37.837 -24.665 -12.816  0.00  0.00    +0.222 A 
ATOM      6  C   UNL     1      37.372 -26.102 -12.702  0.00  0.00    +0.289 A 
ATOM      7  H   UNL     1      37.309 -27.628 -14.130  0.00  0.00    +0.179 HD
ENDROOT
BRANCH   5   9
ATOM      8  O   UNL     1      38.597 -22.738 -11.651  0.00  0.00    -0.243 OA
ATOM      9  C   UNL     1      37.832 -23.672 -11.717  0.00  0.00    +0.361 C 
BRANCH   9  10
ATOM     10  O   UNL     1      36.861 -23.991 -10.845  0.00  0.00    -0.476 OA
ATOM     11  H   UNL     1      36.541 -23.347 -10.244  0.00  0.00    +0.295 HD
ENDBRANCH   9  10
ENDBRANCH   5   9
TORSDOF 2
ENDMDL
MODEL 4
REMARK VINA RESULT:      -5.4      8.965      9.969
REMARK  Name = 448652
REMARK  2 active torsions:
REMARK  status: ('A' for Active; 'I' for Inactive)
REMARK    1  A    between atoms: C_5  and  C_9
REMARK    2  A    between atoms: C_9  and  O_10
REMARK                            x       y       z     vdW  Elec       q    Type
REMARK                         _______ _______ _______ _____ _____    ______ ____
ROOT
ATOM      1  S   UNL     1      30.464 -24.831 -14.319  0.00  0.00    +0.095 S 
ATOM      2  O   UNL     1      31.147 -22.494 -17.125  0.00  0.00    -0.265 OA
ATOM      3  N   UNL     1      31.481 -23.881 -15.264  0.00  0.00    -0.276 N 
ATOM      4  N   UNL     1      29.036 -24.480 -15.146  0.00  0.00    -0.182 NA
ATOM      5  C   UNL     1      29.322 -23.662 -16.115  0.00  0.00    +0.222 A 
ATOM      6  C   UNL     1      30.774 -23.253 -16.253  0.00  0.00    +0.289 A 
ATOM      7  H   UNL     1      32.451 -23.790 -15.126  0.00  0.00    +0.179 HD
ENDROOT
BRANCH   5   9
ATOM      8  O   UNL     1      27.537 -23.950 -17.657  0.00  0.00    -0.243 OA
ATOM      9  C   UNL     1      28.216 -23.207 -16.989  0.00  0.00    +0.361 C 
BRANCH   9  10
ATOM     10  O   UNL     1      28.113 -21.870 -16.903  0.00  0.00    -0.476 OA
ATOM     11  H   UNL     1      27.957 -21.361 -17.674  0.00  0.00    +0.295 HD
ENDBRANCH   9  10
ENDBRANCH   5   9
TORSDOF 2
ENDMDL
MODEL 5
REMARK VINA RESULT:      -5.3      9.291     10.130
REMARK  Name = 448652
REMARK  2 active torsions:
REMARK  status: ('A' for Active; 'I' for Inactive)
REMARK    1  A    between atoms: C_5  and  C_9
REMARK    2  A    between atoms: C_9  and  O_10
REMARK                            x       y       z     vdW  Elec       q    Type
REMARK                         _______ _______ _______ _____ _____    ______ ____
ROOT
ATOM      1  S   UNL     1      31.720 -23.166 -16.111  0.00  0.00    +0.095 S 
ATOM      2  O   UNL     1      28.632 -24.891 -14.976  0.00  0.00    -0.265 OA
ATOM      3  N   UNL     1      30.890 -24.297 -15.181  0.00  0.00    -0.276 N 
ATOM      4  N   UNL     1      30.374 -22.537 -16.909  0.00  0.00    -0.182 NA
ATOM      5  C   UNL     1      29.320 -23.168 -16.482  0.00  0.00    +0.222 A 
ATOM      6  C   UNL     1      29.548 -24.243 -15.440  0.00  0.00    +0.289 A 
ATOM      7  H   UNL     1      31.312 -24.911 -14.539  0.00  0.00    +0.179 HD
ENDROOT
BRANCH   5   9
ATOM      8  O   UNL     1      27.514 -21.686 -16.920  0.00  0.00    -0.243 OA
ATOM      9  C   UNL     1      28.005 -22.783 -17.046  0.00  0.00    +0.361 C 
BRANCH   9  10
ATOM     10  O   UNL     1      27.484 -23.838 -17.695  0.00  0.00    -0.476 OA
ATOM     11  H   UNL     1      27.099 -23.723 -18.542  0.00  0.00    +0.295 HD
ENDBRANCH   9  10
ENDBRANCH   5   9
TORSDOF 2
ENDMDL
MODEL 6
REMARK VINA RESULT:      -5.2      1.997      3.321
REMARK  Name = 448652
REMARK  2 active torsions:
REMARK  status: ('A' for Active; 'I' for Inactive)
REMARK    1  A    between atoms: C_5  and  C_9
REMARK    2  A    between atoms: C_9  and  O_10
REMARK                            x       y       z     vdW  Elec       q    Type
REMARK                         _______ _______ _______ _____ _____    ______ ____
ROOT
ATOM      1  S   UNL     1      35.637 -22.961 -15.429  0.00  0.00    +0.095 S 
ATOM      2  O   UNL     1      38.730 -24.568 -14.147  0.00  0.00    -0.265 OA
ATOM      3  N   UNL     1      37.174 -22.921 -14.745  0.00  0.00    -0.276 N 
ATOM      4  N   UNL     1      35.525 -24.638 -15.572  0.00  0.00    -0.182 NA
ATOM      5  C   UNL     1      36.625 -25.156 -15.113  0.00  0.00    +0.222 A 
ATOM      6  C   UNL     1      37.669 -24.187 -14.597  0.00  0.00    +0.289 A 
ATOM      7  H   UNL     1      37.650 -22.100 -14.486  0.00  0.00    +0.179 HD
ENDROOT
BRANCH   5   9
ATOM      8  O   UNL     1      36.696 -27.298 -16.142  0.00  0.00    -0.243 OA
ATOM      9  C   UNL     1      36.760 -26.631 -15.136  0.00  0.00    +0.361 C 
BRANCH   9  10
ATOM     10  O   UNL     1      36.958 -27.070 -13.882  0.00  0.00    -0.476 OA
ATOM     11  H   UNL     1      37.646 -26.706 -13.361  0.00  0.00    +0.295 HD
ENDBRANCH   9  10
ENDBRANCH   5   9
TORSDOF 2
ENDMDL
MODEL 7
REMARK VINA RESULT:      -5.2      1.873      1.969
REMARK  Name = 448652
REMARK  2 active torsions:
REMARK  status: ('A' for Active; 'I' for Inactive)
REMARK    1  A    between atoms: C_5  and  C_9
REMARK    2  A    between atoms: C_9  and  O_10
REMARK                            x       y       z     vdW  Elec       q    Type
REMARK                         _______ _______ _______ _____ _____    ______ ____
ROOT
ATOM      1  S   UNL     1      36.652 -26.368 -15.027  0.00  0.00    +0.095 S 
ATOM      2  O   UNL     1      38.479 -25.653 -11.873  0.00  0.00    -0.265 OA
ATOM      3  N   UNL     1      36.734 -26.130 -13.363  0.00  0.00    -0.276 N 
ATOM      4  N   UNL     1      38.295 -26.150 -15.341  0.00  0.00    -0.182 NA
ATOM      5  C   UNL     1      38.893 -25.902 -14.213  0.00  0.00    +0.222 A 
ATOM      6  C   UNL     1      38.021 -25.874 -12.975  0.00  0.00    +0.289 A 
ATOM      7  H   UNL     1      35.963 -26.171 -12.754  0.00  0.00    +0.179 HD
ENDROOT
BRANCH   5   9
ATOM      8  O   UNL     1      40.876 -24.688 -14.706  0.00  0.00    -0.243 OA
ATOM      9  C   UNL     1      40.356 -25.674 -14.238  0.00  0.00    +0.361 C 
BRANCH   9  10
ATOM     10  O   UNL     1      40.971 -26.724 -13.668  0.00  0.00    -0.476 OA
ATOM     11  H   UNL     1      41.857 -26.645 -13.373  0.00  0.00    +0.295 HD
ENDBRANCH   9  10
ENDBRANCH   5   9
TORSDOF 2
ENDMDL
MODEL 8
REMARK VINA RESULT:      -5.2     11.398     11.809
REMARK  Name = 448652
REMARK  2 active torsions:
REMARK  status: ('A' for Active; 'I' for Inactive)
REMARK    1  A    between atoms: C_5  and  C_9
REMARK    2  A    between atoms: C_9  and  O_10
REMARK                            x       y       z     vdW  Elec       q    Type
REMARK                         _______ _______ _______ _____ _____    ______ ____
ROOT
ATOM      1  S   UNL     1      43.020 -12.975 -17.579  0.00  0.00    +0.095 S 
ATOM      2  O   UNL     1      42.788 -16.451 -16.289  0.00  0.00    -0.265 OA
ATOM      3  N   UNL     1      43.475 -14.595 -17.545  0.00  0.00    -0.276 N 
ATOM      4  N   UNL     1      41.847 -13.071 -16.370  0.00  0.00    -0.182 NA
ATOM      5  C   UNL     1      41.801 -14.301 -15.950  0.00  0.00    +0.222 A 
ATOM      6  C   UNL     1      42.751 -15.280 -16.608  0.00  0.00    +0.289 A 
ATOM      7  H   UNL     1      44.167 -14.994 -18.119  0.00  0.00    +0.179 HD
ENDROOT
BRANCH   5   9
ATOM      8  O   UNL     1      40.661 -13.949 -13.894  0.00  0.00    -0.243 OA
ATOM      9  C   UNL     1      40.835 -14.631 -14.876  0.00  0.00    +0.361 C 
BRANCH   9  10
ATOM     10  O   UNL     1      40.215 -15.782 -15.187  0.00  0.00    -0.476 OA
ATOM     11  H   UNL     1      40.498 -16.282 -15.927  0.00  0.00    +0.295 HD
ENDBRANCH   9  10
ENDBRANCH   5   9
TORSDOF 2
ENDMDL
MODEL 9
REMARK VINA RESULT:      -5.1      2.437      3.214
REMARK  Name = 448652
REMARK  2 active torsions:
REMARK  status: ('A' for Active; 'I' for Inactive)
REMARK    1  A    between atoms: C_5  and  C_9
REMARK    2  A    between atoms: C_9  and  O_10
REMARK                            x       y       z     vdW  Elec       q    Type
REMARK                         _______ _______ _______ _____ _____    ______ ____
ROOT
ATOM      1  S   UNL     1      35.777 -24.293 -12.088  0.00  0.00    +0.095 S 
ATOM      2  O   UNL     1      35.985 -23.994 -15.785  0.00  0.00    -0.265 OA
ATOM      3  N   UNL     1      35.523 -23.487 -13.543  0.00  0.00    -0.276 N 
ATOM      4  N   UNL     1      36.509 -25.664 -12.744  0.00  0.00    -0.182 NA
ATOM      5  C   UNL     1      36.560 -25.516 -14.035  0.00  0.00    +0.222 A 
ATOM      6  C   UNL     1      35.986 -24.231 -14.594  0.00  0.00    +0.289 A 
ATOM      7  H   UNL     1      35.100 -22.603 -13.626  0.00  0.00    +0.179 HD
ENDROOT
BRANCH   5   9
ATOM      8  O   UNL     1      38.237 -27.109 -14.582  0.00  0.00    -0.243 OA
ATOM      9  C   UNL     1      37.168 -26.604 -14.835  0.00  0.00    +0.361 C 
BRANCH   9  10
ATOM     10  O   UNL     1      36.345 -26.911 -15.851  0.00  0.00    -0.476 OA
ATOM     11  H   UNL     1      35.840 -27.700 -15.824  0.00  0.00    +0.295 HD
ENDBRANCH   9  10
ENDBRANCH   5   9
TORSDOF 2
ENDMDL
