MODEL 1
REMARK VINA RESULT:     -10.8      0.000      0.000
REMARK  Name = 40466858
REMARK  6 active torsions:
REMARK  status: ('A' for Active; 'I' for Inactive)
REMARK    1  A    between atoms: C_1  and  C_21
REMARK    2  A    between atoms: C_2  and  C_3
REMARK    3  A    between atoms: C_2  and  C_11
REMARK    4  A    between atoms: C_14  and  C_16
REMARK    5  A    between atoms: C_17  and  C_20
REMARK    6  A    between atoms: C_21  and  N_22
REMARK                            x       y       z     vdW  Elec       q    Type
REMARK                         _______ _______ _______ _____ _____    ______ ____
ROOT
ATOM      1  C   UNL     1      33.979 -22.869 -16.982  0.00  0.00    -0.047 C 
ATOM      2  C   UNL     1      33.915 -23.533 -15.807  0.00  0.00    +0.023 C 
ENDROOT
BRANCH   2   3
ATOM      3  C   UNL     1      35.157 -23.969 -15.127  0.00  0.00    +0.002 C 
ATOM      4  C   UNL     1      35.844 -23.086 -14.294  0.00  0.00    -0.000 C 
ATOM      5  C   UNL     1      35.639 -25.264 -15.320  0.00  0.00    -0.000 C 
ATOM      6  C   UNL     1      37.012 -23.497 -13.654  0.00  0.00    -0.004 C 
ATOM      7  C   UNL     1      36.808 -25.675 -14.679  0.00  0.00    -0.004 C 
ATOM      8  C   UNL     1      37.495 -24.791 -13.846  0.00  0.00    -0.022 C 
ATOM      9  C   UNL     1      38.744 -25.231 -13.163  0.00  0.00    +0.031 C 
ENDBRANCH   2   3
BRANCH   2  11
ATOM     10  N   UNL     1      31.536 -23.165 -15.842  0.00  0.00    -0.406 NA
ATOM     11  C   UNL     1      32.569 -23.789 -15.232  0.00  0.00    +0.130 C 
ATOM     12  C   UNL     1      32.433 -24.627 -14.137  0.00  0.00    +0.028 C 
ATOM     13  C   UNL     1      31.154 -24.838 -13.634  0.00  0.00    -0.016 C 
ATOM     14  C   UNL     1      30.308 -23.394 -15.325  0.00  0.00    +0.114 C 
ATOM     15  C   UNL     1      30.065 -24.213 -14.235  0.00  0.00    +0.085 C 
BRANCH  14  16
ATOM     16  C   UNL     1      29.203 -22.718 -15.986  0.00  0.00    +0.035 C 
ATOM     17  C   UNL     1      27.909 -22.770 -15.597  0.00  0.00    +0.088 C 
BRANCH  17  20
ATOM     18  O   UNL     1      25.667 -22.077 -15.784  0.00  0.00    -0.241 OA
ATOM     19  O   UNL     1      27.114 -21.478 -17.445  0.00  0.00    -0.241 OA
ATOM     20  C   UNL     1      26.795 -22.035 -16.358  0.00  0.00    +0.388 C 
ENDBRANCH  17  20
ENDBRANCH  14  16
ENDBRANCH   2  11
BRANCH   1  21
ATOM     21  C   UNL     1      35.203 -22.479 -17.757  0.00  0.00    -0.050 C 
BRANCH  21  22
ATOM     22  N   UNL     1      34.900 -22.136 -19.180  0.00  0.00    +0.390 N 
ATOM     23  C   UNL     1      35.721 -20.986 -19.717  0.00  0.00    -0.077 C 
ATOM     24  C   UNL     1      33.440 -21.818 -19.449  0.00  0.00    -0.077 C 
ATOM     25  C   UNL     1      34.816 -20.365 -20.759  0.00  0.00    -0.025 C 
ATOM     26  C   UNL     1      33.452 -20.448 -20.102  0.00  0.00    -0.025 C 
ATOM     27  H   UNL     1      35.150 -22.997 -19.666  0.00  0.00    -0.079 HD
ENDBRANCH  21  22
ENDBRANCH   1  21
TORSDOF 6
ENDMDL
MODEL 2
REMARK VINA RESULT:     -10.4      4.510      7.722
REMARK  Name = 40466858
REMARK  6 active torsions:
REMARK  status: ('A' for Active; 'I' for Inactive)
REMARK    1  A    between atoms: C_1  and  C_21
REMARK    2  A    between atoms: C_2  and  C_3
REMARK    3  A    between atoms: C_2  and  C_11
REMARK    4  A    between atoms: C_14  and  C_16
REMARK    5  A    between atoms: C_17  and  C_20
REMARK    6  A    between atoms: C_21  and  N_22
REMARK                            x       y       z     vdW  Elec       q    Type
REMARK                         _______ _______ _______ _____ _____    ______ ____
ROOT
ATOM      1  C   UNL     1      32.828 -23.577 -15.186  0.00  0.00    -0.047 C 
ATOM      2  C   UNL     1      34.171 -23.547 -15.340  0.00  0.00    +0.023 C 
ENDROOT
BRANCH   2   3
ATOM      3  C   UNL     1      34.771 -22.922 -16.541  0.00  0.00    +0.002 C 
ATOM      4  C   UNL     1      36.048 -22.364 -16.473  0.00  0.00    -0.000 C 
ATOM      5  C   UNL     1      34.060 -22.893 -17.740  0.00  0.00    -0.000 C 
ATOM      6  C   UNL     1      36.613 -21.777 -17.605  0.00  0.00    -0.004 C 
ATOM      7  C   UNL     1      34.625 -22.304 -18.872  0.00  0.00    -0.004 C 
ATOM      8  C   UNL     1      35.902 -21.747 -18.804  0.00  0.00    -0.022 C 
ATOM      9  C   UNL     1      36.506 -21.119 -20.014  0.00  0.00    +0.031 C 
ENDBRANCH   2   3
BRANCH   2  11
ATOM     10  N   UNL     1      36.131 -24.770 -14.663  0.00  0.00    -0.406 NA
ATOM     11  C   UNL     1      35.001 -24.146 -14.263  0.00  0.00    +0.130 C 
ATOM     12  C   UNL     1      34.599 -24.042 -12.941  0.00  0.00    +0.028 C 
ATOM     13  C   UNL     1      35.407 -24.617 -11.967  0.00  0.00    -0.016 C 
ATOM     14  C   UNL     1      36.892 -25.317 -13.689  0.00  0.00    +0.114 C 
ATOM     15  C   UNL     1      36.579 -25.268 -12.341  0.00  0.00    +0.085 C 
BRANCH  14  16
ATOM     16  C   UNL     1      38.105 -25.987 -14.129  0.00  0.00    +0.035 C 
ATOM     17  C   UNL     1      39.335 -25.428 -14.175  0.00  0.00    +0.088 C 
BRANCH  17  20
ATOM     18  O   UNL     1      40.734 -26.164 -15.919  0.00  0.00    -0.241 OA
ATOM     19  O   UNL     1      41.273 -26.774 -13.787  0.00  0.00    -0.241 OA
ATOM     20  C   UNL     1      40.569 -26.201 -14.665  0.00  0.00    +0.388 C 
ENDBRANCH  17  20
ENDBRANCH  14  16
ENDBRANCH   2  11
BRANCH   1  21
ATOM     21  C   UNL     1      31.781 -23.035 -16.113  0.00  0.00    -0.050 C 
BRANCH  21  22
ATOM     22  N   UNL     1      30.396 -23.191 -15.572  0.00  0.00    +0.390 N 
ATOM     23  C   UNL     1      30.091 -24.584 -15.069  0.00  0.00    -0.077 C 
ATOM     24  C   UNL     1      29.297 -22.807 -16.547  0.00  0.00    -0.077 C 
ATOM     25  C   UNL     1      28.599 -24.715 -15.285  0.00  0.00    -0.025 C 
ATOM     26  C   UNL     1      28.397 -24.026 -16.620  0.00  0.00    -0.025 C 
ATOM     27  H   UNL     1      30.396 -22.534 -14.792  0.00  0.00    -0.079 HD
ENDBRANCH  21  22
ENDBRANCH   1  21
TORSDOF 6
ENDMDL
MODEL 3
REMARK VINA RESULT:     -10.1      1.582      4.792
REMARK  Name = 40466858
REMARK  6 active torsions:
REMARK  status: ('A' for Active; 'I' for Inactive)
REMARK    1  A    between atoms: C_1  and  C_21
REMARK    2  A    between atoms: C_2  and  C_3
REMARK    3  A    between atoms: C_2  and  C_11
REMARK    4  A    between atoms: C_14  and  C_16
REMARK    5  A    between atoms: C_17  and  C_20
REMARK    6  A    between atoms: C_21  and  N_22
REMARK                            x       y       z     vdW  Elec       q    Type
REMARK                         _______ _______ _______ _____ _____    ______ ____
ROOT
ATOM      1  C   UNL     1      35.179 -24.578 -14.941  0.00  0.00    -0.047 C 
ATOM      2  C   UNL     1      34.354 -23.715 -15.574  0.00  0.00    +0.023 C 
ENDROOT
BRANCH   2   3
ATOM      3  C   UNL     1      34.818 -22.983 -16.775  0.00  0.00    +0.002 C 
ATOM      4  C   UNL     1      36.062 -22.352 -16.770  0.00  0.00    -0.000 C 
ATOM      5  C   UNL     1      34.011 -22.925 -17.911  0.00  0.00    -0.000 C 
ATOM      6  C   UNL     1      36.499 -21.663 -17.901  0.00  0.00    -0.004 C 
ATOM      7  C   UNL     1      34.448 -22.235 -19.042  0.00  0.00    -0.004 C 
ATOM      8  C   UNL     1      35.692 -21.605 -19.037  0.00  0.00    -0.022 C 
ATOM      9  C   UNL     1      36.158 -20.868 -20.247  0.00  0.00    +0.031 C 
ENDBRANCH   2   3
BRANCH   2  11
ATOM     10  N   UNL     1      31.999 -23.373 -15.940  0.00  0.00    -0.406 NA
ATOM     11  C   UNL     1      32.982 -23.548 -15.029  0.00  0.00    +0.130 C 
ATOM     12  C   UNL     1      32.774 -23.579 -13.659  0.00  0.00    +0.028 C 
ATOM     13  C   UNL     1      31.473 -23.419 -13.194  0.00  0.00    -0.016 C 
ATOM     14  C   UNL     1      30.748 -23.222 -15.451  0.00  0.00    +0.114 C 
ATOM     15  C   UNL     1      30.435 -23.237 -14.102  0.00  0.00    +0.085 C 
BRANCH  14  16
ATOM     16  C   UNL     1      29.697 -23.034 -16.438  0.00  0.00    +0.035 C 
ATOM     17  C   UNL     1      28.491 -22.470 -16.199  0.00  0.00    +0.088 C 
BRANCH  17  20
ATOM     18  O   UNL     1      27.284 -23.346 -18.021  0.00  0.00    -0.241 OA
ATOM     19  O   UNL     1      26.819 -21.212 -17.357  0.00  0.00    -0.241 OA
ATOM     20  C   UNL     1      27.427 -22.317 -17.296  0.00  0.00    +0.388 C 
ENDBRANCH  17  20
ENDBRANCH  14  16
ENDBRANCH   2  11
BRANCH   1  21
ATOM     21  C   UNL     1      36.593 -24.930 -15.295  0.00  0.00    -0.050 C 
BRANCH  21  22
ATOM     22  N   UNL     1      37.571 -24.519 -14.242  0.00  0.00    +0.390 N 
ATOM     23  C   UNL     1      37.899 -25.616 -13.253  0.00  0.00    -0.077 C 
ATOM     24  C   UNL     1      37.155 -23.296 -13.444  0.00  0.00    -0.077 C 
ATOM     25  C   UNL     1      38.231 -24.858 -11.986  0.00  0.00    -0.025 C 
ATOM     26  C   UNL     1      37.207 -23.740 -11.994  0.00  0.00    -0.025 C 
ATOM     27  H   UNL     1      38.398 -24.293 -14.794  0.00  0.00    -0.079 HD
ENDBRANCH  21  22
ENDBRANCH   1  21
TORSDOF 6
ENDMDL
MODEL 4
REMARK VINA RESULT:      -8.7     10.472     14.557
REMARK  Name = 40466858
REMARK  6 active torsions:
REMARK  status: ('A' for Active; 'I' for Inactive)
REMARK    1  A    between atoms: C_1  and  C_21
REMARK    2  A    between atoms: C_2  and  C_3
REMARK    3  A    between atoms: C_2  and  C_11
REMARK    4  A    between atoms: C_14  and  C_16
REMARK    5  A    between atoms: C_17  and  C_20
REMARK    6  A    between atoms: C_21  and  N_22
REMARK                            x       y       z     vdW  Elec       q    Type
REMARK                         _______ _______ _______ _____ _____    ______ ____
ROOT
ATOM      1  C   UNL     1      31.711 -10.522 -22.429  0.00  0.00    -0.047 C 
ATOM      2  C   UNL     1      32.617 -11.446 -22.819  0.00  0.00    +0.023 C 
ENDROOT
BRANCH   2   3
ATOM      3  C   UNL     1      33.515 -11.175 -23.964  0.00  0.00    +0.002 C 
ATOM      4  C   UNL     1      34.414 -10.108 -23.908  0.00  0.00    -0.000 C 
ATOM      5  C   UNL     1      33.465 -11.985 -25.098  0.00  0.00    -0.000 C 
ATOM      6  C   UNL     1      35.261  -9.853 -24.986  0.00  0.00    -0.004 C 
ATOM      7  C   UNL     1      34.312 -11.729 -26.176  0.00  0.00    -0.004 C 
ATOM      8  C   UNL     1      35.210 -10.663 -26.120  0.00  0.00    -0.022 C 
ATOM      9  C   UNL     1      36.115 -10.391 -27.273  0.00  0.00    +0.031 C 
ENDBRANCH   2   3
BRANCH   2  11
ATOM     10  N   UNL     1      33.264 -13.761 -22.680  0.00  0.00    -0.406 NA
ATOM     11  C   UNL     1      32.676 -12.718 -22.053  0.00  0.00    +0.130 C 
ATOM     12  C   UNL     1      32.147 -12.780 -20.774  0.00  0.00    +0.028 C 
ATOM     13  C   UNL     1      32.226 -13.991 -20.094  0.00  0.00    -0.016 C 
ATOM     14  C   UNL     1      33.323 -14.922 -21.989  0.00  0.00    +0.114 C 
ATOM     15  C   UNL     1      32.825 -15.087 -20.707  0.00  0.00    +0.085 C 
BRANCH  14  16
ATOM     16  C   UNL     1      33.956 -16.038 -22.672  0.00  0.00    +0.035 C 
ATOM     17  C   UNL     1      34.216 -16.098 -23.998  0.00  0.00    +0.088 C 
BRANCH  17  20
ATOM     18  O   UNL     1      34.816 -17.331 -25.912  0.00  0.00    -0.241 OA
ATOM     19  O   UNL     1      35.408 -18.167 -23.872  0.00  0.00    -0.241 OA
ATOM     20  C   UNL     1      34.880 -17.322 -24.647  0.00  0.00    +0.388 C 
ENDBRANCH  17  20
ENDBRANCH  14  16
ENDBRANCH   2  11
BRANCH   1  21
ATOM     21  C   UNL     1      31.462  -9.167 -23.022  0.00  0.00    -0.050 C 
BRANCH  21  22
ATOM     22  N   UNL     1      32.237  -8.087 -22.339  0.00  0.00    +0.390 N 
ATOM     23  C   UNL     1      32.382  -8.292 -20.847  0.00  0.00    -0.077 C 
ATOM     24  C   UNL     1      31.686  -6.689 -22.555  0.00  0.00    -0.077 C 
ATOM     25  C   UNL     1      32.484  -6.881 -20.308  0.00  0.00    -0.025 C 
ATOM     26  C   UNL     1      31.479  -6.131 -21.159  0.00  0.00    -0.025 C 
ATOM     27  H   UNL     1      33.149  -8.161 -22.788  0.00  0.00    -0.079 HD
ENDBRANCH  21  22
ENDBRANCH   1  21
TORSDOF 6
ENDMDL
MODEL 5
REMARK VINA RESULT:      -8.6     12.369     16.345
REMARK  Name = 40466858
REMARK  6 active torsions:
REMARK  status: ('A' for Active; 'I' for Inactive)
REMARK    1  A    between atoms: C_1  and  C_21
REMARK    2  A    between atoms: C_2  and  C_3
REMARK    3  A    between atoms: C_2  and  C_11
REMARK    4  A    between atoms: C_14  and  C_16
REMARK    5  A    between atoms: C_17  and  C_20
REMARK    6  A    between atoms: C_21  and  N_22
REMARK                            x       y       z     vdW  Elec       q    Type
REMARK                         _______ _______ _______ _____ _____    ______ ____
ROOT
ATOM      1  C   UNL     1      31.916 -11.253 -22.005  0.00  0.00    -0.047 C 
ATOM      2  C   UNL     1      32.515 -10.189 -22.583  0.00  0.00    +0.023 C 
ENDROOT
BRANCH   2   3
ATOM      3  C   UNL     1      33.393 -10.374 -23.760  0.00  0.00    +0.002 C 
ATOM      4  C   UNL     1      34.498  -9.542 -23.945  0.00  0.00    -0.000 C 
ATOM      5  C   UNL     1      33.116 -11.381 -24.685  0.00  0.00    -0.000 C 
ATOM      6  C   UNL     1      35.326  -9.717 -25.054  0.00  0.00    -0.004 C 
ATOM      7  C   UNL     1      33.944 -11.555 -25.795  0.00  0.00    -0.004 C 
ATOM      8  C   UNL     1      35.049 -10.724 -25.979  0.00  0.00    -0.022 C 
ATOM      9  C   UNL     1      35.932 -10.911 -27.165  0.00  0.00    +0.031 C 
ENDBRANCH   2   3
BRANCH   2  11
ATOM     10  N   UNL     1      31.799  -7.907 -22.862  0.00  0.00    -0.406 NA
ATOM     11  C   UNL     1      32.247  -8.848 -22.001  0.00  0.00    +0.130 C 
ATOM     12  C   UNL     1      32.457  -8.626 -20.650  0.00  0.00    +0.028 C 
ATOM     13  C   UNL     1      32.192  -7.356 -20.149  0.00  0.00    -0.016 C 
ATOM     14  C   UNL     1      31.552  -6.685 -22.340  0.00  0.00    +0.114 C 
ATOM     15  C   UNL     1      31.729  -6.361 -21.005  0.00  0.00    +0.085 C 
BRANCH  14  16
ATOM     16  C   UNL     1      31.071  -5.679 -23.273  0.00  0.00    +0.035 C 
ATOM     17  C   UNL     1      31.818  -5.074 -24.224  0.00  0.00    +0.088 C 
BRANCH  17  20
ATOM     18  O   UNL     1      31.832  -3.931 -26.282  0.00  0.00    -0.241 OA
ATOM     19  O   UNL     1      30.252  -3.343 -24.744  0.00  0.00    -0.241 OA
ATOM     20  C   UNL     1      31.238  -4.009 -25.167  0.00  0.00    +0.388 C 
ENDBRANCH  17  20
ENDBRANCH  14  16
ENDBRANCH   2  11
BRANCH   1  21
ATOM     21  C   UNL     1      32.013 -12.696 -22.405  0.00  0.00    -0.050 C 
BRANCH  21  22
ATOM     22  N   UNL     1      33.091 -13.426 -21.670  0.00  0.00    +0.390 N 
ATOM     23  C   UNL     1      34.026 -14.200 -22.572  0.00  0.00    -0.077 C 
ATOM     24  C   UNL     1      32.584 -14.386 -20.608  0.00  0.00    -0.077 C 
ATOM     25  C   UNL     1      34.480 -15.351 -21.701  0.00  0.00    -0.025 C 
ATOM     26  C   UNL     1      33.212 -15.723 -20.958  0.00  0.00    -0.025 C 
ATOM     27  H   UNL     1      33.597 -12.665 -21.219  0.00  0.00    -0.079 HD
ENDBRANCH  21  22
ENDBRANCH   1  21
TORSDOF 6
ENDMDL
MODEL 6
REMARK VINA RESULT:      -8.5      3.614      7.351
REMARK  Name = 40466858
REMARK  6 active torsions:
REMARK  status: ('A' for Active; 'I' for Inactive)
REMARK    1  A    between atoms: C_1  and  C_21
REMARK    2  A    between atoms: C_2  and  C_3
REMARK    3  A    between atoms: C_2  and  C_11
REMARK    4  A    between atoms: C_14  and  C_16
REMARK    5  A    between atoms: C_17  and  C_20
REMARK    6  A    between atoms: C_21  and  N_22
REMARK                            x       y       z     vdW  Elec       q    Type
REMARK                         _______ _______ _______ _____ _____    ______ ____
ROOT
ATOM      1  C   UNL     1      33.233 -23.191 -16.932  0.00  0.00    -0.047 C 
ATOM      2  C   UNL     1      34.388 -22.618 -17.338  0.00  0.00    +0.023 C 
ENDROOT
BRANCH   2   3
ATOM      3  C   UNL     1      34.424 -21.808 -18.577  0.00  0.00    +0.002 C 
ATOM      4  C   UNL     1      33.237 -21.334 -19.136  0.00  0.00    -0.000 C 
ATOM      5  C   UNL     1      35.646 -21.517 -19.185  0.00  0.00    -0.000 C 
ATOM      6  C   UNL     1      33.271 -20.569 -20.302  0.00  0.00    -0.004 C 
ATOM      7  C   UNL     1      35.679 -20.753 -20.352  0.00  0.00    -0.004 C 
ATOM      8  C   UNL     1      34.492 -20.280 -20.910  0.00  0.00    -0.022 C 
ATOM      9  C   UNL     1      34.530 -19.463 -22.157  0.00  0.00    +0.031 C 
ENDBRANCH   2   3
BRANCH   2  11
ATOM     10  N   UNL     1      35.380 -23.388 -15.284  0.00  0.00    -0.406 NA
ATOM     11  C   UNL     1      35.594 -22.825 -16.494  0.00  0.00    +0.130 C 
ATOM     12  C   UNL     1      36.840 -22.447 -16.966  0.00  0.00    +0.028 C 
ATOM     13  C   UNL     1      37.940 -22.661 -16.142  0.00  0.00    -0.016 C 
ATOM     14  C   UNL     1      36.472 -23.579 -14.511  0.00  0.00    +0.114 C 
ATOM     15  C   UNL     1      37.761 -23.238 -14.889  0.00  0.00    +0.085 C 
BRANCH  14  16
ATOM     16  C   UNL     1      36.234 -24.184 -13.210  0.00  0.00    +0.035 C 
ATOM     17  C   UNL     1      36.162 -23.515 -12.038  0.00  0.00    +0.088 C 
BRANCH  17  20
ATOM     18  O   UNL     1      35.212 -25.277 -10.798  0.00  0.00    -0.241 OA
ATOM     19  O   UNL     1      36.435 -23.714  -9.670  0.00  0.00    -0.241 OA
ATOM     20  C   UNL     1      35.917 -24.230 -10.700  0.00  0.00    +0.388 C 
ENDBRANCH  17  20
ENDBRANCH  14  16
ENDBRANCH   2  11
BRANCH   1  21
ATOM     21  C   UNL     1      31.888 -23.125 -17.592  0.00  0.00    -0.050 C 
BRANCH  21  22
ATOM     22  N   UNL     1      30.779 -23.551 -16.685  0.00  0.00    +0.390 N 
ATOM     23  C   UNL     1      29.721 -22.491 -16.476  0.00  0.00    -0.077 C 
ATOM     24  C   UNL     1      31.236 -24.016 -15.314  0.00  0.00    -0.077 C 
ATOM     25  C   UNL     1      29.193 -22.792 -15.090  0.00  0.00    -0.025 C 
ATOM     26  C   UNL     1      30.452 -23.165 -14.332  0.00  0.00    -0.025 C 
ATOM     27  H   UNL     1      30.381 -24.342 -17.191  0.00  0.00    -0.079 HD
ENDBRANCH  21  22
ENDBRANCH   1  21
TORSDOF 6
ENDMDL
MODEL 7
REMARK VINA RESULT:      -8.4     12.802     16.476
REMARK  Name = 40466858
REMARK  6 active torsions:
REMARK  status: ('A' for Active; 'I' for Inactive)
REMARK    1  A    between atoms: C_1  and  C_21
REMARK    2  A    between atoms: C_2  and  C_3
REMARK    3  A    between atoms: C_2  and  C_11
REMARK    4  A    between atoms: C_14  and  C_16
REMARK    5  A    between atoms: C_17  and  C_20
REMARK    6  A    between atoms: C_21  and  N_22
REMARK                            x       y       z     vdW  Elec       q    Type
REMARK                         _______ _______ _______ _____ _____    ______ ____
ROOT
ATOM      1  C   UNL     1      31.876  -7.617 -23.398  0.00  0.00    -0.047 C 
ATOM      2  C   UNL     1      32.469  -8.765 -23.000  0.00  0.00    +0.023 C 
ENDROOT
BRANCH   2   3
ATOM      3  C   UNL     1      32.120  -9.371 -21.695  0.00  0.00    +0.002 C 
ATOM      4  C   UNL     1      31.388 -10.558 -21.650  0.00  0.00    -0.000 C 
ATOM      5  C   UNL     1      32.525  -8.756 -20.510  0.00  0.00    -0.000 C 
ATOM      6  C   UNL     1      31.060 -11.129 -20.421  0.00  0.00    -0.004 C 
ATOM      7  C   UNL     1      32.196  -9.328 -19.280  0.00  0.00    -0.004 C 
ATOM      8  C   UNL     1      31.463 -10.515 -19.236  0.00  0.00    -0.022 C 
ATOM      9  C   UNL     1      31.113 -11.125 -17.922  0.00  0.00    +0.031 C 
ENDBRANCH   2   3
BRANCH   2  11
ATOM     10  N   UNL     1      33.185 -10.645 -24.322  0.00  0.00    -0.406 NA
ATOM     11  C   UNL     1      33.458  -9.384 -23.919  0.00  0.00    +0.130 C 
ATOM     12  C   UNL     1      34.578  -8.670 -24.313  0.00  0.00    +0.028 C 
ATOM     13  C   UNL     1      35.476  -9.290 -25.175  0.00  0.00    -0.016 C 
ATOM     14  C   UNL     1      34.080 -11.216 -25.159  0.00  0.00    +0.114 C 
ATOM     15  C   UNL     1      35.229 -10.587 -25.611  0.00  0.00    +0.085 C 
BRANCH  14  16
ATOM     16  C   UNL     1      33.778 -12.572 -25.586  0.00  0.00    +0.035 C 
ATOM     17  C   UNL     1      33.574 -13.625 -24.762  0.00  0.00    +0.088 C 
BRANCH  17  20
ATOM     18  O   UNL     1      33.704 -15.966 -24.554  0.00  0.00    -0.241 OA
ATOM     19  O   UNL     1      32.634 -15.112 -26.380  0.00  0.00    -0.241 OA
ATOM     20  C   UNL     1      33.270 -15.034 -25.292  0.00  0.00    +0.388 C 
ENDBRANCH  17  20
ENDBRANCH  14  16
ENDBRANCH   2  11
BRANCH   1  21
ATOM     21  C   UNL     1      30.846  -6.809 -22.667  0.00  0.00    -0.050 C 
BRANCH  21  22
ATOM     22  N   UNL     1      30.508  -5.534 -23.371  0.00  0.00    +0.390 N 
ATOM     23  C   UNL     1      31.256  -5.339 -24.671  0.00  0.00    -0.077 C 
ATOM     24  C   UNL     1      30.715  -4.284 -22.534  0.00  0.00    -0.077 C 
ATOM     25  C   UNL     1      31.358  -3.833 -24.793  0.00  0.00    -0.025 C 
ATOM     26  C   UNL     1      31.631  -3.405 -23.365  0.00  0.00    -0.025 C 
ATOM     27  H   UNL     1      29.513  -5.650 -23.558  0.00  0.00    -0.079 HD
ENDBRANCH  21  22
ENDBRANCH   1  21
TORSDOF 6
ENDMDL
MODEL 8
REMARK VINA RESULT:      -8.4     11.973     15.740
REMARK  Name = 40466858
REMARK  6 active torsions:
REMARK  status: ('A' for Active; 'I' for Inactive)
REMARK    1  A    between atoms: C_1  and  C_21
REMARK    2  A    between atoms: C_2  and  C_3
REMARK    3  A    between atoms: C_2  and  C_11
REMARK    4  A    between atoms: C_14  and  C_16
REMARK    5  A    between atoms: C_17  and  C_20
REMARK    6  A    between atoms: C_21  and  N_22
REMARK                            x       y       z     vdW  Elec       q    Type
REMARK                         _______ _______ _______ _____ _____    ______ ____
ROOT
ATOM      1  C   UNL     1      31.230  -8.141 -22.918  0.00  0.00    -0.047 C 
ATOM      2  C   UNL     1      32.073  -9.168 -22.668  0.00  0.00    +0.023 C 
ENDROOT
BRANCH   2   3
ATOM      3  C   UNL     1      33.130  -9.521 -23.643  0.00  0.00    +0.002 C 
ATOM      4  C   UNL     1      34.203  -8.654 -23.853  0.00  0.00    -0.000 C 
ATOM      5  C   UNL     1      33.053 -10.721 -24.350  0.00  0.00    -0.000 C 
ATOM      6  C   UNL     1      35.199  -8.987 -24.771  0.00  0.00    -0.004 C 
ATOM      7  C   UNL     1      34.050 -11.053 -25.268  0.00  0.00    -0.004 C 
ATOM      8  C   UNL     1      35.122 -10.187 -25.478  0.00  0.00    -0.022 C 
ATOM      9  C   UNL     1      36.186 -10.543 -26.460  0.00  0.00    +0.031 C 
ENDBRANCH   2   3
BRANCH   2  11
ATOM     10  N   UNL     1      31.973 -11.251 -21.465  0.00  0.00    -0.406 NA
ATOM     11  C   UNL     1      31.901  -9.903 -21.388  0.00  0.00    +0.130 C 
ATOM     12  C   UNL     1      31.684  -9.203 -20.212  0.00  0.00    +0.028 C 
ATOM     13  C   UNL     1      31.529  -9.934 -19.039  0.00  0.00    -0.016 C 
ATOM     14  C   UNL     1      31.818 -11.927 -20.305  0.00  0.00    +0.114 C 
ATOM     15  C   UNL     1      31.597 -11.323 -19.078  0.00  0.00    +0.085 C 
BRANCH  14  16
ATOM     16  C   UNL     1      31.896 -13.376 -20.397  0.00  0.00    +0.035 C 
ATOM     17  C   UNL     1      32.786 -14.065 -21.147  0.00  0.00    +0.088 C 
BRANCH  17  20
ATOM     18  O   UNL     1      33.799 -16.087 -21.801  0.00  0.00    -0.241 OA
ATOM     19  O   UNL     1      31.832 -16.201 -20.650  0.00  0.00    -0.241 OA
ATOM     20  C   UNL     1      32.797 -15.600 -21.200  0.00  0.00    +0.388 C 
ENDBRANCH  17  20
ENDBRANCH  14  16
ENDBRANCH   2  11
BRANCH   1  21
ATOM     21  C   UNL     1      31.202  -7.242 -24.118  0.00  0.00    -0.050 C 
BRANCH  21  22
ATOM     22  N   UNL     1      31.807  -5.901 -23.849  0.00  0.00    +0.390 N 
ATOM     23  C   UNL     1      31.039  -5.079 -22.839  0.00  0.00    -0.077 C 
ATOM     24  C   UNL     1      31.999  -5.042 -25.085  0.00  0.00    -0.077 C 
ATOM     25  C   UNL     1      31.325  -3.653 -23.259  0.00  0.00    -0.025 C 
ATOM     26  C   UNL     1      31.284  -3.741 -24.771  0.00  0.00    -0.025 C 
ATOM     27  H   UNL     1      32.720  -6.151 -23.469  0.00  0.00    -0.079 HD
ENDBRANCH  21  22
ENDBRANCH   1  21
TORSDOF 6
ENDMDL
