MODEL 1
REMARK VINA RESULT:     -11.4      0.000      0.000
REMARK  Name = 91617630
REMARK  6 active torsions:
REMARK  status: ('A' for Active; 'I' for Inactive)
REMARK    1  A    between atoms: N_4  and  C_10
REMARK    2  A    between atoms: N_5  and  C_16
REMARK    3  A    between atoms: C_7  and  C_24
REMARK    4  A    between atoms: N_23  and  C_26
REMARK    5  A    between atoms: C_26  and  C_28
REMARK    6  A    between atoms: C_28  and  O_29
REMARK                            x       y       z     vdW  Elec       q    Type
REMARK                         _______ _______ _______ _____ _____    ______ ____
ROOT
ATOM      1  O   UNL     1      36.233 -23.199 -16.375  0.00  0.00    -0.252 OA
ATOM      2  O   UNL     1      31.901 -22.819 -18.011  0.00  0.00    -0.273 OA
ATOM      3  O   UNL     1      32.610 -24.747 -13.908  0.00  0.00    -0.273 OA
ATOM      4  N   UNL     1      34.082 -22.896 -17.194  0.00  0.00    -0.215 N 
ATOM      5  N   UNL     1      34.451 -23.908 -15.064  0.00  0.00    -0.215 N 
ATOM      6  C   UNL     1      35.013 -23.309 -16.214  0.00  0.00    +0.319 C 
ATOM      7  C   UNL     1      32.199 -23.177 -15.665  0.00  0.00    +0.229 C 
ATOM      8  C   UNL     1      32.689 -22.967 -17.076  0.00  0.00    +0.250 C 
ATOM      9  C   UNL     1      33.083 -24.041 -14.799  0.00  0.00    +0.250 C 
ENDROOT
BRANCH   4  10
ATOM     10  C   UNL     1      34.628 -22.451 -18.454  0.00  0.00    +0.084 C 
ATOM     11  C   UNL     1      35.994 -21.795 -18.244  0.00  0.00    +0.020 C 
ATOM     12  C   UNL     1      33.656 -21.503 -19.161  0.00  0.00    +0.020 C 
ATOM     13  C   UNL     1      34.238 -20.978 -20.471  0.00  0.00    +0.002 C 
ATOM     14  C   UNL     1      36.572 -21.267 -19.555  0.00  0.00    +0.002 C 
ATOM     15  C   UNL     1      35.600 -20.325 -20.261  0.00  0.00    +0.000 C 
ENDBRANCH   4  10
BRANCH   5  16
ATOM     16  C   UNL     1      35.379 -24.505 -14.133  0.00  0.00    +0.084 C 
ATOM     17  C   UNL     1      36.210 -25.593 -14.820  0.00  0.00    +0.020 C 
ATOM     18  C   UNL     1      36.273 -23.433 -13.507  0.00  0.00    +0.020 C 
ATOM     19  C   UNL     1      37.301 -24.042 -12.557  0.00  0.00    +0.002 C 
ATOM     20  C   UNL     1      37.237 -26.199 -13.867  0.00  0.00    +0.002 C 
ATOM     21  C   UNL     1      38.126 -25.129 -13.241  0.00  0.00    +0.000 C 
ENDBRANCH   5  16
BRANCH   7  24
ATOM     22  O   UNL     1      30.464 -24.818 -15.753  0.00  0.00    -0.274 OA
ATOM     23  N   UNL     1      29.885 -22.579 -15.485  0.00  0.00    -0.294 N 
ATOM     24  C   UNL     1      30.769 -23.634 -15.635  0.00  0.00    +0.240 C 
ATOM     25  H   UNL     1      30.251 -21.669 -15.400  0.00  0.00    +0.150 HD
BRANCH  23  26
ATOM     26  C   UNL     1      28.450 -22.748 -15.450  0.00  0.00    +0.200 C 
BRANCH  26  28
ATOM     27  O   UNL     1      27.347 -21.638 -17.279  0.00  0.00    -0.248 OA
ATOM     28  C   UNL     1      27.816 -22.670 -16.815  0.00  0.00    +0.334 C 
BRANCH  28  29
ATOM     29  O   UNL     1      27.813 -23.850 -17.479  0.00  0.00    -0.479 OA
ATOM     30  H   UNL     1      27.069 -24.095 -17.995  0.00  0.00    +0.295 HD
ENDBRANCH  28  29
ENDBRANCH  26  28
ENDBRANCH  23  26
ENDBRANCH   7  24
TORSDOF 6
ENDMDL
MODEL 2
REMARK VINA RESULT:     -11.2      1.757      5.910
REMARK  Name = 91617630
REMARK  6 active torsions:
REMARK  status: ('A' for Active; 'I' for Inactive)
REMARK    1  A    between atoms: N_4  and  C_10
REMARK    2  A    between atoms: N_5  and  C_16
REMARK    3  A    between atoms: C_7  and  C_24
REMARK    4  A    between atoms: N_23  and  C_26
REMARK    5  A    between atoms: C_26  and  C_28
REMARK    6  A    between atoms: C_28  and  O_29
REMARK                            x       y       z     vdW  Elec       q    Type
REMARK                         _______ _______ _______ _____ _____    ______ ____
ROOT
ATOM      1  O   UNL     1      31.877 -22.869 -17.814  0.00  0.00    -0.252 OA
ATOM      2  O   UNL     1      36.309 -23.285 -16.482  0.00  0.00    -0.273 OA
ATOM      3  O   UNL     1      32.952 -24.225 -13.499  0.00  0.00    -0.273 OA
ATOM      4  N   UNL     1      34.106 -23.156 -17.230  0.00  0.00    -0.215 N 
ATOM      5  N   UNL     1      32.360 -23.635 -15.675  0.00  0.00    -0.215 N 
ATOM      6  C   UNL     1      32.717 -23.213 -16.975  0.00  0.00    +0.319 C 
ATOM      7  C   UNL     1      34.630 -24.399 -15.195  0.00  0.00    +0.229 C 
ATOM      8  C   UNL     1      35.114 -23.547 -16.342  0.00  0.00    +0.250 C 
ATOM      9  C   UNL     1      33.250 -24.065 -14.684  0.00  0.00    +0.250 C 
ENDROOT
BRANCH   4  10
ATOM     10  C   UNL     1      34.508 -22.555 -18.479  0.00  0.00    +0.084 C 
ATOM     11  C   UNL     1      35.860 -21.854 -18.327  0.00  0.00    +0.020 C 
ATOM     12  C   UNL     1      33.434 -21.590 -18.986  0.00  0.00    +0.020 C 
ATOM     13  C   UNL     1      33.862 -20.902 -20.280  0.00  0.00    +0.002 C 
ATOM     14  C   UNL     1      36.285 -21.164 -19.621  0.00  0.00    +0.002 C 
ATOM     15  C   UNL     1      35.211 -20.205 -20.127  0.00  0.00    +0.000 C 
ENDBRANCH   4  10
BRANCH   5  16
ATOM     16  C   UNL     1      30.964 -23.527 -15.326  0.00  0.00    +0.084 C 
ATOM     17  C   UNL     1      30.272 -22.464 -16.185  0.00  0.00    +0.020 C 
ATOM     18  C   UNL     1      30.272 -24.885 -15.457  0.00  0.00    +0.020 C 
ATOM     19  C   UNL     1      28.780 -24.789 -15.146  0.00  0.00    +0.002 C 
ATOM     20  C   UNL     1      28.781 -22.371 -15.870  0.00  0.00    +0.002 C 
ATOM     21  C   UNL     1      28.094 -23.727 -15.999  0.00  0.00    +0.000 C 
ENDBRANCH   5  16
BRANCH   7  24
ATOM     22  O   UNL     1      36.408 -25.412 -13.960  0.00  0.00    -0.274 OA
ATOM     23  N   UNL     1      35.566 -23.361 -13.248  0.00  0.00    -0.294 N 
ATOM     24  C   UNL     1      35.638 -24.462 -14.084  0.00  0.00    +0.240 C 
ATOM     25  H   UNL     1      34.905 -22.660 -13.451  0.00  0.00    +0.150 HD
BRANCH  23  26
ATOM     26  C   UNL     1      36.412 -23.191 -12.089  0.00  0.00    +0.200 C 
BRANCH  26  28
ATOM     27  O   UNL     1      36.424 -23.878  -9.782  0.00  0.00    -0.248 OA
ATOM     28  C   UNL     1      35.968 -24.018 -10.911  0.00  0.00    +0.334 C 
BRANCH  28  29
ATOM     29  O   UNL     1      35.017 -24.931 -11.217  0.00  0.00    -0.479 OA
ATOM     30  H   UNL     1      34.133 -24.655 -11.362  0.00  0.00    +0.295 HD
ENDBRANCH  28  29
ENDBRANCH  26  28
ENDBRANCH  23  26
ENDBRANCH   7  24
TORSDOF 6
ENDMDL
MODEL 3
REMARK VINA RESULT:     -11.1      1.765      6.689
REMARK  Name = 91617630
REMARK  6 active torsions:
REMARK  status: ('A' for Active; 'I' for Inactive)
REMARK    1  A    between atoms: N_4  and  C_10
REMARK    2  A    between atoms: N_5  and  C_16
REMARK    3  A    between atoms: C_7  and  C_24
REMARK    4  A    between atoms: N_23  and  C_26
REMARK    5  A    between atoms: C_26  and  C_28
REMARK    6  A    between atoms: C_28  and  O_29
REMARK                            x       y       z     vdW  Elec       q    Type
REMARK                         _______ _______ _______ _____ _____    ______ ____
ROOT
ATOM      1  O   UNL     1      32.907 -24.161 -13.010  0.00  0.00    -0.252 OA
ATOM      2  O   UNL     1      36.317 -23.846 -16.151  0.00  0.00    -0.273 OA
ATOM      3  O   UNL     1      31.995 -22.946 -17.404  0.00  0.00    -0.273 OA
ATOM      4  N   UNL     1      34.659 -23.923 -14.515  0.00  0.00    -0.215 N 
ATOM      5  N   UNL     1      32.410 -23.464 -15.170  0.00  0.00    -0.215 N 
ATOM      6  C   UNL     1      33.298 -23.853 -14.142  0.00  0.00    +0.319 C 
ATOM      7  C   UNL     1      34.244 -22.746 -16.615  0.00  0.00    +0.229 C 
ATOM      8  C   UNL     1      35.180 -23.571 -15.766  0.00  0.00    +0.250 C 
ATOM      9  C   UNL     1      32.779 -23.075 -16.463  0.00  0.00    +0.250 C 
ENDROOT
BRANCH   4  10
ATOM     10  C   UNL     1      35.565 -24.492 -13.547  0.00  0.00    +0.084 C 
ATOM     11  C   UNL     1      36.466 -23.407 -12.953  0.00  0.00    +0.020 C 
ATOM     12  C   UNL     1      36.388 -25.619 -14.173  0.00  0.00    +0.020 C 
ATOM     13  C   UNL     1      37.392 -26.200 -13.179  0.00  0.00    +0.002 C 
ATOM     14  C   UNL     1      37.471 -23.990 -11.963  0.00  0.00    +0.002 C 
ATOM     15  C   UNL     1      38.289 -25.117 -12.587  0.00  0.00    +0.000 C 
ENDBRANCH   4  10
BRANCH   5  16
ATOM     16  C   UNL     1      31.001 -23.563 -14.873  0.00  0.00    +0.084 C 
ATOM     17  C   UNL     1      30.233 -22.392 -15.494  0.00  0.00    +0.020 C 
ATOM     18  C   UNL     1      30.446 -24.907 -15.347  0.00  0.00    +0.020 C 
ATOM     19  C   UNL     1      28.944 -25.017 -15.093  0.00  0.00    +0.002 C 
ATOM     20  C   UNL     1      28.733 -22.505 -15.238  0.00  0.00    +0.002 C 
ATOM     21  C   UNL     1      28.182 -23.848 -15.709  0.00  0.00    +0.000 C 
ENDBRANCH   5  16
BRANCH   7  24
ATOM     22  O   UNL     1      34.204 -23.518 -18.876  0.00  0.00    -0.274 OA
ATOM     23  N   UNL     1      35.625 -21.763 -18.310  0.00  0.00    -0.294 N 
ATOM     24  C   UNL     1      34.668 -22.730 -18.055  0.00  0.00    +0.240 C 
ATOM     25  H   UNL     1      35.919 -21.188 -17.567  0.00  0.00    +0.150 HD
BRANCH  23  26
ATOM     26  C   UNL     1      36.215 -21.557 -19.613  0.00  0.00    +0.200 C 
BRANCH  26  28
ATOM     27  O   UNL     1      34.561 -20.278 -20.804  0.00  0.00    -0.248 OA
ATOM     28  C   UNL     1      35.681 -20.334 -20.312  0.00  0.00    +0.334 C 
BRANCH  28  29
ATOM     29  O   UNL     1      36.559 -19.304 -20.347  0.00  0.00    -0.479 OA
ATOM     30  H   UNL     1      36.248 -18.429 -20.474  0.00  0.00    +0.295 HD
ENDBRANCH  28  29
ENDBRANCH  26  28
ENDBRANCH  23  26
ENDBRANCH   7  24
TORSDOF 6
ENDMDL
MODEL 4
REMARK VINA RESULT:     -10.6      1.840      5.048
REMARK  Name = 91617630
REMARK  6 active torsions:
REMARK  status: ('A' for Active; 'I' for Inactive)
REMARK    1  A    between atoms: N_4  and  C_10
REMARK    2  A    between atoms: N_5  and  C_16
REMARK    3  A    between atoms: C_7  and  C_24
REMARK    4  A    between atoms: N_23  and  C_26
REMARK    5  A    between atoms: C_26  and  C_28
REMARK    6  A    between atoms: C_28  and  O_29
REMARK                            x       y       z     vdW  Elec       q    Type
REMARK                         _______ _______ _______ _____ _____    ______ ____
ROOT
ATOM      1  O   UNL     1      32.814 -24.830 -13.161  0.00  0.00    -0.252 OA
ATOM      2  O   UNL     1      32.197 -22.552 -17.164  0.00  0.00    -0.273 OA
ATOM      3  O   UNL     1      36.452 -23.308 -15.622  0.00  0.00    -0.273 OA
ATOM      4  N   UNL     1      32.453 -23.785 -15.202  0.00  0.00    -0.215 N 
ATOM      5  N   UNL     1      34.667 -24.168 -14.396  0.00  0.00    -0.215 N 
ATOM      6  C   UNL     1      33.277 -24.317 -14.185  0.00  0.00    +0.319 C 
ATOM      7  C   UNL     1      34.342 -23.517 -16.728  0.00  0.00    +0.229 C 
ATOM      8  C   UNL     1      32.902 -23.210 -16.397  0.00  0.00    +0.250 C 
ATOM      9  C   UNL     1      35.265 -23.626 -15.539  0.00  0.00    +0.250 C 
ENDROOT
BRANCH   4  10
ATOM     10  C   UNL     1      31.036 -23.754 -14.933  0.00  0.00    +0.084 C 
ATOM     11  C   UNL     1      30.314 -24.838 -15.736  0.00  0.00    +0.020 C 
ATOM     12  C   UNL     1      30.459 -22.367 -15.225  0.00  0.00    +0.020 C 
ATOM     13  C   UNL     1      28.949 -22.327 -14.999  0.00  0.00    +0.002 C 
ATOM     14  C   UNL     1      28.804 -24.794 -15.511  0.00  0.00    +0.002 C 
ATOM     15  C   UNL     1      28.232 -23.410 -15.799  0.00  0.00    +0.000 C 
ENDBRANCH   4  10
BRANCH   5  16
ATOM     16  C   UNL     1      35.525 -24.534 -13.295  0.00  0.00    +0.084 C 
ATOM     17  C   UNL     1      36.546 -25.589 -13.731  0.00  0.00    +0.020 C 
ATOM     18  C   UNL     1      36.216 -23.296 -12.720  0.00  0.00    +0.020 C 
ATOM     19  C   UNL     1      37.172 -23.660 -11.587  0.00  0.00    +0.002 C 
ATOM     20  C   UNL     1      37.501 -25.950 -12.596  0.00  0.00    +0.002 C 
ATOM     21  C   UNL     1      38.186 -24.714 -12.022  0.00  0.00    +0.000 C 
ENDBRANCH   5  16
BRANCH   7  24
ATOM     22  O   UNL     1      35.845 -21.854 -17.554  0.00  0.00    -0.274 OA
ATOM     23  N   UNL     1      34.166 -22.651 -18.956  0.00  0.00    -0.294 N 
ATOM     24  C   UNL     1      34.883 -22.586 -17.774  0.00  0.00    +0.240 C 
ATOM     25  H   UNL     1      33.411 -23.280 -19.012  0.00  0.00    +0.150 HD
BRANCH  23  26
ATOM     26  C   UNL     1      34.469 -21.837 -20.111  0.00  0.00    +0.200 C 
BRANCH  26  28
ATOM     27  O   UNL     1      34.007 -19.568 -20.768  0.00  0.00    -0.248 OA
ATOM     28  C   UNL     1      33.645 -20.578 -20.175  0.00  0.00    +0.334 C 
BRANCH  28  29
ATOM     29  O   UNL     1      32.467 -20.667 -19.514  0.00  0.00    -0.479 OA
ATOM     30  H   UNL     1      32.384 -20.305 -18.653  0.00  0.00    +0.295 HD
ENDBRANCH  28  29
ENDBRANCH  26  28
ENDBRANCH  23  26
ENDBRANCH   7  24
TORSDOF 6
ENDMDL
MODEL 5
REMARK VINA RESULT:     -10.2      1.288      1.775
REMARK  Name = 91617630
REMARK  6 active torsions:
REMARK  status: ('A' for Active; 'I' for Inactive)
REMARK    1  A    between atoms: N_4  and  C_10
REMARK    2  A    between atoms: N_5  and  C_16
REMARK    3  A    between atoms: C_7  and  C_24
REMARK    4  A    between atoms: N_23  and  C_26
REMARK    5  A    between atoms: C_26  and  C_28
REMARK    6  A    between atoms: C_28  and  O_29
REMARK                            x       y       z     vdW  Elec       q    Type
REMARK                         _______ _______ _______ _____ _____    ______ ____
ROOT
ATOM      1  O   UNL     1      36.829 -22.694 -16.870  0.00  0.00    -0.252 OA
ATOM      2  O   UNL     1      32.218 -23.111 -17.262  0.00  0.00    -0.273 OA
ATOM      3  O   UNL     1      34.300 -24.525 -13.425  0.00  0.00    -0.273 OA
ATOM      4  N   UNL     1      34.518 -22.789 -17.077  0.00  0.00    -0.215 N 
ATOM      5  N   UNL     1      35.602 -23.534 -15.085  0.00  0.00    -0.215 N 
ATOM      6  C   UNL     1      35.731 -22.967 -16.373  0.00  0.00    +0.319 C 
ATOM      7  C   UNL     1      33.182 -23.203 -15.075  0.00  0.00    +0.229 C 
ATOM      8  C   UNL     1      33.238 -23.054 -16.575  0.00  0.00    +0.250 C 
ATOM      9  C   UNL     1      34.395 -23.843 -14.447  0.00  0.00    +0.250 C 
ENDROOT
BRANCH   4  10
ATOM     10  C   UNL     1      34.628 -22.387 -18.459  0.00  0.00    +0.084 C 
ATOM     11  C   UNL     1      35.928 -21.612 -18.689  0.00  0.00    +0.020 C 
ATOM     12  C   UNL     1      33.407 -21.568 -18.883  0.00  0.00    +0.020 C 
ATOM     13  C   UNL     1      33.529 -21.086 -20.328  0.00  0.00    +0.002 C 
ATOM     14  C   UNL     1      36.045 -21.128 -20.133  0.00  0.00    +0.002 C 
ATOM     15  C   UNL     1      34.825 -20.315 -20.556  0.00  0.00    +0.000 C 
ENDBRANCH   4  10
BRANCH   5  16
ATOM     16  C   UNL     1      36.830 -23.898 -14.419  0.00  0.00    +0.084 C 
ATOM     17  C   UNL     1      36.777 -23.511 -12.938  0.00  0.00    +0.020 C 
ATOM     18  C   UNL     1      37.112 -25.391 -14.594  0.00  0.00    +0.020 C 
ATOM     19  C   UNL     1      38.378 -25.816 -13.854  0.00  0.00    +0.002 C 
ATOM     20  C   UNL     1      38.044 -23.936 -12.201  0.00  0.00    +0.002 C 
ATOM     21  C   UNL     1      38.326 -25.425 -12.379  0.00  0.00    +0.000 C 
ENDBRANCH   5  16
BRANCH   7  24
ATOM     22  O   UNL     1      31.888 -25.015 -14.208  0.00  0.00    -0.274 OA
ATOM     23  N   UNL     1      30.810 -23.030 -14.775  0.00  0.00    -0.294 N 
ATOM     24  C   UNL     1      31.908 -23.861 -14.630  0.00  0.00    +0.240 C 
ATOM     25  H   UNL     1      30.953 -22.121 -15.125  0.00  0.00    +0.150 HD
BRANCH  23  26
ATOM     26  C   UNL     1      29.463 -23.433 -14.439  0.00  0.00    +0.200 C 
BRANCH  26  28
ATOM     27  O   UNL     1      28.669 -24.550 -16.418  0.00  0.00    -0.248 OA
ATOM     28  C   UNL     1      28.990 -24.620 -15.237  0.00  0.00    +0.334 C 
BRANCH  28  29
ATOM     29  O   UNL     1      28.951 -25.771 -14.526  0.00  0.00    -0.479 OA
ATOM     30  H   UNL     1      28.260 -25.918 -13.910  0.00  0.00    +0.295 HD
ENDBRANCH  28  29
ENDBRANCH  26  28
ENDBRANCH  23  26
ENDBRANCH   7  24
TORSDOF 6
ENDMDL
MODEL 6
REMARK VINA RESULT:     -10.0      2.272      6.448
REMARK  Name = 91617630
REMARK  6 active torsions:
REMARK  status: ('A' for Active; 'I' for Inactive)
REMARK    1  A    between atoms: N_4  and  C_10
REMARK    2  A    between atoms: N_5  and  C_16
REMARK    3  A    between atoms: C_7  and  C_24
REMARK    4  A    between atoms: N_23  and  C_26
REMARK    5  A    between atoms: C_26  and  C_28
REMARK    6  A    between atoms: C_28  and  O_29
REMARK                            x       y       z     vdW  Elec       q    Type
REMARK                         _______ _______ _______ _____ _____    ______ ____
ROOT
ATOM      1  O   UNL     1      34.297 -23.926 -13.804  0.00  0.00    -0.252 OA
ATOM      2  O   UNL     1      37.360 -22.659 -17.061  0.00  0.00    -0.273 OA
ATOM      3  O   UNL     1      32.897 -22.854 -18.106  0.00  0.00    -0.273 OA
ATOM      4  N   UNL     1      35.857 -23.205 -15.366  0.00  0.00    -0.215 N 
ATOM      5  N   UNL     1      33.537 -23.315 -15.913  0.00  0.00    -0.215 N 
ATOM      6  C   UNL     1      34.542 -23.496 -14.937  0.00  0.00    +0.319 C 
ATOM      7  C   UNL     1      35.057 -22.111 -17.397  0.00  0.00    +0.229 C 
ATOM      8  C   UNL     1      36.211 -22.695 -16.621  0.00  0.00    +0.250 C 
ATOM      9  C   UNL     1      33.732 -22.807 -17.202  0.00  0.00    +0.250 C 
ENDROOT
BRANCH   4  10
ATOM     10  C   UNL     1      36.923 -23.553 -14.457  0.00  0.00    +0.084 C 
ATOM     11  C   UNL     1      37.172 -25.063 -14.477  0.00  0.00    +0.020 C 
ATOM     12  C   UNL     1      36.612 -23.058 -13.043  0.00  0.00    +0.020 C 
ATOM     13  C   UNL     1      37.703 -23.464 -12.054  0.00  0.00    +0.002 C 
ATOM     14  C   UNL     1      38.260 -25.467 -13.485  0.00  0.00    +0.002 C 
ATOM     15  C   UNL     1      37.951 -24.969 -12.076  0.00  0.00    +0.000 C 
ENDBRANCH   4  10
BRANCH   5  16
ATOM     16  C   UNL     1      32.214 -23.779 -15.565  0.00  0.00    +0.084 C 
ATOM     17  C   UNL     1      32.291 -24.915 -14.540  0.00  0.00    +0.020 C 
ATOM     18  C   UNL     1      31.360 -22.620 -15.048  0.00  0.00    +0.020 C 
ATOM     19  C   UNL     1      29.972 -23.092 -14.621  0.00  0.00    +0.002 C 
ATOM     20  C   UNL     1      30.902 -25.384 -14.117  0.00  0.00    +0.002 C 
ATOM     21  C   UNL     1      30.050 -24.226 -13.604  0.00  0.00    +0.000 C 
ENDBRANCH   5  16
BRANCH   7  24
ATOM     22  O   UNL     1      35.085 -22.790 -19.688  0.00  0.00    -0.274 OA
ATOM     23  N   UNL     1      36.084 -20.771 -19.099  0.00  0.00    -0.294 N 
ATOM     24  C   UNL     1      35.393 -21.944 -18.851  0.00  0.00    +0.240 C 
ATOM     25  H   UNL     1      36.273 -20.170 -18.343  0.00  0.00    +0.150 HD
BRANCH  23  26
ATOM     26  C   UNL     1      36.544 -20.386 -20.414  0.00  0.00    +0.200 C 
BRANCH  26  28
ATOM     27  O   UNL     1      35.686 -18.152 -20.664  0.00  0.00    -0.248 OA
ATOM     28  C   UNL     1      35.691 -19.316 -21.044  0.00  0.00    +0.334 C 
BRANCH  28  29
ATOM     29  O   UNL     1      34.930 -19.765 -22.070  0.00  0.00    -0.479 OA
ATOM     30  H   UNL     1      34.648 -19.171 -22.738  0.00  0.00    +0.295 HD
ENDBRANCH  28  29
ENDBRANCH  26  28
ENDBRANCH  23  26
ENDBRANCH   7  24
TORSDOF 6
ENDMDL
MODEL 7
REMARK VINA RESULT:      -9.4      2.283      5.242
REMARK  Name = 91617630
REMARK  6 active torsions:
REMARK  status: ('A' for Active; 'I' for Inactive)
REMARK    1  A    between atoms: N_4  and  C_10
REMARK    2  A    between atoms: N_5  and  C_16
REMARK    3  A    between atoms: C_7  and  C_24
REMARK    4  A    between atoms: N_23  and  C_26
REMARK    5  A    between atoms: C_26  and  C_28
REMARK    6  A    between atoms: C_28  and  O_29
REMARK                            x       y       z     vdW  Elec       q    Type
REMARK                         _______ _______ _______ _____ _____    ______ ____
ROOT
ATOM      1  O   UNL     1      34.584 -24.551 -14.124  0.00  0.00    -0.252 OA
ATOM      2  O   UNL     1      33.219 -22.125 -17.845  0.00  0.00    -0.273 OA
ATOM      3  O   UNL     1      37.649 -22.135 -16.650  0.00  0.00    -0.273 OA
ATOM      4  N   UNL     1      33.866 -23.436 -16.030  0.00  0.00    -0.215 N 
ATOM      5  N   UNL     1      36.168 -23.432 -15.403  0.00  0.00    -0.215 N 
ATOM      6  C   UNL     1      34.856 -23.873 -15.122  0.00  0.00    +0.319 C 
ATOM      7  C   UNL     1      35.538 -22.672 -17.637  0.00  0.00    +0.229 C 
ATOM      8  C   UNL     1      34.098 -22.688 -17.190  0.00  0.00    +0.250 C 
ATOM      9  C   UNL     1      36.557 -22.690 -16.524  0.00  0.00    +0.250 C 
ENDROOT
BRANCH   4  10
ATOM     10  C   UNL     1      32.495 -23.713 -15.672  0.00  0.00    +0.084 C 
ATOM     11  C   UNL     1      31.549 -23.273 -16.792  0.00  0.00    +0.020 C 
ATOM     12  C   UNL     1      32.137 -23.041 -14.344  0.00  0.00    +0.020 C 
ATOM     13  C   UNL     1      30.674 -23.276 -13.973  0.00  0.00    +0.002 C 
ATOM     14  C   UNL     1      30.087 -23.505 -16.417  0.00  0.00    +0.002 C 
ATOM     15  C   UNL     1      29.733 -22.839 -15.091  0.00  0.00    +0.000 C 
ENDBRANCH   4  10
BRANCH   5  16
ATOM     16  C   UNL     1      37.167 -23.706 -14.397  0.00  0.00    +0.084 C 
ATOM     17  C   UNL     1      36.699 -23.218 -13.023  0.00  0.00    +0.020 C 
ATOM     18  C   UNL     1      37.507 -25.197 -14.372  0.00  0.00    +0.020 C 
ATOM     19  C   UNL     1      38.522 -25.525 -13.280  0.00  0.00    +0.002 C 
ATOM     20  C   UNL     1      37.717 -23.547 -11.934  0.00  0.00    +0.002 C 
ATOM     21  C   UNL     1      38.056 -25.034 -11.912  0.00  0.00    +0.000 C 
ENDBRANCH   5  16
BRANCH   7  24
ATOM     22  O   UNL     1      36.680 -20.729 -18.432  0.00  0.00    -0.274 OA
ATOM     23  N   UNL     1      34.947 -21.618 -19.707  0.00  0.00    -0.294 N 
ATOM     24  C   UNL     1      35.803 -21.569 -18.621  0.00  0.00    +0.240 C 
ATOM     25  H   UNL     1      34.282 -22.343 -19.748  0.00  0.00    +0.150 HD
BRANCH  23  26
ATOM     26  C   UNL     1      34.979 -20.655 -20.785  0.00  0.00    +0.200 C 
BRANCH  26  28
ATOM     27  O   UNL     1      33.798 -18.611 -21.253  0.00  0.00    -0.248 OA
ATOM     28  C   UNL     1      33.776 -19.748 -20.798  0.00  0.00    +0.334 C 
BRANCH  28  29
ATOM     29  O   UNL     1      32.669 -20.309 -20.256  0.00  0.00    -0.479 OA
ATOM     30  H   UNL     1      32.598 -21.242 -20.197  0.00  0.00    +0.295 HD
ENDBRANCH  28  29
ENDBRANCH  26  28
ENDBRANCH  23  26
ENDBRANCH   7  24
TORSDOF 6
ENDMDL
MODEL 8
REMARK VINA RESULT:      -8.6     10.455     13.954
REMARK  Name = 91617630
REMARK  6 active torsions:
REMARK  status: ('A' for Active; 'I' for Inactive)
REMARK    1  A    between atoms: N_4  and  C_10
REMARK    2  A    between atoms: N_5  and  C_16
REMARK    3  A    between atoms: C_7  and  C_24
REMARK    4  A    between atoms: N_23  and  C_26
REMARK    5  A    between atoms: C_26  and  C_28
REMARK    6  A    between atoms: C_28  and  O_29
REMARK                            x       y       z     vdW  Elec       q    Type
REMARK                         _______ _______ _______ _____ _____    ______ ____
ROOT
ATOM      1  O   UNL     1      34.258 -14.032 -24.199  0.00  0.00    -0.252 OA
ATOM      2  O   UNL     1      32.394 -13.287 -20.008  0.00  0.00    -0.273 OA
ATOM      3  O   UNL     1      32.105 -10.029 -23.225  0.00  0.00    -0.273 OA
ATOM      4  N   UNL     1      33.258 -13.750 -22.122  0.00  0.00    -0.215 N 
ATOM      5  N   UNL     1      33.116 -12.050 -23.791  0.00  0.00    -0.215 N 
ATOM      6  C   UNL     1      33.579 -13.337 -23.435  0.00  0.00    +0.319 C 
ATOM      7  C   UNL     1      31.665 -11.922 -21.831  0.00  0.00    +0.229 C 
ATOM      8  C   UNL     1      32.478 -13.030 -21.209  0.00  0.00    +0.250 C 
ATOM      9  C   UNL     1      32.321 -11.219 -22.995  0.00  0.00    +0.250 C 
ENDROOT
BRANCH   4  10
ATOM     10  C   UNL     1      33.870 -14.974 -21.664  0.00  0.00    +0.084 C 
ATOM     11  C   UNL     1      34.790 -15.549 -22.743  0.00  0.00    +0.020 C 
ATOM     12  C   UNL     1      32.803 -15.988 -21.244  0.00  0.00    +0.020 C 
ATOM     13  C   UNL     1      33.427 -17.312 -20.807  0.00  0.00    +0.002 C 
ATOM     14  C   UNL     1      35.410 -16.875 -22.306  0.00  0.00    +0.002 C 
ATOM     15  C   UNL     1      34.345 -17.883 -21.883  0.00  0.00    +0.000 C 
ENDBRANCH   4  10
BRANCH   5  16
ATOM     16  C   UNL     1      33.583 -11.528 -25.054  0.00  0.00    +0.084 C 
ATOM     17  C   UNL     1      34.942 -10.841 -24.886  0.00  0.00    +0.020 C 
ATOM     18  C   UNL     1      33.647 -12.639 -26.103  0.00  0.00    +0.020 C 
ATOM     19  C   UNL     1      34.189 -12.126 -27.435  0.00  0.00    +0.002 C 
ATOM     20  C   UNL     1      35.481 -10.329 -26.219  0.00  0.00    +0.002 C 
ATOM     21  C   UNL     1      35.541 -11.438 -27.265  0.00  0.00    +0.000 C 
ENDBRANCH   5  16
BRANCH   7  24
ATOM     22  O   UNL     1      30.040 -11.035 -20.321  0.00  0.00    -0.274 OA
ATOM     23  N   UNL     1      32.109  -9.982 -20.494  0.00  0.00    -0.294 N 
ATOM     24  C   UNL     1      31.168 -10.951 -20.799  0.00  0.00    +0.240 C 
ATOM     25  H   UNL     1      32.984 -10.020 -20.945  0.00  0.00    +0.150 HD
BRANCH  23  26
ATOM     26  C   UNL     1      31.870  -8.917 -19.548  0.00  0.00    +0.200 C 
BRANCH  26  28
ATOM     27  O   UNL     1      31.694  -7.035 -21.038  0.00  0.00    -0.248 OA
ATOM     28  C   UNL     1      32.251  -7.560 -20.082  0.00  0.00    +0.334 C 
BRANCH  28  29
ATOM     29  O   UNL     1      33.269  -6.978 -19.406  0.00  0.00    -0.479 OA
ATOM     30  H   UNL     1      33.934  -7.509 -19.013  0.00  0.00    +0.295 HD
ENDBRANCH  28  29
ENDBRANCH  26  28
ENDBRANCH  23  26
ENDBRANCH   7  24
TORSDOF 6
ENDMDL
