MODEL 1
REMARK VINA RESULT:     -11.2      0.000      0.000
REMARK  Name = 24905142
REMARK  2 active torsions:
REMARK  status: ('A' for Active; 'I' for Inactive)
REMARK    1  A    between atoms: N_1  and  C_20
REMARK    2  A    between atoms: C_7  and  C_12
REMARK                            x       y       z     vdW  Elec       q    Type
REMARK                         _______ _______ _______ _____ _____    ______ ____
ROOT
ATOM      1  N   UNL     1      34.086 -15.485 -22.331  0.00  0.00    -0.200 N 
ATOM      2  N   UNL     1      34.323 -16.351 -21.328  0.00  0.00    -0.181 NA
ATOM      3  N   UNL     1      33.969 -15.442 -24.750  0.00  0.00    -0.232 NA
ATOM      4  N   UNL     1      34.414 -17.637 -25.714  0.00  0.00    -0.234 NA
ATOM      5  C   UNL     1      34.157 -16.053 -23.569  0.00  0.00    +0.137 C 
ATOM      6  C   UNL     1      34.463 -17.386 -23.361  0.00  0.00    +0.150 C 
ATOM      7  C   UNL     1      34.552 -17.507 -21.961  0.00  0.00    +0.091 C 
ATOM      8  C   UNL     1      34.590 -18.189 -24.489  0.00  0.00    +0.112 C 
ATOM      9  C   UNL     1      34.119 -16.316 -25.767  0.00  0.00    +0.252 C 
ATOM     10  N   UNL     1      34.899 -19.557 -24.381  0.00  0.00    -0.346 N 
ATOM     11  H   UNL     1      34.985 -20.108 -25.193  0.00  0.00    +0.143 HD
ATOM     12  H   UNL     1      35.028 -19.965 -23.494  0.00  0.00    +0.143 HD
ENDROOT
BRANCH   7  15
ATOM     13  N   UNL     1      36.554 -20.076 -20.141  0.00  0.00    -0.229 NA
ATOM     14  N   UNL     1      35.654 -22.033 -19.062  0.00  0.00    -0.297 N 
ATOM     15  C   UNL     1      34.848 -18.688 -21.204  0.00  0.00    +0.035 C 
ATOM     16  C   UNL     1      33.827 -19.550 -20.808  0.00  0.00    +0.006 C 
ATOM     17  C   UNL     1      36.155 -18.995 -20.851  0.00  0.00    +0.102 C 
ATOM     18  C   UNL     1      34.181 -20.689 -20.068  0.00  0.00    +0.033 C 
ATOM     19  C   UNL     1      35.530 -20.875 -19.784  0.00  0.00    +0.132 C 
ATOM     20  C   UNL     1      33.484 -21.783 -19.489  0.00  0.00    +0.019 C 
ATOM     21  C   UNL     1      34.416 -22.592 -18.876  0.00  0.00    +0.063 C 
ATOM     22  H   UNL     1      36.502 -22.405 -18.728  0.00  0.00    +0.154 HD
ENDBRANCH   7  15
BRANCH   1  23
ATOM     23  C   UNL     1      33.780 -14.040 -22.012  0.00  0.00    +0.098 C 
ATOM     24  C   UNL     1      33.346 -13.784 -20.553  0.00  0.00    +0.022 C 
ATOM     25  C   UNL     1      32.650 -13.468 -22.887  0.00  0.00    +0.022 C 
ATOM     26  C   UNL     1      31.929 -13.226 -20.634  0.00  0.00    +0.002 C 
ATOM     27  C   UNL     1      31.898 -12.513 -21.973  0.00  0.00    +0.002 C 
ENDBRANCH   1  23
TORSDOF 2
ENDMDL
MODEL 2
REMARK VINA RESULT:     -11.1      5.652      9.144
REMARK  Name = 24905142
REMARK  2 active torsions:
REMARK  status: ('A' for Active; 'I' for Inactive)
REMARK    1  A    between atoms: N_1  and  C_20
REMARK    2  A    between atoms: C_7  and  C_12
REMARK                            x       y       z     vdW  Elec       q    Type
REMARK                         _______ _______ _______ _____ _____    ______ ____
ROOT
ATOM      1  N   UNL     1      33.659 -22.777 -17.916  0.00  0.00    -0.200 N 
ATOM      2  N   UNL     1      34.803 -23.138 -17.305  0.00  0.00    -0.181 NA
ATOM      3  N   UNL     1      31.283 -22.644 -17.466  0.00  0.00    -0.232 NA
ATOM      4  N   UNL     1      30.750 -23.392 -15.207  0.00  0.00    -0.234 NA
ATOM      5  C   UNL     1      32.553 -22.922 -17.131  0.00  0.00    +0.137 C 
ATOM      6  C   UNL     1      33.006 -23.414 -15.920  0.00  0.00    +0.150 C 
ATOM      7  C   UNL     1      34.399 -23.525 -16.090  0.00  0.00    +0.091 C 
ATOM      8  C   UNL     1      32.052 -23.649 -14.937  0.00  0.00    +0.112 C 
ATOM      9  C   UNL     1      30.450 -22.912 -16.438  0.00  0.00    +0.252 C 
ATOM     10  N   UNL     1      32.413 -24.148 -13.672  0.00  0.00    -0.346 N 
ATOM     11  H   UNL     1      31.721 -24.309 -12.989  0.00  0.00    +0.143 HD
ATOM     12  H   UNL     1      33.358 -24.337 -13.469  0.00  0.00    +0.143 HD
ENDROOT
BRANCH   7  15
ATOM     13  N   UNL     1      36.687 -25.858 -14.290  0.00  0.00    -0.229 NA
ATOM     14  N   UNL     1      38.083 -25.269 -12.417  0.00  0.00    -0.297 N 
ATOM     15  C   UNL     1      35.362 -23.989 -15.133  0.00  0.00    +0.035 C 
ATOM     16  C   UNL     1      35.886 -23.119 -14.179  0.00  0.00    +0.006 C 
ATOM     17  C   UNL     1      35.788 -25.309 -15.139  0.00  0.00    +0.102 C 
ATOM     18  C   UNL     1      36.825 -23.632 -13.270  0.00  0.00    +0.033 C 
ATOM     19  C   UNL     1      37.163 -24.977 -13.389  0.00  0.00    +0.132 C 
ATOM     20  C   UNL     1      37.578 -23.114 -12.183  0.00  0.00    +0.019 C 
ATOM     21  C   UNL     1      38.343 -24.143 -11.678  0.00  0.00    +0.063 C 
ATOM     22  H   UNL     1      38.494 -26.151 -12.272  0.00  0.00    +0.154 HD
ENDBRANCH   7  15
BRANCH   1  23
ATOM     23  C   UNL     1      33.702 -22.269 -19.339  0.00  0.00    +0.098 C 
ATOM     24  C   UNL     1      35.123 -22.034 -19.893  0.00  0.00    +0.022 C 
ATOM     25  C   UNL     1      32.962 -20.931 -19.512  0.00  0.00    +0.022 C 
ATOM     26  C   UNL     1      35.201 -20.546 -20.214  0.00  0.00    +0.002 C 
ATOM     27  C   UNL     1      33.769 -20.174 -20.555  0.00  0.00    +0.002 C 
ENDBRANCH   1  23
TORSDOF 2
ENDMDL
MODEL 3
REMARK VINA RESULT:     -10.2      2.328      7.423
REMARK  Name = 24905142
REMARK  2 active torsions:
REMARK  status: ('A' for Active; 'I' for Inactive)
REMARK    1  A    between atoms: N_1  and  C_20
REMARK    2  A    between atoms: C_7  and  C_12
REMARK                            x       y       z     vdW  Elec       q    Type
REMARK                         _______ _______ _______ _____ _____    ______ ____
ROOT
ATOM      1  N   UNL     1      34.181 -16.397 -22.088  0.00  0.00    -0.200 N 
ATOM      2  N   UNL     1      33.773 -15.191 -21.652  0.00  0.00    -0.181 NA
ATOM      3  N   UNL     1      34.497 -17.605 -24.163  0.00  0.00    -0.232 NA
ATOM      4  N   UNL     1      33.898 -16.246 -26.097  0.00  0.00    -0.234 NA
ATOM      5  C   UNL     1      34.150 -16.525 -23.445  0.00  0.00    +0.137 C 
ATOM      6  C   UNL     1      33.687 -15.315 -23.932  0.00  0.00    +0.150 C 
ATOM      7  C   UNL     1      33.473 -14.536 -22.779  0.00  0.00    +0.091 C 
ATOM      8  C   UNL     1      33.565 -15.194 -25.312  0.00  0.00    +0.112 C 
ATOM      9  C   UNL     1      34.337 -17.371 -25.483  0.00  0.00    +0.252 C 
ATOM     10  N   UNL     1      33.105 -14.004 -25.903  0.00  0.00    -0.346 N 
ATOM     11  H   UNL     1      33.025 -13.939 -26.883  0.00  0.00    +0.143 HD
ATOM     12  H   UNL     1      32.862 -13.235 -25.338  0.00  0.00    +0.143 HD
ENDROOT
BRANCH   7  15
ATOM     13  N   UNL     1      31.362 -11.628 -21.778  0.00  0.00    -0.229 NA
ATOM     14  N   UNL     1      31.656  -9.364 -22.548  0.00  0.00    -0.297 N 
ATOM     15  C   UNL     1      32.992 -13.187 -22.714  0.00  0.00    +0.035 C 
ATOM     16  C   UNL     1      33.612 -12.178 -23.448  0.00  0.00    +0.006 C 
ATOM     17  C   UNL     1      31.902 -12.861 -21.919  0.00  0.00    +0.102 C 
ATOM     18  C   UNL     1      33.095 -10.877 -23.342  0.00  0.00    +0.033 C 
ATOM     19  C   UNL     1      31.997 -10.691 -22.508  0.00  0.00    +0.132 C 
ATOM     20  C   UNL     1      33.412  -9.608 -23.894  0.00  0.00    +0.019 C 
ATOM     21  C   UNL     1      32.510  -8.696 -23.387  0.00  0.00    +0.063 C 
ATOM     22  H   UNL     1      30.913  -8.954 -22.051  0.00  0.00    +0.154 HD
ENDBRANCH   7  15
BRANCH   1  23
ATOM     23  C   UNL     1      34.615 -17.444 -21.087  0.00  0.00    +0.098 C 
ATOM     24  C   UNL     1      35.951 -18.138 -21.425  0.00  0.00    +0.022 C 
ATOM     25  C   UNL     1      33.585 -18.578 -20.936  0.00  0.00    +0.022 C 
ATOM     26  C   UNL     1      35.617 -19.614 -21.610  0.00  0.00    +0.002 C 
ATOM     27  C   UNL     1      34.418 -19.829 -20.704  0.00  0.00    +0.002 C 
ENDBRANCH   1  23
TORSDOF 2
ENDMDL
MODEL 4
REMARK VINA RESULT:     -10.1      7.026     10.143
REMARK  Name = 24905142
REMARK  2 active torsions:
REMARK  status: ('A' for Active; 'I' for Inactive)
REMARK    1  A    between atoms: N_1  and  C_20
REMARK    2  A    between atoms: C_7  and  C_12
REMARK                            x       y       z     vdW  Elec       q    Type
REMARK                         _______ _______ _______ _____ _____    ______ ____
ROOT
ATOM      1  N   UNL     1      35.958 -23.193 -14.928  0.00  0.00    -0.200 N 
ATOM      2  N   UNL     1      34.744 -23.564 -14.480  0.00  0.00    -0.181 NA
ATOM      3  N   UNL     1      37.009 -22.345 -16.938  0.00  0.00    -0.232 NA
ATOM      4  N   UNL     1      35.398 -22.055 -18.745  0.00  0.00    -0.234 NA
ATOM      5  C   UNL     1      35.955 -22.772 -16.225  0.00  0.00    +0.137 C 
ATOM      6  C   UNL     1      34.644 -22.874 -16.656  0.00  0.00    +0.150 C 
ATOM      7  C   UNL     1      33.948 -23.367 -15.537  0.00  0.00    +0.091 C 
ATOM      8  C   UNL     1      34.379 -22.496 -17.968  0.00  0.00    +0.112 C 
ATOM      9  C   UNL     1      36.632 -22.008 -18.190  0.00  0.00    +0.252 C 
ATOM     10  N   UNL     1      33.079 -22.563 -18.499  0.00  0.00    -0.346 N 
ATOM     11  H   UNL     1      32.912 -22.291 -19.431  0.00  0.00    +0.143 HD
ATOM     12  H   UNL     1      32.334 -22.881 -17.940  0.00  0.00    +0.143 HD
ENDROOT
BRANCH   7  15
ATOM     13  N   UNL     1      30.807 -25.097 -14.510  0.00  0.00    -0.229 NA
ATOM     14  N   UNL     1      28.583 -24.457 -15.178  0.00  0.00    -0.297 N 
ATOM     15  C   UNL     1      32.547 -23.658 -15.438  0.00  0.00    +0.035 C 
ATOM     16  C   UNL     1      31.612 -22.871 -16.107  0.00  0.00    +0.006 C 
ATOM     17  C   UNL     1      32.098 -24.728 -14.677  0.00  0.00    +0.102 C 
ATOM     18  C   UNL     1      30.256 -23.207 -15.970  0.00  0.00    +0.033 C 
ATOM     19  C   UNL     1      29.945 -24.305 -15.175  0.00  0.00    +0.132 C 
ATOM     20  C   UNL     1      29.026 -22.691 -16.459  0.00  0.00    +0.019 C 
ATOM     21  C   UNL     1      28.014 -23.480 -15.954  0.00  0.00    +0.063 C 
ATOM     22  H   UNL     1      28.089 -25.157 -14.695  0.00  0.00    +0.154 HD
ENDBRANCH   7  15
BRANCH   1  23
ATOM     23  C   UNL     1      37.151 -23.274 -14.003  0.00  0.00    +0.098 C 
ATOM     24  C   UNL     1      38.046 -24.513 -14.218  0.00  0.00    +0.022 C 
ATOM     25  C   UNL     1      36.746 -23.306 -12.518  0.00  0.00    +0.022 C 
ATOM     26  C   UNL     1      37.996 -25.292 -12.908  0.00  0.00    +0.002 C 
ATOM     27  C   UNL     1      37.768 -24.219 -11.859  0.00  0.00    +0.002 C 
ENDBRANCH   1  23
TORSDOF 2
ENDMDL
MODEL 5
REMARK VINA RESULT:     -10.1      0.971      1.378
REMARK  Name = 24905142
REMARK  2 active torsions:
REMARK  status: ('A' for Active; 'I' for Inactive)
REMARK    1  A    between atoms: N_1  and  C_20
REMARK    2  A    between atoms: C_7  and  C_12
REMARK                            x       y       z     vdW  Elec       q    Type
REMARK                         _______ _______ _______ _____ _____    ______ ____
ROOT
ATOM      1  N   UNL     1      33.943 -15.639 -22.281  0.00  0.00    -0.200 N 
ATOM      2  N   UNL     1      33.825 -16.534 -21.283  0.00  0.00    -0.181 NA
ATOM      3  N   UNL     1      34.420 -15.564 -24.654  0.00  0.00    -0.232 NA
ATOM      4  N   UNL     1      34.819 -17.791 -25.565  0.00  0.00    -0.234 NA
ATOM      5  C   UNL     1      34.242 -16.202 -23.486  0.00  0.00    +0.137 C 
ATOM      6  C   UNL     1      34.327 -17.565 -23.261  0.00  0.00    +0.150 C 
ATOM      7  C   UNL     1      34.060 -17.705 -21.886  0.00  0.00    +0.091 C 
ATOM      8  C   UNL     1      34.626 -18.369 -24.354  0.00  0.00    +0.112 C 
ATOM      9  C   UNL     1      34.705 -16.444 -25.638  0.00  0.00    +0.252 C 
ATOM     10  N   UNL     1      34.733 -19.766 -24.226  0.00  0.00    -0.346 N 
ATOM     11  H   UNL     1      34.947 -20.318 -25.014  0.00  0.00    +0.143 HD
ATOM     12  H   UNL     1      34.594 -20.193 -23.350  0.00  0.00    +0.143 HD
ENDROOT
BRANCH   7  15
ATOM     13  N   UNL     1      32.652 -20.684 -20.136  0.00  0.00    -0.229 NA
ATOM     14  N   UNL     1      33.942 -22.350 -18.967  0.00  0.00    -0.297 N 
ATOM     15  C   UNL     1      34.021 -18.920 -21.123  0.00  0.00    +0.035 C 
ATOM     16  C   UNL     1      35.198 -19.497 -20.651  0.00  0.00    +0.006 C 
ATOM     17  C   UNL     1      32.813 -19.541 -20.842  0.00  0.00    +0.102 C 
ATOM     18  C   UNL     1      35.094 -20.686 -19.911  0.00  0.00    +0.033 C 
ATOM     19  C   UNL     1      33.818 -21.201 -19.703  0.00  0.00    +0.132 C 
ATOM     20  C   UNL     1      36.004 -21.569 -19.272  0.00  0.00    +0.019 C 
ATOM     21  C   UNL     1      35.266 -22.584 -18.700  0.00  0.00    +0.063 C 
ATOM     22  H   UNL     1      33.195 -22.920 -18.676  0.00  0.00    +0.154 HD
ENDBRANCH   7  15
BRANCH   1  23
ATOM     23  C   UNL     1      33.743 -14.169 -21.991  0.00  0.00    +0.098 C 
ATOM     24  C   UNL     1      33.333 -13.853 -20.538  0.00  0.00    +0.022 C 
ATOM     25  C   UNL     1      32.656 -13.534 -22.877  0.00  0.00    +0.022 C 
ATOM     26  C   UNL     1      31.961 -13.194 -20.628  0.00  0.00    +0.002 C 
ATOM     27  C   UNL     1      31.978 -12.508 -21.982  0.00  0.00    +0.002 C 
ENDBRANCH   1  23
TORSDOF 2
ENDMDL
MODEL 6
REMARK VINA RESULT:     -10.0      3.387      6.288
REMARK  Name = 24905142
REMARK  2 active torsions:
REMARK  status: ('A' for Active; 'I' for Inactive)
REMARK    1  A    between atoms: N_1  and  C_20
REMARK    2  A    between atoms: C_7  and  C_12
REMARK                            x       y       z     vdW  Elec       q    Type
REMARK                         _______ _______ _______ _____ _____    ______ ____
ROOT
ATOM      1  N   UNL     1      33.279 -10.733 -23.786  0.00  0.00    -0.200 N 
ATOM      2  N   UNL     1      33.732 -11.807 -24.459  0.00  0.00    -0.181 NA
ATOM      3  N   UNL     1      32.086 -10.194 -21.750  0.00  0.00    -0.232 NA
ATOM      4  N   UNL     1      31.501 -12.197 -20.489  0.00  0.00    -0.234 NA
ATOM      5  C   UNL     1      32.639 -11.048 -22.624  0.00  0.00    +0.137 C 
ATOM      6  C   UNL     1      32.676 -12.428 -22.530  0.00  0.00    +0.150 C 
ATOM      7  C   UNL     1      33.362 -12.837 -23.690  0.00  0.00    +0.091 C 
ATOM      8  C   UNL     1      32.079 -13.002 -21.413  0.00  0.00    +0.112 C 
ATOM      9  C   UNL     1      31.539 -10.862 -20.712  0.00  0.00    +0.252 C 
ATOM     10  N   UNL     1      32.065 -14.396 -21.227  0.00  0.00    -0.346 N 
ATOM     11  H   UNL     1      31.637 -14.782 -20.428  0.00  0.00    +0.143 HD
ATOM     12  H   UNL     1      32.484 -14.986 -21.894  0.00  0.00    +0.143 HD
ENDROOT
BRANCH   7  15
ATOM     13  N   UNL     1      33.510 -15.902 -25.811  0.00  0.00    -0.229 NA
ATOM     14  N   UNL     1      34.585 -17.968 -25.198  0.00  0.00    -0.297 N 
ATOM     15  C   UNL     1      33.678 -14.177 -24.091  0.00  0.00    +0.035 C 
ATOM     16  C   UNL     1      34.399 -15.017 -23.246  0.00  0.00    +0.006 C 
ATOM     17  C   UNL     1      33.271 -14.661 -25.326  0.00  0.00    +0.102 C 
ATOM     18  C   UNL     1      34.677 -16.318 -23.696  0.00  0.00    +0.033 C 
ATOM     19  C   UNL     1      34.210 -16.673 -24.957  0.00  0.00    +0.132 C 
ATOM     20  C   UNL     1      35.356 -17.452 -23.175  0.00  0.00    +0.019 C 
ATOM     21  C   UNL     1      35.284 -18.451 -24.121  0.00  0.00    +0.063 C 
ATOM     22  H   UNL     1      34.386 -18.474 -26.018  0.00  0.00    +0.154 HD
ENDBRANCH   7  15
BRANCH   1  23
ATOM     23  C   UNL     1      33.508  -9.349 -24.350  0.00  0.00    +0.098 C 
ATOM     24  C   UNL     1      34.911  -8.769 -24.072  0.00  0.00    +0.022 C 
ATOM     25  C   UNL     1      32.513  -8.314 -23.795  0.00  0.00    +0.022 C 
ATOM     26  C   UNL     1      34.683  -7.514 -23.238  0.00  0.00    +0.002 C 
ATOM     27  C   UNL     1      33.316  -7.027 -23.685  0.00  0.00    +0.002 C 
ENDBRANCH   1  23
TORSDOF 2
ENDMDL
MODEL 7
REMARK VINA RESULT:     -10.0      4.420     10.245
REMARK  Name = 24905142
REMARK  2 active torsions:
REMARK  status: ('A' for Active; 'I' for Inactive)
REMARK    1  A    between atoms: N_1  and  C_20
REMARK    2  A    between atoms: C_7  and  C_12
REMARK                            x       y       z     vdW  Elec       q    Type
REMARK                         _______ _______ _______ _____ _____    ______ ____
ROOT
ATOM      1  N   UNL     1      35.088 -24.388 -15.134  0.00  0.00    -0.200 N 
ATOM      2  N   UNL     1      35.448 -23.718 -16.244  0.00  0.00    -0.181 NA
ATOM      3  N   UNL     1      33.103 -24.910 -13.849  0.00  0.00    -0.232 NA
ATOM      4  N   UNL     1      31.102 -23.934 -14.843  0.00  0.00    -0.234 NA
ATOM      5  C   UNL     1      33.750 -24.340 -14.878  0.00  0.00    +0.137 C 
ATOM      6  C   UNL     1      33.194 -23.583 -15.894  0.00  0.00    +0.150 C 
ATOM      7  C   UNL     1      34.290 -23.230 -16.703  0.00  0.00    +0.091 C 
ATOM      8  C   UNL     1      31.818 -23.386 -15.855  0.00  0.00    +0.112 C 
ATOM      9  C   UNL     1      31.780 -24.651 -13.916  0.00  0.00    +0.252 C 
ATOM     10  N   UNL     1      31.160 -22.632 -16.843  0.00  0.00    -0.346 N 
ATOM     11  H   UNL     1      30.184 -22.505 -16.798  0.00  0.00    +0.143 HD
ATOM     12  H   UNL     1      31.673 -22.232 -17.582  0.00  0.00    +0.143 HD
ENDROOT
BRANCH   7  15
ATOM     13  N   UNL     1      32.966 -21.562 -19.766  0.00  0.00    -0.229 NA
ATOM     14  N   UNL     1      34.258 -20.207 -21.282  0.00  0.00    -0.297 N 
ATOM     15  C   UNL     1      34.274 -22.441 -17.901  0.00  0.00    +0.035 C 
ATOM     16  C   UNL     1      35.436 -21.823 -18.357  0.00  0.00    +0.006 C 
ATOM     17  C   UNL     1      33.102 -22.280 -18.627  0.00  0.00    +0.102 C 
ATOM     18  C   UNL     1      35.356 -21.064 -19.535  0.00  0.00    +0.033 C 
ATOM     19  C   UNL     1      34.117 -20.986 -20.164  0.00  0.00    +0.132 C 
ATOM     20  C   UNL     1      36.262 -20.299 -20.317  0.00  0.00    +0.019 C 
ATOM     21  C   UNL     1      35.558 -19.783 -21.384  0.00  0.00    +0.063 C 
ATOM     22  H   UNL     1      33.537 -19.985 -21.914  0.00  0.00    +0.154 HD
ENDBRANCH   7  15
BRANCH   1  23
ATOM     23  C   UNL     1      36.144 -25.096 -14.315  0.00  0.00    +0.098 C 
ATOM     24  C   UNL     1      37.370 -24.228 -13.964  0.00  0.00    +0.022 C 
ATOM     25  C   UNL     1      36.705 -26.341 -15.025  0.00  0.00    +0.022 C 
ATOM     26  C   UNL     1      38.565 -24.916 -14.614  0.00  0.00    +0.002 C 
ATOM     27  C   UNL     1      38.173 -26.383 -14.629  0.00  0.00    +0.002 C 
ENDBRANCH   1  23
TORSDOF 2
ENDMDL
MODEL 8
REMARK VINA RESULT:     -10.0      3.984      6.598
REMARK  Name = 24905142
REMARK  2 active torsions:
REMARK  status: ('A' for Active; 'I' for Inactive)
REMARK    1  A    between atoms: N_1  and  C_20
REMARK    2  A    between atoms: C_7  and  C_12
REMARK                            x       y       z     vdW  Elec       q    Type
REMARK                         _______ _______ _______ _____ _____    ______ ____
ROOT
ATOM      1  N   UNL     1      32.359 -10.605 -22.375  0.00  0.00    -0.200 N 
ATOM      2  N   UNL     1      32.345 -11.933 -22.598  0.00  0.00    -0.181 NA
ATOM      3  N   UNL     1      33.422  -8.599 -23.216  0.00  0.00    -0.232 NA
ATOM      4  N   UNL     1      34.961  -9.092 -25.042  0.00  0.00    -0.234 NA
ATOM      5  C   UNL     1      33.200  -9.923 -23.203  0.00  0.00    +0.137 C 
ATOM      6  C   UNL     1      33.778 -10.872 -24.027  0.00  0.00    +0.150 C 
ATOM      7  C   UNL     1      33.212 -12.089 -23.604  0.00  0.00    +0.091 C 
ATOM      8  C   UNL     1      34.689 -10.417 -24.974  0.00  0.00    +0.112 C 
ATOM      9  C   UNL     1      34.320  -8.276 -24.172  0.00  0.00    +0.252 C 
ATOM     10  N   UNL     1      35.330 -11.305 -25.857  0.00  0.00    -0.346 N 
ATOM     11  H   UNL     1      35.972 -10.962 -26.521  0.00  0.00    +0.143 HD
ATOM     12  H   UNL     1      35.136 -12.269 -25.813  0.00  0.00    +0.143 HD
ENDROOT
BRANCH   7  15
ATOM     13  N   UNL     1      33.198 -14.961 -25.986  0.00  0.00    -0.229 NA
ATOM     14  N   UNL     1      34.204 -17.111 -25.579  0.00  0.00    -0.297 N 
ATOM     15  C   UNL     1      33.467 -13.400 -24.127  0.00  0.00    +0.035 C 
ATOM     16  C   UNL     1      34.172 -14.337 -23.375  0.00  0.00    +0.006 C 
ATOM     17  C   UNL     1      33.017 -13.759 -25.390  0.00  0.00    +0.102 C 
ATOM     18  C   UNL     1      34.390 -15.603 -23.942  0.00  0.00    +0.033 C 
ATOM     19  C   UNL     1      33.884 -15.829 -25.218  0.00  0.00    +0.132 C 
ATOM     20  C   UNL     1      35.035 -16.802 -23.537  0.00  0.00    +0.019 C 
ATOM     21  C   UNL     1      34.905 -17.712 -24.565  0.00  0.00    +0.063 C 
ATOM     22  H   UNL     1      33.968 -17.536 -26.435  0.00  0.00    +0.154 HD
ENDBRANCH   7  15
BRANCH   1  23
ATOM     23  C   UNL     1      31.487 -10.023 -21.286  0.00  0.00    +0.098 C 
ATOM     24  C   UNL     1      32.253  -9.219 -20.214  0.00  0.00    +0.022 C 
ATOM     25  C   UNL     1      30.703 -11.101 -20.517  0.00  0.00    +0.022 C 
ATOM     26  C   UNL     1      32.013  -9.951 -18.898  0.00  0.00    +0.002 C 
ATOM     27  C   UNL     1      30.649 -10.592 -19.085  0.00  0.00    +0.002 C 
ENDBRANCH   1  23
TORSDOF 2
ENDMDL
MODEL 9
REMARK VINA RESULT:      -9.9      6.062      9.202
REMARK  Name = 24905142
REMARK  2 active torsions:
REMARK  status: ('A' for Active; 'I' for Inactive)
REMARK    1  A    between atoms: N_1  and  C_20
REMARK    2  A    between atoms: C_7  and  C_12
REMARK                            x       y       z     vdW  Elec       q    Type
REMARK                         _______ _______ _______ _____ _____    ______ ____
ROOT
ATOM      1  N   UNL     1      32.404 -23.444 -16.649  0.00  0.00    -0.200 N 
ATOM      2  N   UNL     1      33.161 -23.884 -15.627  0.00  0.00    -0.181 NA
ATOM      3  N   UNL     1      32.631 -22.236 -18.735  0.00  0.00    -0.232 NA
ATOM      4  N   UNL     1      34.946 -21.594 -19.158  0.00  0.00    -0.234 NA
ATOM      5  C   UNL     1      33.113 -22.783 -17.608  0.00  0.00    +0.137 C 
ATOM      6  C   UNL     1      34.429 -22.791 -17.182  0.00  0.00    +0.150 C 
ATOM      7  C   UNL     1      34.394 -23.483 -15.957  0.00  0.00    +0.091 C 
ATOM      8  C   UNL     1      35.363 -22.168 -18.004  0.00  0.00    +0.112 C 
ATOM      9  C   UNL     1      33.624 -21.662 -19.448  0.00  0.00    +0.252 C 
ATOM     10  N   UNL     1      36.725 -22.124 -17.659  0.00  0.00    -0.346 N 
ATOM     11  H   UNL     1      37.371 -21.677 -18.255  0.00  0.00    +0.143 HD
ATOM     12  H   UNL     1      37.036 -22.540 -16.822  0.00  0.00    +0.143 HD
ENDROOT
BRANCH   7  15
ATOM     13  N   UNL     1      36.660 -23.274 -13.001  0.00  0.00    -0.229 NA
ATOM     14  N   UNL     1      38.620 -24.631 -12.652  0.00  0.00    -0.297 N 
ATOM     15  C   UNL     1      35.496 -23.777 -15.088  0.00  0.00    +0.035 C 
ATOM     16  C   UNL     1      36.419 -24.765 -15.426  0.00  0.00    +0.006 C 
ATOM     17  C   UNL     1      35.664 -23.085 -13.897  0.00  0.00    +0.102 C 
ATOM     18  C   UNL     1      37.476 -25.006 -14.533  0.00  0.00    +0.033 C 
ATOM     19  C   UNL     1      37.524 -24.238 -13.374  0.00  0.00    +0.132 C 
ATOM     20  C   UNL     1      38.590 -25.886 -14.490  0.00  0.00    +0.019 C 
ATOM     21  C   UNL     1      39.275 -25.633 -13.321  0.00  0.00    +0.063 C 
ATOM     22  H   UNL     1      38.894 -24.252 -11.786  0.00  0.00    +0.154 HD
ENDBRANCH   7  15
BRANCH   1  23
ATOM     23  C   UNL     1      30.915 -23.708 -16.641  0.00  0.00    +0.098 C 
ATOM     24  C   UNL     1      30.044 -22.456 -16.403  0.00  0.00    +0.022 C 
ATOM     25  C   UNL     1      30.500 -24.716 -15.555  0.00  0.00    +0.022 C 
ATOM     26  C   UNL     1      29.281 -22.723 -15.110  0.00  0.00    +0.002 C 
ATOM     27  C   UNL     1      29.138 -24.233 -15.080  0.00  0.00    +0.002 C 
ENDBRANCH   1  23
TORSDOF 2
ENDMDL
