MODEL 1
REMARK VINA RESULT:      -7.7      0.000      0.000
REMARK  Name = 54120
REMARK  7 active torsions:
REMARK  status: ('A' for Active; 'I' for Inactive)
REMARK    1  A    between atoms: C_1  and  C_5
REMARK    2  A    between atoms: C_1  and  S_12
REMARK    3  A    between atoms: N_4  and  C_7
REMARK    4  A    between atoms: C_7  and  C_9
REMARK    5  A    between atoms: C_9  and  O_10
REMARK    6  A    between atoms: S_12  and  C_14
REMARK    7  A    between atoms: C_14  and  C_16
REMARK                            x       y       z     vdW  Elec       q    Type
REMARK                         _______ _______ _______ _____ _____    ______ ____
ROOT
ATOM      1  C   UNL     1      36.460 -23.159 -15.941  0.00  0.00    +0.131 C 
ATOM      2  C   UNL     1      36.979 -21.871 -16.565  0.00  0.00    +0.022 C 
ENDROOT
BRANCH   1   5
ATOM      3  O   UNL     1      37.842 -23.157 -13.956  0.00  0.00    -0.274 OA
ATOM      4  N   UNL     1      37.867 -25.030 -15.328  0.00  0.00    -0.294 N 
ATOM      5  C   UNL     1      37.462 -23.755 -14.962  0.00  0.00    +0.233 C 
ATOM      6  H   UNL     1      37.504 -25.423 -16.154  0.00  0.00    +0.150 HD
BRANCH   4   7
ATOM      7  C   UNL     1      38.801 -25.805 -14.544  0.00  0.00    +0.200 C 
BRANCH   7   9
ATOM      8  O   UNL     1      40.972 -24.837 -14.169  0.00  0.00    -0.248 OA
ATOM      9  C   UNL     1      40.239 -25.509 -14.883  0.00  0.00    +0.334 C 
BRANCH   9  10
ATOM     10  O   UNL     1      40.641 -26.056 -16.054  0.00  0.00    -0.479 OA
ATOM     11  H   UNL     1      41.552 -26.195 -16.217  0.00  0.00    +0.295 HD
ENDBRANCH   9  10
ENDBRANCH   7   9
ENDBRANCH   4   7
ENDBRANCH   1   5
BRANCH   1  12
ATOM     12  S   UNL     1      34.919 -22.823 -15.027  0.00  0.00    -0.064 S 
BRANCH  12  14
ATOM     13  O   UNL     1      34.060 -23.686 -17.352  0.00  0.00    -0.279 OA
ATOM     14  C   UNL     1      33.725 -23.358 -16.219  0.00  0.00    +0.228 C 
BRANCH  14  16
ATOM     15  S   UNL     1      32.085 -24.160 -14.216  0.00  0.00    -0.083 S 
ATOM     16  C   UNL     1      32.349 -23.428 -15.721  0.00  0.00    +0.074 C 
ATOM     17  C   UNL     1      31.227 -22.969 -16.325  0.00  0.00    +0.011 C 
ATOM     18  C   UNL     1      30.079 -23.226 -15.520  0.00  0.00    +0.008 C 
ATOM     19  C   UNL     1      30.404 -23.868 -14.346  0.00  0.00    +0.036 C 
ENDBRANCH  14  16
ENDBRANCH  12  14
ENDBRANCH   1  12
TORSDOF 7
ENDMDL
MODEL 2
REMARK VINA RESULT:      -7.6      9.138     11.360
REMARK  Name = 54120
REMARK  7 active torsions:
REMARK  status: ('A' for Active; 'I' for Inactive)
REMARK    1  A    between atoms: C_1  and  C_5
REMARK    2  A    between atoms: C_1  and  S_12
REMARK    3  A    between atoms: N_4  and  C_7
REMARK    4  A    between atoms: C_7  and  C_9
REMARK    5  A    between atoms: C_9  and  O_10
REMARK    6  A    between atoms: S_12  and  C_14
REMARK    7  A    between atoms: C_14  and  C_16
REMARK                            x       y       z     vdW  Elec       q    Type
REMARK                         _______ _______ _______ _____ _____    ______ ____
ROOT
ATOM      1  C   UNL     1      33.711 -16.279 -21.685  0.00  0.00    +0.131 C 
ATOM      2  C   UNL     1      33.296 -15.312 -20.584  0.00  0.00    +0.022 C 
ENDROOT
BRANCH   1   5
ATOM      3  O   UNL     1      35.326 -15.653 -23.373  0.00  0.00    -0.274 OA
ATOM      4  N   UNL     1      33.182 -14.773 -23.504  0.00  0.00    -0.294 N 
ATOM      5  C   UNL     1      34.183 -15.545 -22.931  0.00  0.00    +0.233 C 
ATOM      6  H   UNL     1      32.297 -14.752 -23.073  0.00  0.00    +0.150 HD
BRANCH   4   7
ATOM      7  C   UNL     1      33.386 -13.999 -24.705  0.00  0.00    +0.200 C 
BRANCH   7   9
ATOM      8  O   UNL     1      33.801 -15.696 -26.360  0.00  0.00    -0.248 OA
ATOM      9  C   UNL     1      33.096 -14.777 -25.962  0.00  0.00    +0.334 C 
BRANCH   9  10
ATOM     10  O   UNL     1      31.982 -14.363 -26.610  0.00  0.00    -0.479 OA
ATOM     11  H   UNL     1      31.890 -14.517 -27.528  0.00  0.00    +0.295 HD
ENDBRANCH   9  10
ENDBRANCH   7   9
ENDBRANCH   4   7
ENDBRANCH   1   5
BRANCH   1  12
ATOM     12  S   UNL     1      35.084 -17.325 -21.099  0.00  0.00    -0.064 S 
BRANCH  12  14
ATOM     13  O   UNL     1      34.576 -19.035 -23.023  0.00  0.00    -0.279 OA
ATOM     14  C   UNL     1      34.619 -18.878 -21.808  0.00  0.00    +0.228 C 
BRANCH  14  16
ATOM     15  S   UNL     1      35.683 -20.813 -20.236  0.00  0.00    -0.083 S 
ATOM     16  C   UNL     1      34.358 -19.944 -20.836  0.00  0.00    +0.074 C 
ATOM     17  C   UNL     1      33.161 -20.335 -20.341  0.00  0.00    +0.011 C 
ATOM     18  C   UNL     1      33.323 -21.407 -19.416  0.00  0.00    +0.008 C 
ATOM     19  C   UNL     1      34.644 -21.765 -19.265  0.00  0.00    +0.036 C 
ENDBRANCH  14  16
ENDBRANCH  12  14
ENDBRANCH   1  12
TORSDOF 7
ENDMDL
MODEL 3
REMARK VINA RESULT:      -7.5      9.130     11.362
REMARK  Name = 54120
REMARK  7 active torsions:
REMARK  status: ('A' for Active; 'I' for Inactive)
REMARK    1  A    between atoms: C_1  and  C_5
REMARK    2  A    between atoms: C_1  and  S_12
REMARK    3  A    between atoms: N_4  and  C_7
REMARK    4  A    between atoms: C_7  and  C_9
REMARK    5  A    between atoms: C_9  and  O_10
REMARK    6  A    between atoms: S_12  and  C_14
REMARK    7  A    between atoms: C_14  and  C_16
REMARK                            x       y       z     vdW  Elec       q    Type
REMARK                         _______ _______ _______ _____ _____    ______ ____
ROOT
ATOM      1  C   UNL     1      35.139 -17.703 -23.921  0.00  0.00    +0.131 C 
ATOM      2  C   UNL     1      34.615 -19.057 -24.381  0.00  0.00    +0.022 C 
ENDROOT
BRANCH   1   5
ATOM      3  O   UNL     1      34.574 -16.500 -25.942  0.00  0.00    -0.274 OA
ATOM      4  N   UNL     1      33.890 -15.630 -23.901  0.00  0.00    -0.294 N 
ATOM      5  C   UNL     1      34.521 -16.561 -24.714  0.00  0.00    +0.233 C 
ATOM      6  H   UNL     1      33.904 -15.768 -22.927  0.00  0.00    +0.150 HD
BRANCH   4   7
ATOM      7  C   UNL     1      33.215 -14.466 -24.428  0.00  0.00    +0.200 C 
BRANCH   7   9
ATOM      8  O   UNL     1      32.716 -13.102 -22.510  0.00  0.00    -0.248 OA
ATOM      9  C   UNL     1      33.356 -13.255 -23.543  0.00  0.00    +0.334 C 
BRANCH   9  10
ATOM     10  O   UNL     1      34.254 -12.353 -24.000  0.00  0.00    -0.479 OA
ATOM     11  H   UNL     1      35.053 -12.210 -23.534  0.00  0.00    +0.295 HD
ENDBRANCH   9  10
ENDBRANCH   7   9
ENDBRANCH   4   7
ENDBRANCH   1   5
BRANCH   1  12
ATOM     12  S   UNL     1      34.729 -17.449 -22.164  0.00  0.00    -0.064 S 
BRANCH  12  14
ATOM     13  O   UNL     1      36.908 -18.733 -21.463  0.00  0.00    -0.279 OA
ATOM     14  C   UNL     1      35.682 -18.747 -21.429  0.00  0.00    +0.228 C 
BRANCH  14  16
ATOM     15  S   UNL     1      35.731 -21.018 -19.952  0.00  0.00    -0.083 S 
ATOM     16  C   UNL     1      34.895 -19.776 -20.745  0.00  0.00    +0.074 C 
ATOM     17  C   UNL     1      33.547 -19.865 -20.661  0.00  0.00    +0.011 C 
ATOM     18  C   UNL     1      33.163 -21.013 -19.908  0.00  0.00    +0.008 C 
ATOM     19  C   UNL     1      34.252 -21.727 -19.462  0.00  0.00    +0.036 C 
ENDBRANCH  14  16
ENDBRANCH  12  14
ENDBRANCH   1  12
TORSDOF 7
ENDMDL
MODEL 4
REMARK VINA RESULT:      -7.3      7.884      9.574
REMARK  Name = 54120
REMARK  7 active torsions:
REMARK  status: ('A' for Active; 'I' for Inactive)
REMARK    1  A    between atoms: C_1  and  C_5
REMARK    2  A    between atoms: C_1  and  S_12
REMARK    3  A    between atoms: N_4  and  C_7
REMARK    4  A    between atoms: C_7  and  C_9
REMARK    5  A    between atoms: C_9  and  O_10
REMARK    6  A    between atoms: S_12  and  C_14
REMARK    7  A    between atoms: C_14  and  C_16
REMARK                            x       y       z     vdW  Elec       q    Type
REMARK                         _______ _______ _______ _____ _____    ______ ____
ROOT
ATOM      1  C   UNL     1      34.589 -18.542 -22.168  0.00  0.00    +0.131 C 
ATOM      2  C   UNL     1      34.603 -19.313 -23.481  0.00  0.00    +0.022 C 
ENDROOT
BRANCH   1   5
ATOM      3  O   UNL     1      36.331 -19.063 -20.574  0.00  0.00    -0.274 OA
ATOM      4  N   UNL     1      34.418 -20.377 -20.600  0.00  0.00    -0.294 N 
ATOM      5  C   UNL     1      35.226 -19.339 -21.040  0.00  0.00    +0.233 C 
ATOM      6  H   UNL     1      33.549 -20.517 -21.039  0.00  0.00    +0.150 HD
BRANCH   4   7
ATOM      7  C   UNL     1      34.802 -21.262 -19.525  0.00  0.00    +0.200 C 
BRANCH   7   9
ATOM      8  O   UNL     1      34.076 -23.556 -19.512  0.00  0.00    -0.248 OA
ATOM      9  C   UNL     1      33.815 -22.378 -19.302  0.00  0.00    +0.334 C 
BRANCH   9  10
ATOM     10  O   UNL     1      32.612 -21.954 -18.849  0.00  0.00    -0.479 OA
ATOM     11  H   UNL     1      31.990 -21.589 -19.446  0.00  0.00    +0.295 HD
ENDBRANCH   9  10
ENDBRANCH   7   9
ENDBRANCH   4   7
ENDBRANCH   1   5
BRANCH   1  12
ATOM     12  S   UNL     1      35.527 -16.990 -22.356  0.00  0.00    -0.064 S 
BRANCH  12  14
ATOM     13  O   UNL     1      34.975 -16.111 -19.947  0.00  0.00    -0.279 OA
ATOM     14  C   UNL     1      34.722 -15.988 -21.140  0.00  0.00    +0.228 C 
BRANCH  14  16
ATOM     15  S   UNL     1      33.795 -14.735 -23.358  0.00  0.00    -0.083 S 
ATOM     16  C   UNL     1      33.799 -14.987 -21.682  0.00  0.00    +0.074 C 
ATOM     17  C   UNL     1      32.923 -14.215 -20.997  0.00  0.00    +0.011 C 
ATOM     18  C   UNL     1      32.201 -13.363 -21.883  0.00  0.00    +0.008 C 
ATOM     19  C   UNL     1      32.576 -13.544 -23.195  0.00  0.00    +0.036 C 
ENDBRANCH  14  16
ENDBRANCH  12  14
ENDBRANCH   1  12
TORSDOF 7
ENDMDL
MODEL 5
REMARK VINA RESULT:      -7.2      6.364      8.290
REMARK  Name = 54120
REMARK  7 active torsions:
REMARK  status: ('A' for Active; 'I' for Inactive)
REMARK    1  A    between atoms: C_1  and  C_5
REMARK    2  A    between atoms: C_1  and  S_12
REMARK    3  A    between atoms: N_4  and  C_7
REMARK    4  A    between atoms: C_7  and  C_9
REMARK    5  A    between atoms: C_9  and  O_10
REMARK    6  A    between atoms: S_12  and  C_14
REMARK    7  A    between atoms: C_14  and  C_16
REMARK                            x       y       z     vdW  Elec       q    Type
REMARK                         _______ _______ _______ _____ _____    ______ ____
ROOT
ATOM      1  C   UNL     1      34.076 -20.355 -20.011  0.00  0.00    +0.131 C 
ATOM      2  C   UNL     1      32.790 -20.268 -20.821  0.00  0.00    +0.022 C 
ENDROOT
BRANCH   1   5
ATOM      3  O   UNL     1      35.250 -22.432 -19.612  0.00  0.00    -0.274 OA
ATOM      4  N   UNL     1      33.209 -22.088 -18.561  0.00  0.00    -0.294 N 
ATOM      5  C   UNL     1      34.261 -21.734 -19.394  0.00  0.00    +0.233 C 
ATOM      6  H   UNL     1      32.461 -21.458 -18.451  0.00  0.00    +0.150 HD
BRANCH   4   7
ATOM      7  C   UNL     1      33.169 -23.344 -17.848  0.00  0.00    +0.200 C 
BRANCH   7   9
ATOM      8  O   UNL     1      33.306 -23.206 -15.449  0.00  0.00    -0.248 OA
ATOM      9  C   UNL     1      33.887 -23.290 -16.524  0.00  0.00    +0.334 C 
BRANCH   9  10
ATOM     10  O   UNL     1      35.234 -23.343 -16.637  0.00  0.00    -0.479 OA
ATOM     11  H   UNL     1      35.769 -23.357 -15.869  0.00  0.00    +0.295 HD
ENDBRANCH   9  10
ENDBRANCH   7   9
ENDBRANCH   4   7
ENDBRANCH   1   5
BRANCH   1  12
ATOM     12  S   UNL     1      35.507 -20.030 -21.091  0.00  0.00    -0.064 S 
BRANCH  12  14
ATOM     13  O   UNL     1      35.351 -17.461 -20.583  0.00  0.00    -0.279 OA
ATOM     14  C   UNL     1      35.245 -18.318 -21.453  0.00  0.00    +0.228 C 
BRANCH  14  16
ATOM     15  S   UNL     1      34.911 -16.399 -23.337  0.00  0.00    -0.083 S 
ATOM     16  C   UNL     1      34.957 -18.024 -22.860  0.00  0.00    +0.074 C 
ATOM     17  C   UNL     1      34.717 -18.908 -23.856  0.00  0.00    +0.011 C 
ATOM     18  C   UNL     1      34.479 -18.230 -25.087  0.00  0.00    +0.008 C 
ATOM     19  C   UNL     1      34.556 -16.862 -24.947  0.00  0.00    +0.036 C 
ENDBRANCH  14  16
ENDBRANCH  12  14
ENDBRANCH   1  12
TORSDOF 7
ENDMDL
MODEL 6
REMARK VINA RESULT:      -7.2      1.511      2.218
REMARK  Name = 54120
REMARK  7 active torsions:
REMARK  status: ('A' for Active; 'I' for Inactive)
REMARK    1  A    between atoms: C_1  and  C_5
REMARK    2  A    between atoms: C_1  and  S_12
REMARK    3  A    between atoms: N_4  and  C_7
REMARK    4  A    between atoms: C_7  and  C_9
REMARK    5  A    between atoms: C_9  and  O_10
REMARK    6  A    between atoms: S_12  and  C_14
REMARK    7  A    between atoms: C_14  and  C_16
REMARK                            x       y       z     vdW  Elec       q    Type
REMARK                         _______ _______ _______ _____ _____    ______ ____
ROOT
ATOM      1  C   UNL     1      36.564 -23.097 -16.082  0.00  0.00    +0.131 C 
ATOM      2  C   UNL     1      37.050 -21.785 -16.683  0.00  0.00    +0.022 C 
ENDROOT
BRANCH   1   5
ATOM      3  O   UNL     1      38.808 -23.637 -15.359  0.00  0.00    -0.274 OA
ATOM      4  N   UNL     1      37.021 -24.309 -14.038  0.00  0.00    -0.294 N 
ATOM      5  C   UNL     1      37.598 -23.703 -15.145  0.00  0.00    +0.233 C 
ATOM      6  H   UNL     1      36.041 -24.309 -13.957  0.00  0.00    +0.150 HD
BRANCH   4   7
ATOM      7  C   UNL     1      37.803 -24.938 -12.999  0.00  0.00    +0.200 C 
BRANCH   7   9
ATOM      8  O   UNL     1      38.875 -23.223 -11.694  0.00  0.00    -0.248 OA
ATOM      9  C   UNL     1      37.985 -24.060 -11.788  0.00  0.00    +0.334 C 
BRANCH   9  10
ATOM     10  O   UNL     1      37.074 -24.286 -10.814  0.00  0.00    -0.479 OA
ATOM     11  H   UNL     1      36.163 -24.323 -11.025  0.00  0.00    +0.295 HD
ENDBRANCH   9  10
ENDBRANCH   7   9
ENDBRANCH   4   7
ENDBRANCH   1   5
BRANCH   1  12
ATOM     12  S   UNL     1      35.041 -22.808 -15.123  0.00  0.00    -0.064 S 
BRANCH  12  14
ATOM     13  O   UNL     1      34.150 -23.765 -17.398  0.00  0.00    -0.279 OA
ATOM     14  C   UNL     1      33.830 -23.380 -16.278  0.00  0.00    +0.228 C 
BRANCH  14  16
ATOM     15  S   UNL     1      32.201 -24.036 -14.214  0.00  0.00    -0.083 S 
ATOM     16  C   UNL     1      32.457 -23.407 -15.766  0.00  0.00    +0.074 C 
ATOM     17  C   UNL     1      31.334 -22.982 -16.391  0.00  0.00    +0.011 C 
ATOM     18  C   UNL     1      30.190 -23.178 -15.563  0.00  0.00    +0.008 C 
ATOM     19  C   UNL     1      30.520 -23.742 -14.350  0.00  0.00    +0.036 C 
ENDBRANCH  14  16
ENDBRANCH  12  14
ENDBRANCH   1  12
TORSDOF 7
ENDMDL
MODEL 7
REMARK VINA RESULT:      -7.1      3.651      5.144
REMARK  Name = 54120
REMARK  7 active torsions:
REMARK  status: ('A' for Active; 'I' for Inactive)
REMARK    1  A    between atoms: C_1  and  C_5
REMARK    2  A    between atoms: C_1  and  S_12
REMARK    3  A    between atoms: N_4  and  C_7
REMARK    4  A    between atoms: C_7  and  C_9
REMARK    5  A    between atoms: C_9  and  O_10
REMARK    6  A    between atoms: S_12  and  C_14
REMARK    7  A    between atoms: C_14  and  C_16
REMARK                            x       y       z     vdW  Elec       q    Type
REMARK                         _______ _______ _______ _____ _____    ______ ____
ROOT
ATOM      1  C   UNL     1      33.622 -22.984 -16.086  0.00  0.00    +0.131 C 
ATOM      2  C   UNL     1      32.252 -23.311 -15.506  0.00  0.00    +0.022 C 
ENDROOT
BRANCH   1   5
ATOM      3  O   UNL     1      35.282 -24.734 -15.912  0.00  0.00    -0.274 OA
ATOM      4  N   UNL     1      35.039 -23.251 -14.143  0.00  0.00    -0.294 N 
ATOM      5  C   UNL     1      34.728 -23.766 -15.393  0.00  0.00    +0.233 C 
ATOM      6  H   UNL     1      34.537 -22.472 -13.815  0.00  0.00    +0.150 HD
BRANCH   4   7
ATOM      7  C   UNL     1      36.070 -23.815 -13.303  0.00  0.00    +0.200 C 
BRANCH   7   9
ATOM      8  O   UNL     1      36.212 -25.156 -11.309  0.00  0.00    -0.248 OA
ATOM      9  C   UNL     1      35.521 -24.695 -12.209  0.00  0.00    +0.334 C 
BRANCH   9  10
ATOM     10  O   UNL     1      34.192 -24.927 -12.319  0.00  0.00    -0.479 OA
ATOM     11  H   UNL     1      33.693 -24.488 -12.977  0.00  0.00    +0.295 HD
ENDBRANCH   9  10
ENDBRANCH   7   9
ENDBRANCH   4   7
ENDBRANCH   1   5
BRANCH   1  12
ATOM     12  S   UNL     1      33.659 -23.413 -17.857  0.00  0.00    -0.064 S 
BRANCH  12  14
ATOM     13  O   UNL     1      35.999 -22.245 -18.066  0.00  0.00    -0.279 OA
ATOM     14  C   UNL     1      34.832 -22.225 -18.443  0.00  0.00    +0.228 C 
BRANCH  14  16
ATOM     15  S   UNL     1      35.420 -20.507 -20.454  0.00  0.00    -0.083 S 
ATOM     16  C   UNL     1      34.310 -21.284 -19.437  0.00  0.00    +0.074 C 
ATOM     17  C   UNL     1      33.017 -20.945 -19.655  0.00  0.00    +0.011 C 
ATOM     18  C   UNL     1      32.916 -19.994 -20.712  0.00  0.00    +0.008 C 
ATOM     19  C   UNL     1      34.147 -19.669 -21.236  0.00  0.00    +0.036 C 
ENDBRANCH  14  16
ENDBRANCH  12  14
ENDBRANCH   1  12
TORSDOF 7
ENDMDL
MODEL 8
REMARK VINA RESULT:      -7.0      2.333      3.015
REMARK  Name = 54120
REMARK  7 active torsions:
REMARK  status: ('A' for Active; 'I' for Inactive)
REMARK    1  A    between atoms: C_1  and  C_5
REMARK    2  A    between atoms: C_1  and  S_12
REMARK    3  A    between atoms: N_4  and  C_7
REMARK    4  A    between atoms: C_7  and  C_9
REMARK    5  A    between atoms: C_9  and  O_10
REMARK    6  A    between atoms: S_12  and  C_14
REMARK    7  A    between atoms: C_14  and  C_16
REMARK                            x       y       z     vdW  Elec       q    Type
REMARK                         _______ _______ _______ _____ _____    ______ ____
ROOT
ATOM      1  C   UNL     1      33.758 -24.001 -15.757  0.00  0.00    +0.131 C 
ATOM      2  C   UNL     1      33.556 -23.113 -16.977  0.00  0.00    +0.022 C 
ENDROOT
BRANCH   1   5
ATOM      3  O   UNL     1      36.132 -23.665 -16.068  0.00  0.00    -0.274 OA
ATOM      4  N   UNL     1      35.426 -25.287 -14.565  0.00  0.00    -0.294 N 
ATOM      5  C   UNL     1      35.231 -24.283 -15.503  0.00  0.00    +0.233 C 
ATOM      6  H   UNL     1      34.638 -25.723 -14.169  0.00  0.00    +0.150 HD
BRANCH   4   7
ATOM      7  C   UNL     1      36.740 -25.717 -14.147  0.00  0.00    +0.200 C 
BRANCH   7   9
ATOM      8  O   UNL     1      36.750 -27.205 -16.039  0.00  0.00    -0.248 OA
ATOM      9  C   UNL     1      37.335 -26.757 -15.060  0.00  0.00    +0.334 C 
BRANCH   9  10
ATOM     10  O   UNL     1      38.577 -27.151 -14.694  0.00  0.00    -0.479 OA
ATOM     11  H   UNL     1      39.225 -27.327 -15.347  0.00  0.00    +0.295 HD
ENDBRANCH   9  10
ENDBRANCH   7   9
ENDBRANCH   4   7
ENDBRANCH   1   5
BRANCH   1  12
ATOM     12  S   UNL     1      33.083 -23.177 -14.278  0.00  0.00    -0.064 S 
BRANCH  12  14
ATOM     13  O   UNL     1      31.717 -25.098 -13.126  0.00  0.00    -0.279 OA
ATOM     14  C   UNL     1      31.676 -24.202 -13.962  0.00  0.00    +0.228 C 
BRANCH  14  16
ATOM     15  S   UNL     1      29.483 -25.111 -15.269  0.00  0.00    -0.083 S 
ATOM     16  C   UNL     1      30.476 -23.850 -14.725  0.00  0.00    +0.074 C 
ATOM     17  C   UNL     1      30.043 -22.612 -15.061  0.00  0.00    +0.011 C 
ATOM     18  C   UNL     1      28.832 -22.686 -15.808  0.00  0.00    +0.008 C 
ATOM     19  C   UNL     1      28.416 -23.985 -15.992  0.00  0.00    +0.036 C 
ENDBRANCH  14  16
ENDBRANCH  12  14
ENDBRANCH   1  12
TORSDOF 7
ENDMDL
MODEL 9
REMARK VINA RESULT:      -7.0     11.214     12.794
REMARK  Name = 54120
REMARK  7 active torsions:
REMARK  status: ('A' for Active; 'I' for Inactive)
REMARK    1  A    between atoms: C_1  and  C_5
REMARK    2  A    between atoms: C_1  and  S_12
REMARK    3  A    between atoms: N_4  and  C_7
REMARK    4  A    between atoms: C_7  and  C_9
REMARK    5  A    between atoms: C_9  and  O_10
REMARK    6  A    between atoms: S_12  and  C_14
REMARK    7  A    between atoms: C_14  and  C_16
REMARK                            x       y       z     vdW  Elec       q    Type
REMARK                         _______ _______ _______ _____ _____    ______ ____
ROOT
ATOM      1  C   UNL     1      33.186 -14.878 -24.826  0.00  0.00    +0.131 C 
ATOM      2  C   UNL     1      33.051 -14.309 -26.232  0.00  0.00    +0.022 C 
ENDROOT
BRANCH   1   5
ATOM      3  O   UNL     1      34.659 -16.535 -25.794  0.00  0.00    -0.274 OA
ATOM      4  N   UNL     1      34.460 -16.437 -23.483  0.00  0.00    -0.294 N 
ATOM      5  C   UNL     1      34.172 -16.037 -24.780  0.00  0.00    +0.233 C 
ATOM      6  H   UNL     1      34.017 -15.974 -22.737  0.00  0.00    +0.150 HD
BRANCH   4   7
ATOM      7  C   UNL     1      35.383 -17.507 -23.186  0.00  0.00    +0.200 C 
BRANCH   7   9
ATOM      8  O   UNL     1      34.261 -19.442 -22.299  0.00  0.00    -0.248 OA
ATOM      9  C   UNL     1      34.748 -18.871 -23.267  0.00  0.00    +0.334 C 
BRANCH   9  10
ATOM     10  O   UNL     1      34.769 -19.404 -24.511  0.00  0.00    -0.479 OA
ATOM     11  H   UNL     1      33.975 -19.481 -25.000  0.00  0.00    +0.295 HD
ENDBRANCH   9  10
ENDBRANCH   7   9
ENDBRANCH   4   7
ENDBRANCH   1   5
BRANCH   1  12
ATOM     12  S   UNL     1      33.789 -13.585 -23.693  0.00  0.00    -0.064 S 
BRANCH  12  14
ATOM     13  O   UNL     1      32.238 -14.824 -21.977  0.00  0.00    -0.279 OA
ATOM     14  C   UNL     1      32.598 -13.728 -22.392  0.00  0.00    +0.228 C 
BRANCH  14  16
ATOM     15  S   UNL     1      32.301 -11.064 -22.791  0.00  0.00    -0.083 S 
ATOM     16  C   UNL     1      32.143 -12.452 -21.832  0.00  0.00    +0.074 C 
ATOM     17  C   UNL     1      31.596 -12.233 -20.614  0.00  0.00    +0.011 C 
ATOM     18  C   UNL     1      31.284 -10.853 -20.441  0.00  0.00    +0.008 C 
ATOM     19  C   UNL     1      31.615 -10.105 -21.549  0.00  0.00    +0.036 C 
ENDBRANCH  14  16
ENDBRANCH  12  14
ENDBRANCH   1  12
TORSDOF 7
ENDMDL
