MODEL 1
REMARK VINA RESULT:      -8.8      0.000      0.000
REMARK  Name = 5092
REMARK  4 active torsions:
REMARK  status: ('A' for Active; 'I' for Inactive)
REMARK    1  A    between atoms: C_1  and  C_9
REMARK    2  A    between atoms: C_2  and  O_16
REMARK    3  A    between atoms: C_5  and  O_14
REMARK    4  A    between atoms: O_16  and  C_17
REMARK                            x       y       z     vdW  Elec       q    Type
REMARK                         _______ _______ _______ _____ _____    ______ ____
ROOT
ATOM      1  C   UNL     1      34.508 -22.053 -18.637  0.00  0.00    -0.017 C 
ATOM      2  C   UNL     1      33.449 -23.283 -16.856  0.00  0.00    +0.172 C 
ATOM      3  C   UNL     1      33.374 -22.665 -18.101  0.00  0.00    +0.036 C 
ATOM      4  C   UNL     1      35.709 -22.065 -17.929  0.00  0.00    -0.001 C 
ATOM      5  C   UNL     1      34.644 -23.299 -16.145  0.00  0.00    +0.172 C 
ATOM      6  C   UNL     1      35.777 -22.687 -16.683  0.00  0.00    +0.040 C 
ENDROOT
BRANCH   1   9
ATOM      7  O   UNL     1      35.688 -18.841 -22.158  0.00  0.00    -0.275 OA
ATOM      8  N   UNL     1      33.657 -19.585 -21.267  0.00  0.00    -0.304 N 
ATOM      9  C   UNL     1      34.434 -21.378 -19.990  0.00  0.00    +0.051 C 
ATOM     10  C   UNL     1      33.230 -20.461 -20.212  0.00  0.00    +0.094 C 
ATOM     11  C   UNL     1      35.613 -20.449 -20.339  0.00  0.00    +0.091 C 
ATOM     12  C   UNL     1      35.038 -19.529 -21.388  0.00  0.00    +0.223 C 
ATOM     13  H   UNL     1      33.037 -19.081 -21.842  0.00  0.00    +0.149 HD
ENDBRANCH   1   9
BRANCH   5  14
ATOM     14  O   UNL     1      34.723 -23.904 -14.927  0.00  0.00    -0.468 OA
ATOM     15  C   UNL     1      35.620 -25.006 -14.809  0.00  0.00    +0.253 C 
ENDBRANCH   5  14
BRANCH   2  16
ATOM     16  O   UNL     1      32.329 -23.881 -16.340  0.00  0.00    -0.476 OA
BRANCH  16  17
ATOM     17  C   UNL     1      31.272 -23.020 -15.937  0.00  0.00    +0.166 C 
ATOM     18  C   UNL     1      31.407 -22.717 -14.452  0.00  0.00    +0.044 C 
ATOM     19  C   UNL     1      29.938 -23.744 -16.020  0.00  0.00    +0.044 C 
ATOM     20  C   UNL     1      30.831 -23.949 -13.755  0.00  0.00    +0.004 C 
ATOM     21  C   UNL     1      29.912 -24.625 -14.773  0.00  0.00    +0.004 C 
ENDBRANCH  16  17
ENDBRANCH   2  16
TORSDOF 4
ENDMDL
MODEL 2
REMARK VINA RESULT:      -8.8      2.239      4.378
REMARK  Name = 5092
REMARK  4 active torsions:
REMARK  status: ('A' for Active; 'I' for Inactive)
REMARK    1  A    between atoms: C_1  and  C_9
REMARK    2  A    between atoms: C_2  and  O_16
REMARK    3  A    between atoms: C_5  and  O_14
REMARK    4  A    between atoms: O_16  and  C_17
REMARK                            x       y       z     vdW  Elec       q    Type
REMARK                         _______ _______ _______ _____ _____    ______ ____
ROOT
ATOM      1  C   UNL     1      34.882 -20.162 -20.554  0.00  0.00    -0.017 C 
ATOM      2  C   UNL     1      35.128 -21.839 -18.842  0.00  0.00    +0.172 C 
ATOM      3  C   UNL     1      35.687 -20.848 -19.644  0.00  0.00    +0.036 C 
ATOM      4  C   UNL     1      33.526 -20.469 -20.657  0.00  0.00    -0.001 C 
ATOM      5  C   UNL     1      33.776 -22.150 -18.940  0.00  0.00    +0.172 C 
ATOM      6  C   UNL     1      32.973 -21.462 -19.850  0.00  0.00    +0.040 C 
ENDROOT
BRANCH   1   9
ATOM      7  O   UNL     1      35.253 -15.757 -22.693  0.00  0.00    -0.275 OA
ATOM      8  N   UNL     1      35.463 -17.954 -23.473  0.00  0.00    -0.304 N 
ATOM      9  C   UNL     1      35.483 -19.084 -21.431  0.00  0.00    +0.051 C 
ATOM     10  C   UNL     1      35.311 -19.277 -22.938  0.00  0.00    +0.094 C 
ATOM     11  C   UNL     1      34.922 -17.664 -21.224  0.00  0.00    +0.091 C 
ATOM     12  C   UNL     1      35.242 -16.966 -22.523  0.00  0.00    +0.223 C 
ATOM     13  H   UNL     1      35.699 -17.767 -24.410  0.00  0.00    +0.149 HD
ENDBRANCH   1   9
BRANCH   5  14
ATOM     14  O   UNL     1      33.224 -23.117 -18.156  0.00  0.00    -0.468 OA
ATOM     15  C   UNL     1      32.184 -22.716 -17.268  0.00  0.00    +0.253 C 
ENDBRANCH   5  14
BRANCH   2  16
ATOM     16  O   UNL     1      35.928 -22.505 -17.951  0.00  0.00    -0.476 OA
BRANCH  16  17
ATOM     17  C   UNL     1      36.098 -21.907 -16.673  0.00  0.00    +0.166 C 
ATOM     18  C   UNL     1      37.578 -21.879 -16.321  0.00  0.00    +0.044 C 
ATOM     19  C   UNL     1      35.505 -22.795 -15.590  0.00  0.00    +0.044 C 
ATOM     20  C   UNL     1      37.884 -23.294 -15.834  0.00  0.00    +0.004 C 
ATOM     21  C   UNL     1      36.548 -23.893 -15.393  0.00  0.00    +0.004 C 
ENDBRANCH  16  17
ENDBRANCH   2  16
TORSDOF 4
ENDMDL
MODEL 3
REMARK VINA RESULT:      -8.6      3.273      6.150
REMARK  Name = 5092
REMARK  4 active torsions:
REMARK  status: ('A' for Active; 'I' for Inactive)
REMARK    1  A    between atoms: C_1  and  C_9
REMARK    2  A    between atoms: C_2  and  O_16
REMARK    3  A    between atoms: C_5  and  O_14
REMARK    4  A    between atoms: O_16  and  C_17
REMARK                            x       y       z     vdW  Elec       q    Type
REMARK                         _______ _______ _______ _____ _____    ______ ____
ROOT
ATOM      1  C   UNL     1      35.230 -23.733 -14.535  0.00  0.00    -0.017 C 
ATOM      2  C   UNL     1      33.150 -23.630 -15.746  0.00  0.00    +0.172 C 
ATOM      3  C   UNL     1      33.855 -23.959 -14.592  0.00  0.00    +0.036 C 
ATOM      4  C   UNL     1      35.892 -23.178 -15.630  0.00  0.00    -0.001 C 
ATOM      5  C   UNL     1      33.804 -23.077 -16.841  0.00  0.00    +0.172 C 
ATOM      6  C   UNL     1      35.180 -22.850 -16.782  0.00  0.00    +0.040 C 
ENDROOT
BRANCH   1   9
ATOM      7  O   UNL     1      36.061 -24.242  -9.722  0.00  0.00    -0.275 OA
ATOM      8  N   UNL     1      37.314 -23.365 -11.493  0.00  0.00    -0.304 N 
ATOM      9  C   UNL     1      36.004 -24.089 -13.284  0.00  0.00    +0.051 C 
ATOM     10  C   UNL     1      37.125 -23.124 -12.896  0.00  0.00    +0.094 C 
ATOM     11  C   UNL     1      35.178 -24.161 -11.984  0.00  0.00    +0.091 C 
ATOM     12  C   UNL     1      36.210 -23.963 -10.900  0.00  0.00    +0.223 C 
ATOM     13  H   UNL     1      38.136 -23.133 -11.004  0.00  0.00    +0.149 HD
ENDBRANCH   1   9
BRANCH   5  14
ATOM     14  O   UNL     1      33.118 -22.751 -17.972  0.00  0.00    -0.468 OA
ATOM     15  C   UNL     1      33.872 -22.202 -19.051  0.00  0.00    +0.253 C 
ENDBRANCH   5  14
BRANCH   2  16
ATOM     16  O   UNL     1      31.799 -23.857 -15.789  0.00  0.00    -0.476 OA
BRANCH  16  17
ATOM     17  C   UNL     1      31.057 -23.526 -14.623  0.00  0.00    +0.166 C 
ATOM     18  C   UNL     1      30.448 -24.791 -14.036  0.00  0.00    +0.044 C 
ATOM     19  C   UNL     1      29.837 -22.696 -14.988  0.00  0.00    +0.044 C 
ATOM     20  C   UNL     1      29.212 -25.055 -14.895  0.00  0.00    +0.004 C 
ATOM     21  C   UNL     1      28.839 -23.716 -15.530  0.00  0.00    +0.004 C 
ENDBRANCH  16  17
ENDBRANCH   2  16
TORSDOF 4
ENDMDL
MODEL 4
REMARK VINA RESULT:      -8.6      9.627     12.630
REMARK  Name = 5092
REMARK  4 active torsions:
REMARK  status: ('A' for Active; 'I' for Inactive)
REMARK    1  A    between atoms: C_1  and  C_9
REMARK    2  A    between atoms: C_2  and  O_16
REMARK    3  A    between atoms: C_5  and  O_14
REMARK    4  A    between atoms: O_16  and  C_17
REMARK                            x       y       z     vdW  Elec       q    Type
REMARK                         _______ _______ _______ _____ _____    ______ ____
ROOT
ATOM      1  C   UNL     1      33.191 -13.408 -22.597  0.00  0.00    -0.017 C 
ATOM      2  C   UNL     1      31.881 -11.411 -22.282  0.00  0.00    +0.172 C 
ATOM      3  C   UNL     1      32.712 -12.190 -23.081  0.00  0.00    +0.036 C 
ATOM      4  C   UNL     1      32.834 -13.841 -21.320  0.00  0.00    -0.001 C 
ATOM      5  C   UNL     1      31.521 -11.837 -21.008  0.00  0.00    +0.172 C 
ATOM      6  C   UNL     1      32.000 -13.056 -20.525  0.00  0.00    +0.040 C 
ENDROOT
BRANCH   1   9
ATOM      7  O   UNL     1      34.367 -16.767 -25.981  0.00  0.00    -0.275 OA
ATOM      8  N   UNL     1      35.125 -16.326 -23.811  0.00  0.00    -0.304 N 
ATOM      9  C   UNL     1      34.097 -14.261 -23.459  0.00  0.00    +0.051 C 
ATOM     10  C   UNL     1      34.798 -15.419 -22.747  0.00  0.00    +0.094 C 
ATOM     11  C   UNL     1      33.416 -14.975 -24.642  0.00  0.00    +0.091 C 
ATOM     12  C   UNL     1      34.349 -16.124 -24.944  0.00  0.00    +0.223 C 
ATOM     13  H   UNL     1      35.824 -17.016 -23.745  0.00  0.00    +0.149 HD
ENDBRANCH   1   9
BRANCH   5  14
ATOM     14  O   UNL     1      30.706 -11.078 -20.223  0.00  0.00    -0.468 OA
ATOM     15  C   UNL     1      31.300 -10.449 -19.090  0.00  0.00    +0.253 C 
ENDBRANCH   5  14
BRANCH   2  16
ATOM     16  O   UNL     1      31.417 -10.217 -22.769  0.00  0.00    -0.476 OA
BRANCH  16  17
ATOM     17  C   UNL     1      32.394  -9.267 -23.173  0.00  0.00    +0.166 C 
ATOM     18  C   UNL     1      32.930  -8.541 -21.948  0.00  0.00    +0.044 C 
ATOM     19  C   UNL     1      31.747  -8.151 -23.978  0.00  0.00    +0.044 C 
ATOM     20  C   UNL     1      31.866  -7.492 -21.629  0.00  0.00    +0.004 C 
ATOM     21  C   UNL     1      31.088  -7.264 -22.924  0.00  0.00    +0.004 C 
ENDBRANCH  16  17
ENDBRANCH   2  16
TORSDOF 4
ENDMDL
MODEL 5
REMARK VINA RESULT:      -8.5      3.991      8.919
REMARK  Name = 5092
REMARK  4 active torsions:
REMARK  status: ('A' for Active; 'I' for Inactive)
REMARK    1  A    between atoms: C_1  and  C_9
REMARK    2  A    between atoms: C_2  and  O_16
REMARK    3  A    between atoms: C_5  and  O_14
REMARK    4  A    between atoms: O_16  and  C_17
REMARK                            x       y       z     vdW  Elec       q    Type
REMARK                         _______ _______ _______ _____ _____    ______ ____
ROOT
ATOM      1  C   UNL     1      34.389 -18.912 -21.475  0.00  0.00    -0.017 C 
ATOM      2  C   UNL     1      34.325 -16.695 -22.415  0.00  0.00    +0.172 C 
ATOM      3  C   UNL     1      34.084 -17.557 -21.350  0.00  0.00    +0.036 C 
ATOM      4  C   UNL     1      34.936 -19.398 -22.663  0.00  0.00    -0.001 C 
ATOM      5  C   UNL     1      34.870 -17.173 -23.602  0.00  0.00    +0.172 C 
ATOM      6  C   UNL     1      35.176 -18.529 -23.726  0.00  0.00    +0.040 C 
ENDROOT
BRANCH   1   9
ATOM      7  O   UNL     1      34.937 -22.929 -18.704  0.00  0.00    -0.275 OA
ATOM      8  N   UNL     1      33.075 -21.789 -19.544  0.00  0.00    -0.304 N 
ATOM      9  C   UNL     1      34.128 -19.856 -20.321  0.00  0.00    +0.051 C 
ATOM     10  C   UNL     1      32.830 -20.662 -20.400  0.00  0.00    +0.094 C 
ATOM     11  C   UNL     1      35.180 -20.962 -20.110  0.00  0.00    +0.091 C 
ATOM     12  C   UNL     1      34.428 -22.022 -19.341  0.00  0.00    +0.223 C 
ATOM     13  H   UNL     1      32.361 -22.337 -19.145  0.00  0.00    +0.149 HD
ENDBRANCH   1   9
BRANCH   5  14
ATOM     14  O   UNL     1      35.110 -16.333 -24.647  0.00  0.00    -0.468 OA
ATOM     15  C   UNL     1      34.048 -16.136 -25.577  0.00  0.00    +0.253 C 
ENDBRANCH   5  14
BRANCH   2  16
ATOM     16  O   UNL     1      34.022 -15.366 -22.279  0.00  0.00    -0.476 OA
BRANCH  16  17
ATOM     17  C   UNL     1      32.643 -15.021 -22.279  0.00  0.00    +0.166 C 
ATOM     18  C   UNL     1      32.428 -13.798 -23.159  0.00  0.00    +0.044 C 
ATOM     19  C   UNL     1      32.219 -14.532 -20.903  0.00  0.00    +0.044 C 
ATOM     20  C   UNL     1      32.848 -12.618 -22.284  0.00  0.00    +0.004 C 
ATOM     21  C   UNL     1      32.743 -13.099 -20.837  0.00  0.00    +0.004 C 
ENDBRANCH  16  17
ENDBRANCH   2  16
TORSDOF 4
ENDMDL
MODEL 6
REMARK VINA RESULT:      -8.4      1.605      4.204
REMARK  Name = 5092
REMARK  4 active torsions:
REMARK  status: ('A' for Active; 'I' for Inactive)
REMARK    1  A    between atoms: C_1  and  C_9
REMARK    2  A    between atoms: C_2  and  O_16
REMARK    3  A    between atoms: C_5  and  O_14
REMARK    4  A    between atoms: O_16  and  C_17
REMARK                            x       y       z     vdW  Elec       q    Type
REMARK                         _______ _______ _______ _____ _____    ______ ____
ROOT
ATOM      1  C   UNL     1      33.823 -22.968 -17.400  0.00  0.00    -0.017 C 
ATOM      2  C   UNL     1      34.382 -23.949 -15.272  0.00  0.00    +0.172 C 
ATOM      3  C   UNL     1      34.782 -23.440 -16.504  0.00  0.00    +0.036 C 
ATOM      4  C   UNL     1      32.471 -23.005 -17.060  0.00  0.00    -0.001 C 
ATOM      5  C   UNL     1      33.036 -23.989 -14.926  0.00  0.00    +0.172 C 
ATOM      6  C   UNL     1      32.077 -23.516 -15.823  0.00  0.00    +0.040 C 
ENDROOT
BRANCH   1   9
ATOM      7  O   UNL     1      36.466 -20.288 -20.554  0.00  0.00    -0.275 OA
ATOM      8  N   UNL     1      34.172 -20.654 -20.273  0.00  0.00    -0.304 N 
ATOM      9  C   UNL     1      34.250 -22.414 -18.742  0.00  0.00    +0.051 C 
ATOM     10  C   UNL     1      33.325 -21.361 -19.354  0.00  0.00    +0.094 C 
ATOM     11  C   UNL     1      35.614 -21.698 -18.767  0.00  0.00    +0.091 C 
ATOM     12  C   UNL     1      35.521 -20.805 -19.981  0.00  0.00    +0.223 C 
ATOM     13  H   UNL     1      33.834 -20.122 -21.029  0.00  0.00    +0.149 HD
ENDBRANCH   1   9
BRANCH   5  14
ATOM     14  O   UNL     1      32.640 -24.484 -13.721  0.00  0.00    -0.468 OA
ATOM     15  C   UNL     1      31.326 -25.034 -13.647  0.00  0.00    +0.253 C 
ENDBRANCH   5  14
BRANCH   2  16
ATOM     16  O   UNL     1      35.334 -24.408 -14.399  0.00  0.00    -0.476 OA
BRANCH  16  17
ATOM     17  C   UNL     1      36.616 -24.695 -14.944  0.00  0.00    +0.166 C 
ATOM     18  C   UNL     1      36.796 -26.203 -15.043  0.00  0.00    +0.044 C 
ATOM     19  C   UNL     1      37.709 -24.282 -13.971  0.00  0.00    +0.044 C 
ATOM     20  C   UNL     1      37.167 -26.639 -13.626  0.00  0.00    +0.004 C 
ATOM     21  C   UNL     1      37.723 -25.398 -12.929  0.00  0.00    +0.004 C 
ENDBRANCH  16  17
ENDBRANCH   2  16
TORSDOF 4
ENDMDL
MODEL 7
REMARK VINA RESULT:      -8.3      2.960      5.361
REMARK  Name = 5092
REMARK  4 active torsions:
REMARK  status: ('A' for Active; 'I' for Inactive)
REMARK    1  A    between atoms: C_1  and  C_9
REMARK    2  A    between atoms: C_2  and  O_16
REMARK    3  A    between atoms: C_5  and  O_14
REMARK    4  A    between atoms: O_16  and  C_17
REMARK                            x       y       z     vdW  Elec       q    Type
REMARK                         _______ _______ _______ _____ _____    ______ ____
ROOT
ATOM      1  C   UNL     1      35.098 -23.358 -15.949  0.00  0.00    -0.017 C 
ATOM      2  C   UNL     1      32.902 -23.125 -16.911  0.00  0.00    +0.172 C 
ATOM      3  C   UNL     1      33.720 -23.558 -15.872  0.00  0.00    +0.036 C 
ATOM      4  C   UNL     1      35.651 -22.726 -17.063  0.00  0.00    -0.001 C 
ATOM      5  C   UNL     1      33.447 -22.494 -18.025  0.00  0.00    +0.172 C 
ATOM      6  C   UNL     1      34.826 -22.294 -18.100  0.00  0.00    +0.040 C 
ENDROOT
BRANCH   1   9
ATOM      7  O   UNL     1      39.306 -24.538 -13.710  0.00  0.00    -0.275 OA
ATOM      8  N   UNL     1      37.211 -25.569 -13.857  0.00  0.00    -0.304 N 
ATOM      9  C   UNL     1      35.994 -23.828 -14.823  0.00  0.00    +0.051 C 
ATOM     10  C   UNL     1      35.966 -25.329 -14.531  0.00  0.00    +0.094 C 
ATOM     11  C   UNL     1      37.501 -23.566 -15.014  0.00  0.00    +0.091 C 
ATOM     12  C   UNL     1      38.152 -24.579 -14.104  0.00  0.00    +0.223 C 
ATOM     13  H   UNL     1      37.379 -26.351 -13.282  0.00  0.00    +0.149 HD
ENDBRANCH   1   9
BRANCH   5  14
ATOM     14  O   UNL     1      32.650 -22.066 -19.044  0.00  0.00    -0.468 OA
ATOM     15  C   UNL     1      33.139 -20.989 -19.839  0.00  0.00    +0.253 C 
ENDBRANCH   5  14
BRANCH   2  16
ATOM     16  O   UNL     1      31.549 -23.325 -16.823  0.00  0.00    -0.476 OA
BRANCH  16  17
ATOM     17  C   UNL     1      31.048 -23.769 -15.569  0.00  0.00    +0.166 C 
ATOM     18  C   UNL     1      30.005 -24.853 -15.797  0.00  0.00    +0.044 C 
ATOM     19  C   UNL     1      30.252 -22.662 -14.895  0.00  0.00    +0.044 C 
ATOM     20  C   UNL     1      28.735 -24.090 -16.171  0.00  0.00    +0.004 C 
ATOM     21  C   UNL     1      28.908 -22.675 -15.618  0.00  0.00    +0.004 C 
ENDBRANCH  16  17
ENDBRANCH   2  16
TORSDOF 4
ENDMDL
MODEL 8
REMARK VINA RESULT:      -8.3      8.494     12.106
REMARK  Name = 5092
REMARK  4 active torsions:
REMARK  status: ('A' for Active; 'I' for Inactive)
REMARK    1  A    between atoms: C_1  and  C_9
REMARK    2  A    between atoms: C_2  and  O_16
REMARK    3  A    between atoms: C_5  and  O_14
REMARK    4  A    between atoms: O_16  and  C_17
REMARK                            x       y       z     vdW  Elec       q    Type
REMARK                         _______ _______ _______ _____ _____    ______ ____
ROOT
ATOM      1  C   UNL     1      32.314 -10.750 -22.342  0.00  0.00    -0.017 C 
ATOM      2  C   UNL     1      32.525 -13.132 -22.639  0.00  0.00    +0.172 C 
ATOM      3  C   UNL     1      32.046 -12.049 -21.908  0.00  0.00    +0.036 C 
ATOM      4  C   UNL     1      33.056 -10.541 -23.504  0.00  0.00    -0.001 C 
ATOM      5  C   UNL     1      33.266 -12.930 -23.799  0.00  0.00    +0.172 C 
ATOM      6  C   UNL     1      33.532 -11.631 -24.232  0.00  0.00    +0.040 C 
ENDROOT
BRANCH   1   9
ATOM      7  O   UNL     1      32.213  -6.147 -20.637  0.00  0.00    -0.275 OA
ATOM      8  N   UNL     1      31.959  -8.245 -19.635  0.00  0.00    -0.304 N 
ATOM      9  C   UNL     1      31.797  -9.568 -21.551  0.00  0.00    +0.051 C 
ATOM     10  C   UNL     1      32.035  -9.620 -20.041  0.00  0.00    +0.094 C 
ATOM     11  C   UNL     1      32.401  -8.200 -21.923  0.00  0.00    +0.091 C 
ATOM     12  C   UNL     1      32.171  -7.365 -20.687  0.00  0.00    +0.223 C 
ATOM     13  H   UNL     1      31.776  -7.958 -18.711  0.00  0.00    +0.149 HD
ENDBRANCH   1   9
BRANCH   5  14
ATOM     14  O   UNL     1      33.735 -13.987 -24.519  0.00  0.00    -0.468 OA
ATOM     15  C   UNL     1      33.007 -14.346 -25.691  0.00  0.00    +0.253 C 
ENDBRANCH   5  14
BRANCH   2  16
ATOM     16  O   UNL     1      32.255 -14.403 -22.203  0.00  0.00    -0.476 OA
BRANCH  16  17
ATOM     17  C   UNL     1      32.673 -14.729 -20.884  0.00  0.00    +0.166 C 
ATOM     18  C   UNL     1      34.190 -14.651 -20.801  0.00  0.00    +0.044 C 
ATOM     19  C   UNL     1      32.388 -16.192 -20.585  0.00  0.00    +0.044 C 
ATOM     20  C   UNL     1      34.676 -15.966 -21.410  0.00  0.00    +0.004 C 
ATOM     21  C   UNL     1      33.508 -16.945 -21.299  0.00  0.00    +0.004 C 
ENDBRANCH  16  17
ENDBRANCH   2  16
TORSDOF 4
ENDMDL
MODEL 9
REMARK VINA RESULT:      -8.3     10.319     13.274
REMARK  Name = 5092
REMARK  4 active torsions:
REMARK  status: ('A' for Active; 'I' for Inactive)
REMARK    1  A    between atoms: C_1  and  C_9
REMARK    2  A    between atoms: C_2  and  O_16
REMARK    3  A    between atoms: C_5  and  O_14
REMARK    4  A    between atoms: O_16  and  C_17
REMARK                            x       y       z     vdW  Elec       q    Type
REMARK                         _______ _______ _______ _____ _____    ______ ____
ROOT
ATOM      1  C   UNL     1      32.867 -12.777 -22.841  0.00  0.00    -0.017 C 
ATOM      2  C   UNL     1      32.058 -10.618 -22.142  0.00  0.00    +0.172 C 
ATOM      3  C   UNL     1      32.713 -11.412 -23.080  0.00  0.00    +0.036 C 
ATOM      4  C   UNL     1      32.366 -13.343 -21.668  0.00  0.00    -0.001 C 
ATOM      5  C   UNL     1      31.555 -11.176 -20.971  0.00  0.00    +0.172 C 
ATOM      6  C   UNL     1      31.710 -12.542 -20.734  0.00  0.00    +0.040 C 
ENDROOT
BRANCH   1   9
ATOM      7  O   UNL     1      33.328 -15.727 -26.739  0.00  0.00    -0.275 OA
ATOM      8  N   UNL     1      34.168 -15.793 -24.556  0.00  0.00    -0.304 N 
ATOM      9  C   UNL     1      33.579 -13.646 -23.855  0.00  0.00    +0.051 C 
ATOM     10  C   UNL     1      34.034 -15.018 -23.355  0.00  0.00    +0.094 C 
ATOM     11  C   UNL     1      32.764 -14.016 -25.109  0.00  0.00    +0.091 C 
ATOM     12  C   UNL     1      33.444 -15.264 -25.616  0.00  0.00    +0.223 C 
ATOM     13  H   UNL     1      34.714 -16.610 -24.622  0.00  0.00    +0.149 HD
ENDBRANCH   1   9
BRANCH   5  14
ATOM     14  O   UNL     1      30.912 -10.403 -20.051  0.00  0.00    -0.468 OA
ATOM     15  C   UNL     1      31.504 -10.309 -18.758  0.00  0.00    +0.253 C 
ENDBRANCH   5  14
BRANCH   2  16
ATOM     16  O   UNL     1      31.912  -9.278 -22.388  0.00  0.00    -0.476 OA
BRANCH  16  17
ATOM     17  C   UNL     1      32.902  -8.416 -21.844  0.00  0.00    +0.166 C 
ATOM     18  C   UNL     1      32.227  -7.212 -21.203  0.00  0.00    +0.044 C 
ATOM     19  C   UNL     1      33.730  -7.792 -22.957  0.00  0.00    +0.044 C 
ATOM     20  C   UNL     1      31.893  -6.290 -22.375  0.00  0.00    +0.004 C 
ATOM     21  C   UNL     1      32.838  -6.683 -23.511  0.00  0.00    +0.004 C 
ENDBRANCH  16  17
ENDBRANCH   2  16
TORSDOF 4
ENDMDL
