MODEL 1
REMARK VINA RESULT:      -9.3      0.000      0.000
REMARK  Name = 5288604
REMARK  6 active torsions:
REMARK  status: ('A' for Active; 'I' for Inactive)
REMARK    1  A    between atoms: C_3  and  C_22
REMARK    2  A    between atoms: C_4  and  O_16
REMARK    3  A    between atoms: C_5  and  O_18
REMARK    4  A    between atoms: C_6  and  O_20
REMARK    5  A    between atoms: C_9  and  C_10
REMARK    6  A    between atoms: C_22  and  O_23
REMARK                            x       y       z     vdW  Elec       q    Type
REMARK                         _______ _______ _______ _____ _____    ______ ____
ROOT
ATOM      1  N   UNL     1      37.247 -23.712 -14.284  0.00  0.00    -0.275 N 
ATOM      2  N   UNL     1      35.196 -23.555 -15.108  0.00  0.00    -0.392 NA
ATOM      3  C   UNL     1      38.330 -24.063 -13.370  0.00  0.00    +0.134 C 
ATOM      4  C   UNL     1      37.800 -24.385 -11.954  0.00  0.00    +0.161 C 
ATOM      5  C   UNL     1      36.488 -25.189 -11.954  0.00  0.00    +0.174 C 
ATOM      6  C   UNL     1      35.390 -24.542 -12.810  0.00  0.00    +0.207 C 
ATOM      7  C   UNL     1      35.912 -23.955 -14.075  0.00  0.00    +0.190 C 
ATOM      8  C   UNL     1      37.380 -23.093 -15.494  0.00  0.00    +0.152 C 
ATOM      9  C   UNL     1      36.101 -23.018 -15.988  0.00  0.00    +0.130 C 
ENDROOT
BRANCH   9  10
ATOM     10  C   UNL     1      35.746 -22.454 -17.254  0.00  0.00    +0.027 C 
ATOM     11  C   UNL     1      36.678 -21.704 -17.976  0.00  0.00    +0.002 C 
ATOM     12  C   UNL     1      34.464 -22.648 -17.777  0.00  0.00    +0.002 C 
ATOM     13  C   UNL     1      36.332 -21.154 -19.211  0.00  0.00    +0.000 C 
ATOM     14  C   UNL     1      34.118 -22.098 -19.010  0.00  0.00    +0.000 C 
ATOM     15  C   UNL     1      35.052 -21.351 -19.727  0.00  0.00    +0.000 C 
ENDBRANCH   9  10
BRANCH   4  16
ATOM     16  O   UNL     1      37.609 -23.162 -11.236  0.00  0.00    -0.380 OA
ATOM     17  H   UNL     1      36.663 -22.954 -11.200  0.00  0.00    +0.211 HD
ENDBRANCH   4  16
BRANCH   5  18
ATOM     18  O   UNL     1      36.747 -26.508 -12.425  0.00  0.00    -0.379 OA
ATOM     19  H   UNL     1      36.891 -27.098 -11.669  0.00  0.00    +0.211 HD
ENDBRANCH   5  18
BRANCH   6  20
ATOM     20  O   UNL     1      34.804 -23.469 -12.076  0.00  0.00    -0.374 OA
ATOM     21  H   UNL     1      35.382 -23.231 -11.334  0.00  0.00    +0.211 HD
ENDBRANCH   6  20
BRANCH   3  22
ATOM     22  C   UNL     1      39.160 -25.214 -13.948  0.00  0.00    +0.159 C 
BRANCH  22  23
ATOM     23  O   UNL     1      40.502 -24.782 -14.060  0.00  0.00    -0.380 OA
ATOM     24  H   UNL     1      40.879 -24.670 -13.174  0.00  0.00    +0.211 HD
ENDBRANCH  22  23
ENDBRANCH   3  22
TORSDOF 6
ENDMDL
MODEL 2
REMARK VINA RESULT:      -9.2      2.805      3.998
REMARK  Name = 5288604
REMARK  6 active torsions:
REMARK  status: ('A' for Active; 'I' for Inactive)
REMARK    1  A    between atoms: C_3  and  C_22
REMARK    2  A    between atoms: C_4  and  O_16
REMARK    3  A    between atoms: C_5  and  O_18
REMARK    4  A    between atoms: C_6  and  O_20
REMARK    5  A    between atoms: C_9  and  C_10
REMARK    6  A    between atoms: C_22  and  O_23
REMARK                            x       y       z     vdW  Elec       q    Type
REMARK                         _______ _______ _______ _____ _____    ______ ____
ROOT
ATOM      1  N   UNL     1      35.587 -24.403 -13.241  0.00  0.00    -0.275 N 
ATOM      2  N   UNL     1      34.688 -24.818 -15.223  0.00  0.00    -0.392 NA
ATOM      3  C   UNL     1      36.573 -24.378 -12.166  0.00  0.00    +0.134 C 
ATOM      4  C   UNL     1      37.671 -25.446 -12.373  0.00  0.00    +0.161 C 
ATOM      5  C   UNL     1      38.117 -25.595 -13.839  0.00  0.00    +0.174 C 
ATOM      6  C   UNL     1      36.944 -25.829 -14.800  0.00  0.00    +0.207 C 
ATOM      7  C   UNL     1      35.744 -25.015 -14.460  0.00  0.00    +0.190 C 
ATOM      8  C   UNL     1      34.352 -23.819 -13.218  0.00  0.00    +0.152 C 
ATOM      9  C   UNL     1      33.821 -24.079 -14.458  0.00  0.00    +0.130 C 
ENDROOT
BRANCH   9  10
ATOM     10  C   UNL     1      32.534 -23.644 -14.903  0.00  0.00    +0.027 C 
ATOM     11  C   UNL     1      31.466 -23.571 -14.003  0.00  0.00    +0.002 C 
ATOM     12  C   UNL     1      32.333 -23.291 -16.241  0.00  0.00    +0.002 C 
ATOM     13  C   UNL     1      30.210 -23.146 -14.437  0.00  0.00    +0.000 C 
ATOM     14  C   UNL     1      31.078 -22.867 -16.675  0.00  0.00    +0.000 C 
ATOM     15  C   UNL     1      30.016 -22.795 -15.773  0.00  0.00    +0.000 C 
ENDBRANCH   9  10
BRANCH   4  16
ATOM     16  O   UNL     1      37.195 -26.706 -11.890  0.00  0.00    -0.380 OA
ATOM     17  H   UNL     1      37.801 -27.041 -11.212  0.00  0.00    +0.211 HD
ENDBRANCH   4  16
BRANCH   5  18
ATOM     18  O   UNL     1      38.833 -24.429 -14.232  0.00  0.00    -0.379 OA
ATOM     19  H   UNL     1      38.620 -24.213 -15.153  0.00  0.00    +0.211 HD
ENDBRANCH   5  18
BRANCH   6  20
ATOM     20  O   UNL     1      36.544 -27.196 -14.720  0.00  0.00    -0.374 OA
ATOM     21  H   UNL     1      35.626 -27.245 -14.411  0.00  0.00    +0.211 HD
ENDBRANCH   6  20
BRANCH   3  22
ATOM     22  C   UNL     1      37.162 -22.971 -12.018  0.00  0.00    +0.159 C 
BRANCH  22  23
ATOM     23  O   UNL     1      38.504 -23.094 -11.590  0.00  0.00    -0.380 OA
ATOM     24  H   UNL     1      38.549 -23.702 -10.837  0.00  0.00    +0.211 HD
ENDBRANCH  22  23
ENDBRANCH   3  22
TORSDOF 6
ENDMDL
MODEL 3
REMARK VINA RESULT:      -9.1      0.628      1.249
REMARK  Name = 5288604
REMARK  6 active torsions:
REMARK  status: ('A' for Active; 'I' for Inactive)
REMARK    1  A    between atoms: C_3  and  C_22
REMARK    2  A    between atoms: C_4  and  O_16
REMARK    3  A    between atoms: C_5  and  O_18
REMARK    4  A    between atoms: C_6  and  O_20
REMARK    5  A    between atoms: C_9  and  C_10
REMARK    6  A    between atoms: C_22  and  O_23
REMARK                            x       y       z     vdW  Elec       q    Type
REMARK                         _______ _______ _______ _____ _____    ______ ____
ROOT
ATOM      1  N   UNL     1      37.241 -23.761 -14.435  0.00  0.00    -0.275 N 
ATOM      2  N   UNL     1      35.162 -23.565 -15.177  0.00  0.00    -0.392 NA
ATOM      3  C   UNL     1      38.353 -24.139 -13.569  0.00  0.00    +0.134 C 
ATOM      4  C   UNL     1      37.873 -24.471 -12.137  0.00  0.00    +0.161 C 
ATOM      5  C   UNL     1      36.551 -25.256 -12.095  0.00  0.00    +0.174 C 
ATOM      6  C   UNL     1      35.430 -24.583 -12.900  0.00  0.00    +0.207 C 
ATOM      7  C   UNL     1      35.911 -23.988 -14.178  0.00  0.00    +0.190 C 
ATOM      8  C   UNL     1      37.336 -23.130 -15.642  0.00  0.00    +0.152 C 
ATOM      9  C   UNL     1      36.039 -23.031 -16.086  0.00  0.00    +0.130 C 
ENDROOT
BRANCH   9  10
ATOM     10  C   UNL     1      35.644 -22.447 -17.331  0.00  0.00    +0.027 C 
ATOM     11  C   UNL     1      34.338 -22.610 -17.800  0.00  0.00    +0.002 C 
ATOM     12  C   UNL     1      36.561 -21.710 -18.085  0.00  0.00    +0.002 C 
ATOM     13  C   UNL     1      33.951 -22.041 -19.014  0.00  0.00    +0.000 C 
ATOM     14  C   UNL     1      36.175 -21.140 -19.298  0.00  0.00    +0.000 C 
ATOM     15  C   UNL     1      34.871 -21.306 -19.763  0.00  0.00    +0.000 C 
ENDBRANCH   9  10
BRANCH   4  16
ATOM     16  O   UNL     1      37.728 -23.254 -11.398  0.00  0.00    -0.380 OA
ATOM     17  H   UNL     1      37.770 -23.446 -10.449  0.00  0.00    +0.211 HD
ENDBRANCH   4  16
BRANCH   5  18
ATOM     18  O   UNL     1      36.771 -26.573 -12.591  0.00  0.00    -0.379 OA
ATOM     19  H   UNL     1      36.288 -27.210 -12.042  0.00  0.00    +0.211 HD
ENDBRANCH   5  18
BRANCH   6  20
ATOM     20  O   UNL     1      34.888 -23.511 -12.132  0.00  0.00    -0.374 OA
ATOM     21  H   UNL     1      35.527 -23.245 -11.452  0.00  0.00    +0.211 HD
ENDBRANCH   6  20
BRANCH   3  22
ATOM     22  C   UNL     1      39.143 -25.295 -14.192  0.00  0.00    +0.159 C 
BRANCH  22  23
ATOM     23  O   UNL     1      38.296 -25.974 -15.098  0.00  0.00    -0.380 OA
ATOM     24  H   UNL     1      38.535 -26.914 -15.120  0.00  0.00    +0.211 HD
ENDBRANCH  22  23
ENDBRANCH   3  22
TORSDOF 6
ENDMDL
MODEL 4
REMARK VINA RESULT:      -9.1      3.162      4.152
REMARK  Name = 5288604
REMARK  6 active torsions:
REMARK  status: ('A' for Active; 'I' for Inactive)
REMARK    1  A    between atoms: C_3  and  C_22
REMARK    2  A    between atoms: C_4  and  O_16
REMARK    3  A    between atoms: C_5  and  O_18
REMARK    4  A    between atoms: C_6  and  O_20
REMARK    5  A    between atoms: C_9  and  C_10
REMARK    6  A    between atoms: C_22  and  O_23
REMARK                            x       y       z     vdW  Elec       q    Type
REMARK                         _______ _______ _______ _____ _____    ______ ____
ROOT
ATOM      1  N   UNL     1      35.318 -24.770 -14.334  0.00  0.00    -0.275 N 
ATOM      2  N   UNL     1      33.642 -24.147 -13.026  0.00  0.00    -0.392 NA
ATOM      3  C   UNL     1      36.665 -25.161 -14.736  0.00  0.00    +0.134 C 
ATOM      4  C   UNL     1      37.719 -24.741 -13.686  0.00  0.00    +0.161 C 
ATOM      5  C   UNL     1      37.252 -24.934 -12.232  0.00  0.00    +0.174 C 
ATOM      6  C   UNL     1      35.902 -24.263 -11.944  0.00  0.00    +0.207 C 
ATOM      7  C   UNL     1      34.935 -24.399 -13.068  0.00  0.00    +0.190 C 
ATOM      8  C   UNL     1      34.218 -24.712 -15.142  0.00  0.00    +0.152 C 
ATOM      9  C   UNL     1      33.193 -24.337 -14.308  0.00  0.00    +0.130 C 
ENDROOT
BRANCH   9  10
ATOM     10  C   UNL     1      31.833 -24.162 -14.713  0.00  0.00    +0.027 C 
ATOM     11  C   UNL     1      30.837 -25.011 -14.221  0.00  0.00    +0.002 C 
ATOM     12  C   UNL     1      31.490 -23.141 -15.605  0.00  0.00    +0.002 C 
ATOM     13  C   UNL     1      29.510 -24.840 -14.616  0.00  0.00    +0.000 C 
ATOM     14  C   UNL     1      30.163 -22.970 -15.999  0.00  0.00    +0.000 C 
ATOM     15  C   UNL     1      29.174 -23.820 -15.506  0.00  0.00    +0.000 C 
ENDBRANCH   9  10
BRANCH   4  16
ATOM     16  O   UNL     1      38.069 -23.370 -13.896  0.00  0.00    -0.380 OA
ATOM     17  H   UNL     1      38.324 -23.240 -14.822  0.00  0.00    +0.211 HD
ENDBRANCH   4  16
BRANCH   5  18
ATOM     18  O   UNL     1      37.164 -26.327 -11.949  0.00  0.00    -0.379 OA
ATOM     19  H   UNL     1      36.297 -26.659 -12.228  0.00  0.00    +0.211 HD
ENDBRANCH   5  18
BRANCH   6  20
ATOM     20  O   UNL     1      36.111 -22.865 -11.756  0.00  0.00    -0.374 OA
ATOM     21  H   UNL     1      36.777 -22.728 -11.064  0.00  0.00    +0.211 HD
ENDBRANCH   6  20
BRANCH   3  22
ATOM     22  C   UNL     1      36.715 -26.664 -15.032  0.00  0.00    +0.159 C 
BRANCH  22  23
ATOM     23  O   UNL     1      38.019 -27.130 -14.746  0.00  0.00    -0.380 OA
ATOM     24  H   UNL     1      38.636 -26.796 -15.416  0.00  0.00    +0.211 HD
ENDBRANCH  22  23
ENDBRANCH   3  22
TORSDOF 6
ENDMDL
MODEL 5
REMARK VINA RESULT:      -8.9      1.243      2.808
REMARK  Name = 5288604
REMARK  6 active torsions:
REMARK  status: ('A' for Active; 'I' for Inactive)
REMARK    1  A    between atoms: C_3  and  C_22
REMARK    2  A    between atoms: C_4  and  O_16
REMARK    3  A    between atoms: C_5  and  O_18
REMARK    4  A    between atoms: C_6  and  O_20
REMARK    5  A    between atoms: C_9  and  C_10
REMARK    6  A    between atoms: C_22  and  O_23
REMARK                            x       y       z     vdW  Elec       q    Type
REMARK                         _______ _______ _______ _____ _____    ______ ____
ROOT
ATOM      1  N   UNL     1      36.136 -24.313 -14.163  0.00  0.00    -0.275 N 
ATOM      2  N   UNL     1      37.105 -23.698 -16.058  0.00  0.00    -0.392 NA
ATOM      3  C   UNL     1      35.995 -24.832 -12.806  0.00  0.00    +0.134 C 
ATOM      4  C   UNL     1      37.213 -25.689 -12.393  0.00  0.00    +0.161 C 
ATOM      5  C   UNL     1      38.559 -25.119 -12.873  0.00  0.00    +0.174 C 
ATOM      6  C   UNL     1      38.584 -24.834 -14.381  0.00  0.00    +0.207 C 
ATOM      7  C   UNL     1      37.304 -24.262 -14.884  0.00  0.00    +0.190 C 
ATOM      8  C   UNL     1      35.140 -23.789 -14.935  0.00  0.00    +0.152 C 
ATOM      9  C   UNL     1      35.765 -23.404 -16.096  0.00  0.00    +0.130 C 
ENDROOT
BRANCH   9  10
ATOM     10  C   UNL     1      35.115 -22.782 -17.207  0.00  0.00    +0.027 C 
ATOM     11  C   UNL     1      35.846 -21.988 -18.096  0.00  0.00    +0.002 C 
ATOM     12  C   UNL     1      33.743 -22.961 -17.412  0.00  0.00    +0.002 C 
ATOM     13  C   UNL     1      35.212 -21.381 -19.180  0.00  0.00    +0.000 C 
ATOM     14  C   UNL     1      33.109 -22.354 -18.495  0.00  0.00    +0.000 C 
ATOM     15  C   UNL     1      33.843 -21.564 -19.379  0.00  0.00    +0.000 C 
ENDBRANCH   9  10
BRANCH   4  16
ATOM     16  O   UNL     1      37.048 -27.015 -12.904  0.00  0.00    -0.380 OA
ATOM     17  H   UNL     1      37.460 -27.649 -12.297  0.00  0.00    +0.211 HD
ENDBRANCH   4  16
BRANCH   5  18
ATOM     18  O   UNL     1      38.846 -23.923 -12.155  0.00  0.00    -0.379 OA
ATOM     19  H   UNL     1      38.697 -24.072 -11.208  0.00  0.00    +0.211 HD
ENDBRANCH   5  18
BRANCH   6  20
ATOM     20  O   UNL     1      38.784 -26.060 -15.081  0.00  0.00    -0.374 OA
ATOM     21  H   UNL     1      38.007 -26.629 -14.965  0.00  0.00    +0.211 HD
ENDBRANCH   6  20
BRANCH   3  22
ATOM     22  C   UNL     1      35.739 -23.686 -11.823  0.00  0.00    +0.159 C 
BRANCH  22  23
ATOM     23  O   UNL     1      36.272 -24.052 -10.565  0.00  0.00    -0.380 OA
ATOM     24  H   UNL     1      36.303 -23.273  -9.989  0.00  0.00    +0.211 HD
ENDBRANCH  22  23
ENDBRANCH   3  22
TORSDOF 6
ENDMDL
MODEL 6
REMARK VINA RESULT:      -8.8      2.858      3.888
REMARK  Name = 5288604
REMARK  6 active torsions:
REMARK  status: ('A' for Active; 'I' for Inactive)
REMARK    1  A    between atoms: C_3  and  C_22
REMARK    2  A    between atoms: C_4  and  O_16
REMARK    3  A    between atoms: C_5  and  O_18
REMARK    4  A    between atoms: C_6  and  O_20
REMARK    5  A    between atoms: C_9  and  C_10
REMARK    6  A    between atoms: C_22  and  O_23
REMARK                            x       y       z     vdW  Elec       q    Type
REMARK                         _______ _______ _______ _____ _____    ______ ____
ROOT
ATOM      1  N   UNL     1      35.523 -23.700 -13.557  0.00  0.00    -0.275 N 
ATOM      2  N   UNL     1      33.699 -24.642 -12.723  0.00  0.00    -0.392 NA
ATOM      3  C   UNL     1      36.923 -23.308 -13.683  0.00  0.00    +0.134 C 
ATOM      4  C   UNL     1      37.673 -23.430 -12.337  0.00  0.00    +0.161 C 
ATOM      5  C   UNL     1      37.283 -24.677 -11.524  0.00  0.00    +0.174 C 
ATOM      6  C   UNL     1      35.768 -24.803 -11.313  0.00  0.00    +0.207 C 
ATOM      7  C   UNL     1      34.981 -24.414 -12.516  0.00  0.00    +0.190 C 
ATOM      8  C   UNL     1      34.525 -23.431 -14.449  0.00  0.00    +0.152 C 
ATOM      9  C   UNL     1      33.411 -24.034 -13.918  0.00  0.00    +0.130 C 
ENDROOT
BRANCH   9  10
ATOM     10  C   UNL     1      32.114 -24.032 -14.521  0.00  0.00    +0.027 C 
ATOM     11  C   UNL     1      31.148 -24.957 -14.116  0.00  0.00    +0.002 C 
ATOM     12  C   UNL     1      31.804 -23.105 -15.521  0.00  0.00    +0.002 C 
ATOM     13  C   UNL     1      29.883 -24.955 -14.704  0.00  0.00    +0.000 C 
ATOM     14  C   UNL     1      30.540 -23.103 -16.109  0.00  0.00    +0.000 C 
ATOM     15  C   UNL     1      29.580 -24.028 -15.701  0.00  0.00    +0.000 C 
ENDBRANCH   9  10
BRANCH   4  16
ATOM     16  O   UNL     1      37.428 -22.257 -11.555  0.00  0.00    -0.380 OA
ATOM     17  H   UNL     1      37.862 -22.346 -10.693  0.00  0.00    +0.211 HD
ENDBRANCH   4  16
BRANCH   5  18
ATOM     18  O   UNL     1      37.773 -25.840 -12.184  0.00  0.00    -0.379 OA
ATOM     19  H   UNL     1      37.949 -25.632 -13.115  0.00  0.00    +0.211 HD
ENDBRANCH   5  18
BRANCH   6  20
ATOM     20  O   UNL     1      35.371 -23.921 -10.265  0.00  0.00    -0.374 OA
ATOM     21  H   UNL     1      35.451 -23.003 -10.568  0.00  0.00    +0.211 HD
ENDBRANCH   6  20
BRANCH   3  22
ATOM     22  C   UNL     1      37.602 -24.114 -14.794  0.00  0.00    +0.159 C 
BRANCH  22  23
ATOM     23  O   UNL     1      38.975 -24.235 -14.480  0.00  0.00    -0.380 OA
ATOM     24  H   UNL     1      39.426 -24.727 -15.183  0.00  0.00    +0.211 HD
ENDBRANCH  22  23
ENDBRANCH   3  22
TORSDOF 6
ENDMDL
MODEL 7
REMARK VINA RESULT:      -8.8      1.795      3.758
REMARK  Name = 5288604
REMARK  6 active torsions:
REMARK  status: ('A' for Active; 'I' for Inactive)
REMARK    1  A    between atoms: C_3  and  C_22
REMARK    2  A    between atoms: C_4  and  O_16
REMARK    3  A    between atoms: C_5  and  O_18
REMARK    4  A    between atoms: C_6  and  O_20
REMARK    5  A    between atoms: C_9  and  C_10
REMARK    6  A    between atoms: C_22  and  O_23
REMARK                            x       y       z     vdW  Elec       q    Type
REMARK                         _______ _______ _______ _____ _____    ______ ____
ROOT
ATOM      1  N   UNL     1      35.114 -23.516 -16.192  0.00  0.00    -0.275 N 
ATOM      2  N   UNL     1      36.314 -21.917 -17.147  0.00  0.00    -0.392 NA
ATOM      3  C   UNL     1      34.716 -24.532 -15.223  0.00  0.00    +0.134 C 
ATOM      4  C   UNL     1      35.909 -24.990 -14.353  0.00  0.00    +0.161 C 
ATOM      5  C   UNL     1      36.847 -23.843 -13.939  0.00  0.00    +0.174 C 
ATOM      6  C   UNL     1      37.334 -23.009 -15.132  0.00  0.00    +0.207 C 
ATOM      7  C   UNL     1      36.273 -22.781 -16.152  0.00  0.00    +0.190 C 
ATOM      8  C   UNL     1      34.403 -23.123 -17.289  0.00  0.00    +0.152 C 
ATOM      9  C   UNL     1      35.159 -22.126 -17.856  0.00  0.00    +0.130 C 
ENDROOT
BRANCH   9  10
ATOM     10  C   UNL     1      34.800 -21.397 -19.033  0.00  0.00    +0.027 C 
ATOM     11  C   UNL     1      33.455 -21.244 -19.383  0.00  0.00    +0.002 C 
ATOM     12  C   UNL     1      35.792 -20.834 -19.842  0.00  0.00    +0.002 C 
ATOM     13  C   UNL     1      33.105 -20.533 -20.532  0.00  0.00    +0.000 C 
ATOM     14  C   UNL     1      35.442 -20.123 -20.990  0.00  0.00    +0.000 C 
ATOM     15  C   UNL     1      34.099 -19.973 -21.335  0.00  0.00    +0.000 C 
ENDBRANCH   9  10
BRANCH   4  16
ATOM     16  O   UNL     1      36.655 -25.981 -15.066  0.00  0.00    -0.380 OA
ATOM     17  H   UNL     1      37.221 -26.466 -14.447  0.00  0.00    +0.211 HD
ENDBRANCH   4  16
BRANCH   5  18
ATOM     18  O   UNL     1      36.174 -23.000 -13.009  0.00  0.00    -0.379 OA
ATOM     19  H   UNL     1      35.216 -23.107 -13.110  0.00  0.00    +0.211 HD
ENDBRANCH   5  18
BRANCH   6  20
ATOM     20  O   UNL     1      38.386 -23.712 -15.790  0.00  0.00    -0.374 OA
ATOM     21  H   UNL     1      38.641 -24.482 -15.259  0.00  0.00    +0.211 HD
ENDBRANCH   6  20
BRANCH   3  22
ATOM     22  C   UNL     1      33.546 -24.025 -14.373  0.00  0.00    +0.159 C 
BRANCH  22  23
ATOM     23  O   UNL     1      33.610 -24.655 -13.109  0.00  0.00    -0.380 OA
ATOM     24  H   UNL     1      32.880 -24.341 -12.553  0.00  0.00    +0.211 HD
ENDBRANCH  22  23
ENDBRANCH   3  22
TORSDOF 6
ENDMDL
MODEL 8
REMARK VINA RESULT:      -8.7      3.047      4.647
REMARK  Name = 5288604
REMARK  6 active torsions:
REMARK  status: ('A' for Active; 'I' for Inactive)
REMARK    1  A    between atoms: C_3  and  C_22
REMARK    2  A    between atoms: C_4  and  O_16
REMARK    3  A    between atoms: C_5  and  O_18
REMARK    4  A    between atoms: C_6  and  O_20
REMARK    5  A    between atoms: C_9  and  C_10
REMARK    6  A    between atoms: C_22  and  O_23
REMARK                            x       y       z     vdW  Elec       q    Type
REMARK                         _______ _______ _______ _____ _____    ______ ____
ROOT
ATOM      1  N   UNL     1      35.031 -24.654 -13.118  0.00  0.00    -0.275 N 
ATOM      2  N   UNL     1      34.385 -23.969 -15.124  0.00  0.00    -0.392 NA
ATOM      3  C   UNL     1      35.919 -24.998 -12.012  0.00  0.00    +0.134 C 
ATOM      4  C   UNL     1      37.367 -25.242 -12.496  0.00  0.00    +0.161 C 
ATOM      5  C   UNL     1      37.826 -24.259 -13.587  0.00  0.00    +0.174 C 
ATOM      6  C   UNL     1      36.859 -24.193 -14.778  0.00  0.00    +0.207 C 
ATOM      7  C   UNL     1      35.429 -24.245 -14.367  0.00  0.00    +0.190 C 
ATOM      8  C   UNL     1      33.666 -24.673 -13.094  0.00  0.00    +0.152 C 
ATOM      9  C   UNL     1      33.290 -24.235 -14.340  0.00  0.00    +0.130 C 
ENDROOT
BRANCH   9  10
ATOM     10  C   UNL     1      31.938 -24.075 -14.777  0.00  0.00    +0.027 C 
ATOM     11  C   UNL     1      30.931 -24.897 -14.262  0.00  0.00    +0.002 C 
ATOM     12  C   UNL     1      31.613 -23.096 -15.721  0.00  0.00    +0.002 C 
ATOM     13  C   UNL     1      29.611 -24.741 -14.688  0.00  0.00    +0.000 C 
ATOM     14  C   UNL     1      30.295 -22.941 -16.147  0.00  0.00    +0.000 C 
ATOM     15  C   UNL     1      29.294 -23.763 -15.630  0.00  0.00    +0.000 C 
ENDBRANCH   9  10
BRANCH   4  16
ATOM     16  O   UNL     1      37.478 -26.582 -12.986  0.00  0.00    -0.380 OA
ATOM     17  H   UNL     1      37.739 -26.564 -13.919  0.00  0.00    +0.211 HD
ENDBRANCH   4  16
BRANCH   5  18
ATOM     18  O   UNL     1      37.973 -22.962 -13.018  0.00  0.00    -0.379 OA
ATOM     19  H   UNL     1      37.317 -22.362 -13.407  0.00  0.00    +0.211 HD
ENDBRANCH   5  18
BRANCH   6  20
ATOM     20  O   UNL     1      37.082 -25.324 -15.618  0.00  0.00    -0.374 OA
ATOM     21  H   UNL     1      37.996 -25.630 -15.512  0.00  0.00    +0.211 HD
ENDBRANCH   6  20
BRANCH   3  22
ATOM     22  C   UNL     1      35.851 -23.924 -10.922  0.00  0.00    +0.159 C 
BRANCH  22  23
ATOM     23  O   UNL     1      35.338 -24.516  -9.745  0.00  0.00    -0.380 OA
ATOM     24  H   UNL     1      35.030 -23.822  -9.142  0.00  0.00    +0.211 HD
ENDBRANCH  22  23
ENDBRANCH   3  22
TORSDOF 6
ENDMDL
MODEL 9
REMARK VINA RESULT:      -8.0      2.923      3.884
REMARK  Name = 5288604
REMARK  6 active torsions:
REMARK  status: ('A' for Active; 'I' for Inactive)
REMARK    1  A    between atoms: C_3  and  C_22
REMARK    2  A    between atoms: C_4  and  O_16
REMARK    3  A    between atoms: C_5  and  O_18
REMARK    4  A    between atoms: C_6  and  O_20
REMARK    5  A    between atoms: C_9  and  C_10
REMARK    6  A    between atoms: C_22  and  O_23
REMARK                            x       y       z     vdW  Elec       q    Type
REMARK                         _______ _______ _______ _____ _____    ______ ____
ROOT
ATOM      1  N   UNL     1      35.930 -23.514 -14.667  0.00  0.00    -0.275 N 
ATOM      2  N   UNL     1      34.262 -24.962 -14.487  0.00  0.00    -0.392 NA
ATOM      3  C   UNL     1      37.293 -22.995 -14.680  0.00  0.00    +0.134 C 
ATOM      4  C   UNL     1      38.269 -23.934 -13.934  0.00  0.00    +0.161 C 
ATOM      5  C   UNL     1      38.001 -25.428 -14.187  0.00  0.00    +0.174 C 
ATOM      6  C   UNL     1      36.545 -25.829 -13.913  0.00  0.00    +0.207 C 
ATOM      7  C   UNL     1      35.565 -24.803 -14.365  0.00  0.00    +0.190 C 
ATOM      8  C   UNL     1      34.795 -22.812 -14.958  0.00  0.00    +0.152 C 
ATOM      9  C   UNL     1      33.780 -23.731 -14.852  0.00  0.00    +0.130 C 
ENDROOT
BRANCH   9  10
ATOM     10  C   UNL     1      32.397 -23.452 -15.086  0.00  0.00    +0.027 C 
ATOM     11  C   UNL     1      31.944 -23.174 -16.379  0.00  0.00    +0.002 C 
ATOM     12  C   UNL     1      31.488 -23.454 -14.023  0.00  0.00    +0.002 C 
ATOM     13  C   UNL     1      30.595 -22.902 -16.608  0.00  0.00    +0.000 C 
ATOM     14  C   UNL     1      30.140 -23.182 -14.251  0.00  0.00    +0.000 C 
ATOM     15  C   UNL     1      29.693 -22.905 -15.543  0.00  0.00    +0.000 C 
ENDBRANCH   9  10
BRANCH   4  16
ATOM     16  O   UNL     1      38.194 -23.668 -12.531  0.00  0.00    -0.380 OA
ATOM     17  H   UNL     1      38.604 -24.397 -12.041  0.00  0.00    +0.211 HD
ENDBRANCH   4  16
BRANCH   5  18
ATOM     18  O   UNL     1      38.338 -25.743 -15.534  0.00  0.00    -0.379 OA
ATOM     19  H   UNL     1      39.007 -25.118 -15.855  0.00  0.00    +0.211 HD
ENDBRANCH   5  18
BRANCH   6  20
ATOM     20  O   UNL     1      36.362 -25.972 -12.505  0.00  0.00    -0.374 OA
ATOM     21  H   UNL     1      37.082 -25.520 -12.039  0.00  0.00    +0.211 HD
ENDBRANCH   6  20
BRANCH   3  22
ATOM     22  C   UNL     1      37.745 -22.722 -16.119  0.00  0.00    +0.159 C 
BRANCH  22  23
ATOM     23  O   UNL     1      37.518 -21.356 -16.404  0.00  0.00    -0.380 OA
ATOM     24  H   UNL     1      36.804 -21.023 -15.841  0.00  0.00    +0.211 HD
ENDBRANCH  22  23
ENDBRANCH   3  22
TORSDOF 6
ENDMDL
