MODEL 1
REMARK VINA RESULT:      -8.5      0.000      0.000
REMARK  Name = 11960529
REMARK  2 active torsions:
REMARK  status: ('A' for Active; 'I' for Inactive)
REMARK    1  A    between atoms: C_3  and  C_13
REMARK    2  A    between atoms: C_6  and  C_22
REMARK                            x       y       z     vdW  Elec       q    Type
REMARK                         _______ _______ _______ _____ _____    ______ ____
ROOT
ATOM      1  N   UNL     1      34.399 -24.311 -13.264  0.00  0.00    -0.320 N 
ATOM      2  N   UNL     1      35.320 -23.717 -15.197  0.00  0.00    -0.319 N 
ATOM      3  C   UNL     1      35.546 -24.118 -13.972  0.00  0.00    +0.125 C 
ATOM      4  C   UNL     1      33.349 -24.014 -14.094  0.00  0.00    +0.059 C 
ATOM      5  C   UNL     1      33.950 -23.644 -15.294  0.00  0.00    +0.063 C 
ATOM      6  C   UNL     1      33.139 -23.271 -16.379  0.00  0.00    +0.067 C 
ATOM      7  C   UNL     1      31.966 -24.035 -13.903  0.00  0.00    +0.016 C 
ATOM      8  C   UNL     1      31.749 -23.285 -16.211  0.00  0.00    +0.006 C 
ATOM      9  C   UNL     1      31.175 -23.661 -14.994  0.00  0.00    +0.001 C 
ATOM     10  H   UNL     1      34.337 -24.610 -12.328  0.00  0.00    +0.148 HD
ATOM     11  H   UNL     1      35.984 -23.510 -15.894  0.00  0.00    +0.148 HD
ENDROOT
BRANCH   3  13
ATOM     12  N   UNL     1      38.018 -24.468 -14.332  0.00  0.00    +0.388 N 
ATOM     13  C   UNL     1      36.926 -24.366 -13.331  0.00  0.00    -0.011 C 
ATOM     14  C   UNL     1      37.045 -25.734 -12.640  0.00  0.00    -0.018 C 
ATOM     15  C   UNL     1      37.320 -26.698 -13.781  0.00  0.00    -0.025 C 
ATOM     16  C   UNL     1      38.035 -25.855 -14.822  0.00  0.00    -0.081 C 
ATOM     17  C   UNL     1      37.239 -23.222 -12.352  0.00  0.00    -0.018 C 
ATOM     18  H   UNL     1      38.913 -24.241 -13.899  0.00  0.00    -0.084 HD
ATOM     19  H   UNL     1      37.865 -23.816 -15.101  0.00  0.00    -0.084 HD
ENDBRANCH   3  13
BRANCH   6  22
ATOM     20  O   UNL     1      34.951 -22.963 -17.852  0.00  0.00    -0.270 OA
ATOM     21  N   UNL     1      32.868 -22.428 -18.649  0.00  0.00    -0.325 N 
ATOM     22  C   UNL     1      33.725 -22.882 -17.649  0.00  0.00    +0.244 C 
ATOM     23  H   UNL     1      33.232 -22.156 -19.523  0.00  0.00    +0.145 HD
ATOM     24  H   UNL     1      31.899 -22.380 -18.483  0.00  0.00    +0.145 HD
ENDBRANCH   6  22
TORSDOF 2
ENDMDL
MODEL 2
REMARK VINA RESULT:      -8.5      2.095      3.367
REMARK  Name = 11960529
REMARK  2 active torsions:
REMARK  status: ('A' for Active; 'I' for Inactive)
REMARK    1  A    between atoms: C_3  and  C_13
REMARK    2  A    between atoms: C_6  and  C_22
REMARK                            x       y       z     vdW  Elec       q    Type
REMARK                         _______ _______ _______ _____ _____    ______ ____
ROOT
ATOM      1  N   UNL     1      35.361 -24.016 -15.393  0.00  0.00    -0.320 N 
ATOM      2  N   UNL     1      33.985 -24.619 -13.756  0.00  0.00    -0.319 N 
ATOM      3  C   UNL     1      35.230 -24.558 -14.150  0.00  0.00    +0.125 C 
ATOM      4  C   UNL     1      34.103 -23.700 -15.838  0.00  0.00    +0.059 C 
ATOM      5  C   UNL     1      33.261 -24.087 -14.798  0.00  0.00    +0.063 C 
ATOM      6  C   UNL     1      31.876 -23.898 -14.934  0.00  0.00    +0.067 C 
ATOM      7  C   UNL     1      33.644 -23.128 -17.025  0.00  0.00    +0.016 C 
ATOM      8  C   UNL     1      31.391 -23.326 -16.117  0.00  0.00    +0.006 C 
ATOM      9  C   UNL     1      32.262 -22.948 -17.142  0.00  0.00    +0.001 C 
ATOM     10  H   UNL     1      36.205 -23.876 -15.881  0.00  0.00    +0.148 HD
ATOM     11  H   UNL     1      33.641 -24.969 -12.902  0.00  0.00    +0.148 HD
ENDROOT
BRANCH   3  13
ATOM     12  N   UNL     1      36.155 -25.335 -11.935  0.00  0.00    +0.388 N 
ATOM     13  C   UNL     1      36.465 -25.025 -13.354  0.00  0.00    -0.011 C 
ATOM     14  C   UNL     1      37.533 -23.934 -13.180  0.00  0.00    -0.018 C 
ATOM     15  C   UNL     1      37.015 -23.096 -12.024  0.00  0.00    -0.025 C 
ATOM     16  C   UNL     1      36.199 -24.067 -11.191  0.00  0.00    -0.081 C 
ATOM     17  C   UNL     1      37.055 -26.275 -14.029  0.00  0.00    -0.018 C 
ATOM     18  H   UNL     1      36.846 -25.984 -11.559  0.00  0.00    -0.084 HD
ATOM     19  H   UNL     1      35.236 -25.769 -11.853  0.00  0.00    -0.084 HD
ENDBRANCH   3  13
BRANCH   6  22
ATOM     20  O   UNL     1      30.988 -23.732 -12.759  0.00  0.00    -0.270 OA
ATOM     21  N   UNL     1      30.038 -25.291 -14.146  0.00  0.00    -0.325 N 
ATOM     22  C   UNL     1      30.963 -24.285 -13.874  0.00  0.00    +0.244 C 
ATOM     23  H   UNL     1      29.404 -25.579 -13.450  0.00  0.00    +0.145 HD
ATOM     24  H   UNL     1      30.018 -25.714 -15.035  0.00  0.00    +0.145 HD
ENDBRANCH   6  22
TORSDOF 2
ENDMDL
MODEL 3
REMARK VINA RESULT:      -8.2      8.708     11.326
REMARK  Name = 11960529
REMARK  2 active torsions:
REMARK  status: ('A' for Active; 'I' for Inactive)
REMARK    1  A    between atoms: C_3  and  C_13
REMARK    2  A    between atoms: C_6  and  C_22
REMARK                            x       y       z     vdW  Elec       q    Type
REMARK                         _______ _______ _______ _____ _____    ______ ____
ROOT
ATOM      1  N   UNL     1      33.816 -16.904 -21.309  0.00  0.00    -0.320 N 
ATOM      2  N   UNL     1      34.221 -16.104 -23.343  0.00  0.00    -0.319 N 
ATOM      3  C   UNL     1      34.336 -17.136 -22.546  0.00  0.00    +0.125 C 
ATOM      4  C   UNL     1      33.325 -15.624 -21.304  0.00  0.00    +0.059 C 
ATOM      5  C   UNL     1      33.590 -15.146 -22.584  0.00  0.00    +0.063 C 
ATOM      6  C   UNL     1      33.207 -13.836 -22.919  0.00  0.00    +0.067 C 
ATOM      7  C   UNL     1      32.691 -14.866 -20.318  0.00  0.00    +0.016 C 
ATOM      8  C   UNL     1      32.569 -13.057 -21.945  0.00  0.00    +0.006 C 
ATOM      9  C   UNL     1      32.316 -13.565 -20.669  0.00  0.00    +0.001 C 
ATOM     10  H   UNL     1      33.797 -17.540 -20.558  0.00  0.00    +0.148 HD
ATOM     11  H   UNL     1      34.521 -16.031 -24.278  0.00  0.00    +0.148 HD
ENDROOT
BRANCH   3  13
ATOM     12  N   UNL     1      34.426 -19.616 -22.092  0.00  0.00    +0.388 N 
ATOM     13  C   UNL     1      34.976 -18.494 -22.896  0.00  0.00    -0.011 C 
ATOM     14  C   UNL     1      36.465 -18.585 -22.528  0.00  0.00    -0.018 C 
ATOM     15  C   UNL     1      36.458 -18.888 -21.040  0.00  0.00    -0.025 C 
ATOM     16  C   UNL     1      35.158 -19.639 -20.816  0.00  0.00    -0.081 C 
ATOM     17  C   UNL     1      34.756 -18.784 -24.390  0.00  0.00    -0.018 C 
ATOM     18  H   UNL     1      34.558 -20.498 -22.586  0.00  0.00    -0.084 HD
ATOM     19  H   UNL     1      33.427 -19.489 -21.933  0.00  0.00    -0.084 HD
ENDBRANCH   3  13
BRANCH   6  22
ATOM     20  O   UNL     1      33.071 -13.885 -25.269  0.00  0.00    -0.270 OA
ATOM     21  N   UNL     1      34.149 -12.090 -24.333  0.00  0.00    -0.325 N 
ATOM     22  C   UNL     1      33.463 -13.299 -24.243  0.00  0.00    +0.244 C 
ATOM     23  H   UNL     1      34.340 -11.697 -25.216  0.00  0.00    +0.145 HD
ATOM     24  H   UNL     1      34.443 -11.628 -23.515  0.00  0.00    +0.145 HD
ENDBRANCH   6  22
TORSDOF 2
ENDMDL
MODEL 4
REMARK VINA RESULT:      -8.1     10.968     13.793
REMARK  Name = 11960529
REMARK  2 active torsions:
REMARK  status: ('A' for Active; 'I' for Inactive)
REMARK    1  A    between atoms: C_3  and  C_13
REMARK    2  A    between atoms: C_6  and  C_22
REMARK                            x       y       z     vdW  Elec       q    Type
REMARK                         _______ _______ _______ _____ _____    ______ ____
ROOT
ATOM      1  N   UNL     1      33.629 -15.588 -24.264  0.00  0.00    -0.320 N 
ATOM      2  N   UNL     1      34.157 -13.728 -23.169  0.00  0.00    -0.319 N 
ATOM      3  C   UNL     1      34.011 -15.025 -23.084  0.00  0.00    +0.125 C 
ATOM      4  C   UNL     1      33.521 -14.578 -25.185  0.00  0.00    +0.059 C 
ATOM      5  C   UNL     1      33.855 -13.427 -24.477  0.00  0.00    +0.063 C 
ATOM      6  C   UNL     1      33.843 -12.188 -25.140  0.00  0.00    +0.067 C 
ATOM      7  C   UNL     1      33.169 -14.573 -26.536  0.00  0.00    +0.016 C 
ATOM      8  C   UNL     1      33.494 -12.159 -26.496  0.00  0.00    +0.006 C 
ATOM      9  C   UNL     1      33.164 -13.332 -27.179  0.00  0.00    +0.001 C 
ATOM     10  H   UNL     1      33.462 -16.545 -24.425  0.00  0.00    +0.148 HD
ATOM     11  H   UNL     1      34.424 -13.105 -22.455  0.00  0.00    +0.148 HD
ENDROOT
BRANCH   3  13
ATOM     12  N   UNL     1      33.023 -16.673 -21.449  0.00  0.00    +0.388 N 
ATOM     13  C   UNL     1      34.228 -15.889 -21.826  0.00  0.00    -0.011 C 
ATOM     14  C   UNL     1      34.444 -15.067 -20.546  0.00  0.00    -0.018 C 
ATOM     15  C   UNL     1      33.040 -14.672 -20.122  0.00  0.00    -0.025 C 
ATOM     16  C   UNL     1      32.159 -15.789 -20.650  0.00  0.00    -0.081 C 
ATOM     17  C   UNL     1      35.402 -16.851 -22.072  0.00  0.00    -0.018 C 
ATOM     18  H   UNL     1      33.293 -17.487 -20.897  0.00  0.00    -0.084 HD
ATOM     19  H   UNL     1      32.532 -17.002 -22.279  0.00  0.00    -0.084 HD
ENDBRANCH   3  13
BRANCH   6  22
ATOM     20  O   UNL     1      33.485 -10.527 -23.510  0.00  0.00    -0.270 OA
ATOM     21  N   UNL     1      35.347 -10.297 -24.828  0.00  0.00    -0.325 N 
ATOM     22  C   UNL     1      34.187 -10.964 -24.440  0.00  0.00    +0.244 C 
ATOM     23  H   UNL     1      35.611  -9.463 -24.375  0.00  0.00    +0.145 HD
ATOM     24  H   UNL     1      35.903 -10.658 -25.556  0.00  0.00    +0.145 HD
ENDBRANCH   6  22
TORSDOF 2
ENDMDL
MODEL 5
REMARK VINA RESULT:      -8.0     13.178     15.958
REMARK  Name = 11960529
REMARK  2 active torsions:
REMARK  status: ('A' for Active; 'I' for Inactive)
REMARK    1  A    between atoms: C_3  and  C_13
REMARK    2  A    between atoms: C_6  and  C_22
REMARK                            x       y       z     vdW  Elec       q    Type
REMARK                         _______ _______ _______ _____ _____    ______ ____
ROOT
ATOM      1  N   UNL     1      34.389 -11.568 -24.473  0.00  0.00    -0.320 N 
ATOM      2  N   UNL     1      32.785 -11.311 -22.956  0.00  0.00    -0.319 N 
ATOM      3  C   UNL     1      33.436 -12.165 -23.703  0.00  0.00    +0.125 C 
ATOM      4  C   UNL     1      34.353 -10.224 -24.201  0.00  0.00    +0.059 C 
ATOM      5  C   UNL     1      33.343 -10.090 -23.253  0.00  0.00    +0.063 C 
ATOM      6  C   UNL     1      33.042  -8.812 -22.751  0.00  0.00    +0.067 C 
ATOM      7  C   UNL     1      35.094  -9.148 -24.691  0.00  0.00    +0.016 C 
ATOM      8  C   UNL     1      33.773  -7.717 -23.228  0.00  0.00    +0.006 C 
ATOM      9  C   UNL     1      34.780  -7.885 -24.180  0.00  0.00    +0.001 C 
ATOM     10  H   UNL     1      34.992 -12.020 -25.106  0.00  0.00    +0.148 HD
ATOM     11  H   UNL     1      32.055 -11.502 -22.322  0.00  0.00    +0.148 HD
ENDROOT
BRANCH   3  13
ATOM     12  N   UNL     1      32.145 -14.151 -22.834  0.00  0.00    +0.388 N 
ATOM     13  C   UNL     1      33.209 -13.689 -23.762  0.00  0.00    -0.011 C 
ATOM     14  C   UNL     1      34.405 -14.508 -23.253  0.00  0.00    -0.018 C 
ATOM     15  C   UNL     1      34.259 -14.471 -21.743  0.00  0.00    -0.025 C 
ATOM     16  C   UNL     1      32.766 -14.329 -21.512  0.00  0.00    -0.081 C 
ATOM     17  C   UNL     1      32.835 -14.087 -25.200  0.00  0.00    -0.018 C 
ATOM     18  H   UNL     1      31.756 -15.035 -23.158  0.00  0.00    -0.084 HD
ATOM     19  H   UNL     1      31.387 -13.470 -22.787  0.00  0.00    -0.084 HD
ENDBRANCH   3  13
BRANCH   6  22
ATOM     20  O   UNL     1      31.513  -9.591 -21.137  0.00  0.00    -0.270 OA
ATOM     21  N   UNL     1      31.563  -7.329 -21.507  0.00  0.00    -0.325 N 
ATOM     22  C   UNL     1      31.998  -8.628 -21.759  0.00  0.00    +0.244 C 
ATOM     23  H   UNL     1      30.856  -7.167 -20.840  0.00  0.00    +0.145 HD
ATOM     24  H   UNL     1      31.961  -6.572 -21.995  0.00  0.00    +0.145 HD
ENDBRANCH   6  22
TORSDOF 2
ENDMDL
MODEL 6
REMARK VINA RESULT:      -7.9      1.933      5.499
REMARK  Name = 11960529
REMARK  2 active torsions:
REMARK  status: ('A' for Active; 'I' for Inactive)
REMARK    1  A    between atoms: C_3  and  C_13
REMARK    2  A    between atoms: C_6  and  C_22
REMARK                            x       y       z     vdW  Elec       q    Type
REMARK                         _______ _______ _______ _____ _____    ______ ____
ROOT
ATOM      1  N   UNL     1      34.056 -23.410 -13.251  0.00  0.00    -0.320 N 
ATOM      2  N   UNL     1      34.578 -24.943 -14.773  0.00  0.00    -0.319 N 
ATOM      3  C   UNL     1      33.681 -24.076 -14.378  0.00  0.00    +0.125 C 
ATOM      4  C   UNL     1      35.292 -23.881 -12.888  0.00  0.00    +0.059 C 
ATOM      5  C   UNL     1      35.595 -24.838 -13.852  0.00  0.00    +0.063 C 
ATOM      6  C   UNL     1      36.817 -25.528 -13.772  0.00  0.00    +0.067 C 
ATOM      7  C   UNL     1      36.143 -23.563 -11.829  0.00  0.00    +0.016 C 
ATOM      8  C   UNL     1      37.687 -25.225 -12.718  0.00  0.00    +0.006 C 
ATOM      9  C   UNL     1      37.355 -24.259 -11.765  0.00  0.00    +0.001 C 
ATOM     10  H   UNL     1      33.535 -22.717 -12.784  0.00  0.00    +0.148 HD
ATOM     11  H   UNL     1      34.533 -25.540 -15.554  0.00  0.00    +0.148 HD
ENDROOT
BRANCH   3  13
ATOM     12  N   UNL     1      31.536 -22.749 -14.349  0.00  0.00    +0.388 N 
ATOM     13  C   UNL     1      32.330 -23.783 -15.060  0.00  0.00    -0.011 C 
ATOM     14  C   UNL     1      31.353 -24.969 -15.020  0.00  0.00    -0.018 C 
ATOM     15  C   UNL     1      30.749 -24.900 -13.628  0.00  0.00    -0.025 C 
ATOM     16  C   UNL     1      30.804 -23.427 -13.267  0.00  0.00    -0.081 C 
ATOM     17  C   UNL     1      32.584 -23.324 -16.505  0.00  0.00    -0.018 C 
ATOM     18  H   UNL     1      30.878 -22.309 -14.991  0.00  0.00    -0.084 HD
ATOM     19  H   UNL     1      32.144 -22.023 -13.972  0.00  0.00    -0.084 HD
ENDBRANCH   3  13
BRANCH   6  22
ATOM     20  O   UNL     1      36.398 -26.839 -15.683  0.00  0.00    -0.270 OA
ATOM     21  N   UNL     1      38.425 -27.132 -14.652  0.00  0.00    -0.325 N 
ATOM     22  C   UNL     1      37.172 -26.531 -14.759  0.00  0.00    +0.244 C 
ATOM     23  H   UNL     1      38.699 -27.818 -15.305  0.00  0.00    +0.145 HD
ATOM     24  H   UNL     1      39.035 -26.873 -13.925  0.00  0.00    +0.145 HD
ENDBRANCH   6  22
TORSDOF 2
ENDMDL
MODEL 7
REMARK VINA RESULT:      -7.8      2.557      5.578
REMARK  Name = 11960529
REMARK  2 active torsions:
REMARK  status: ('A' for Active; 'I' for Inactive)
REMARK    1  A    between atoms: C_3  and  C_13
REMARK    2  A    between atoms: C_6  and  C_22
REMARK                            x       y       z     vdW  Elec       q    Type
REMARK                         _______ _______ _______ _____ _____    ______ ____
ROOT
ATOM      1  N   UNL     1      32.047 -23.198 -17.099  0.00  0.00    -0.320 N 
ATOM      2  N   UNL     1      33.554 -23.514 -15.497  0.00  0.00    -0.319 N 
ATOM      3  C   UNL     1      32.294 -23.627 -15.830  0.00  0.00    +0.125 C 
ATOM      4  C   UNL     1      33.240 -22.776 -17.629  0.00  0.00    +0.059 C 
ATOM      5  C   UNL     1      34.164 -22.983 -16.609  0.00  0.00    +0.063 C 
ATOM      6  C   UNL     1      35.511 -22.647 -16.828  0.00  0.00    +0.067 C 
ATOM      7  C   UNL     1      33.577 -22.247 -18.875  0.00  0.00    +0.016 C 
ATOM      8  C   UNL     1      35.874 -22.114 -18.072  0.00  0.00    +0.006 C 
ATOM      9  C   UNL     1      34.922 -21.920 -19.075  0.00  0.00    +0.001 C 
ATOM     10  H   UNL     1      31.173 -23.193 -17.552  0.00  0.00    +0.148 HD
ATOM     11  H   UNL     1      33.972 -23.755 -14.638  0.00  0.00    +0.148 HD
ENDROOT
BRANCH   3  13
ATOM     12  N   UNL     1      30.137 -24.931 -15.712  0.00  0.00    +0.388 N 
ATOM     13  C   UNL     1      31.158 -24.173 -14.943  0.00  0.00    -0.011 C 
ATOM     14  C   UNL     1      30.285 -23.075 -14.317  0.00  0.00    -0.018 C 
ATOM     15  C   UNL     1      29.328 -22.688 -15.430  0.00  0.00    -0.025 C 
ATOM     16  C   UNL     1      29.188 -23.950 -16.262  0.00  0.00    -0.081 C 
ATOM     17  C   UNL     1      31.760 -25.087 -13.861  0.00  0.00    -0.018 C 
ATOM     18  H   UNL     1      29.648 -25.582 -15.098  0.00  0.00    -0.084 HD
ATOM     19  H   UNL     1      30.575 -25.468 -16.460  0.00  0.00    -0.084 HD
ENDBRANCH   3  13
BRANCH   6  22
ATOM     20  O   UNL     1      36.192 -22.919 -14.590  0.00  0.00    -0.270 OA
ATOM     21  N   UNL     1      37.837 -22.981 -16.186  0.00  0.00    -0.325 N 
ATOM     22  C   UNL     1      36.507 -22.849 -15.792  0.00  0.00    +0.244 C 
ATOM     23  H   UNL     1      38.540 -23.118 -15.509  0.00  0.00    +0.145 HD
ATOM     24  H   UNL     1      38.075 -22.936 -17.140  0.00  0.00    +0.145 HD
ENDBRANCH   6  22
TORSDOF 2
ENDMDL
MODEL 8
REMARK VINA RESULT:      -7.8      1.843      3.451
REMARK  Name = 11960529
REMARK  2 active torsions:
REMARK  status: ('A' for Active; 'I' for Inactive)
REMARK    1  A    between atoms: C_3  and  C_13
REMARK    2  A    between atoms: C_6  and  C_22
REMARK                            x       y       z     vdW  Elec       q    Type
REMARK                         _______ _______ _______ _____ _____    ______ ____
ROOT
ATOM      1  N   UNL     1      37.459 -23.450 -15.126  0.00  0.00    -0.320 N 
ATOM      2  N   UNL     1      35.324 -24.050 -14.983  0.00  0.00    -0.319 N 
ATOM      3  C   UNL     1      36.508 -24.139 -14.435  0.00  0.00    +0.125 C 
ATOM      4  C   UNL     1      36.842 -22.868 -16.203  0.00  0.00    +0.059 C 
ATOM      5  C   UNL     1      35.510 -23.258 -16.092  0.00  0.00    +0.063 C 
ATOM      6  C   UNL     1      34.587 -22.824 -17.059  0.00  0.00    +0.067 C 
ATOM      7  C   UNL     1      37.321 -22.060 -17.235  0.00  0.00    +0.016 C 
ATOM      8  C   UNL     1      35.045 -22.012 -18.103  0.00  0.00    +0.006 C 
ATOM      9  C   UNL     1      36.387 -21.637 -18.187  0.00  0.00    +0.001 C 
ATOM     10  H   UNL     1      38.413 -23.382 -14.893  0.00  0.00    +0.148 HD
ATOM     11  H   UNL     1      34.485 -24.460 -14.670  0.00  0.00    +0.148 HD
ENDROOT
BRANCH   3  13
ATOM     12  N   UNL     1      35.726 -25.033 -12.209  0.00  0.00    +0.388 N 
ATOM     13  C   UNL     1      36.867 -24.917 -13.154  0.00  0.00    -0.011 C 
ATOM     14  C   UNL     1      37.898 -24.199 -12.267  0.00  0.00    -0.018 C 
ATOM     15  C   UNL     1      37.075 -23.176 -11.504  0.00  0.00    -0.025 C 
ATOM     16  C   UNL     1      35.694 -23.798 -11.409  0.00  0.00    -0.081 C 
ATOM     17  C   UNL     1      37.352 -26.325 -13.538  0.00  0.00    -0.018 C 
ATOM     18  H   UNL     1      35.857 -25.840 -11.599  0.00  0.00    -0.084 HD
ATOM     19  H   UNL     1      34.850 -25.157 -12.716  0.00  0.00    -0.084 HD
ENDBRANCH   3  13
BRANCH   6  22
ATOM     20  O   UNL     1      32.750 -23.874 -16.024  0.00  0.00    -0.270 OA
ATOM     21  N   UNL     1      32.340 -22.785 -18.000  0.00  0.00    -0.325 N 
ATOM     22  C   UNL     1      33.189 -23.206 -16.978  0.00  0.00    +0.244 C 
ATOM     23  H   UNL     1      31.385 -23.026 -17.977  0.00  0.00    +0.145 HD
ATOM     24  H   UNL     1      32.694 -22.246 -18.744  0.00  0.00    +0.145 HD
ENDBRANCH   6  22
TORSDOF 2
ENDMDL
MODEL 9
REMARK VINA RESULT:      -7.7      2.444      5.942
REMARK  Name = 11960529
REMARK  2 active torsions:
REMARK  status: ('A' for Active; 'I' for Inactive)
REMARK    1  A    between atoms: C_3  and  C_13
REMARK    2  A    between atoms: C_6  and  C_22
REMARK                            x       y       z     vdW  Elec       q    Type
REMARK                         _______ _______ _______ _____ _____    ______ ____
ROOT
ATOM      1  N   UNL     1      34.729 -24.390 -15.445  0.00  0.00    -0.320 N 
ATOM      2  N   UNL     1      34.155 -23.995 -13.335  0.00  0.00    -0.319 N 
ATOM      3  C   UNL     1      33.758 -23.983 -14.581  0.00  0.00    +0.125 C 
ATOM      4  C   UNL     1      35.841 -24.691 -14.700  0.00  0.00    +0.059 C 
ATOM      5  C   UNL     1      35.457 -24.435 -13.386  0.00  0.00    +0.063 C 
ATOM      6  C   UNL     1      36.382 -24.646 -12.350  0.00  0.00    +0.067 C 
ATOM      7  C   UNL     1      37.111 -25.150 -15.053  0.00  0.00    +0.016 C 
ATOM      8  C   UNL     1      37.663 -25.106 -12.681  0.00  0.00    +0.006 C 
ATOM      9  C   UNL     1      38.018 -25.353 -14.008  0.00  0.00    +0.001 C 
ATOM     10  H   UNL     1      34.647 -24.456 -16.424  0.00  0.00    +0.148 HD
ATOM     11  H   UNL     1      33.636 -23.744 -12.536  0.00  0.00    +0.148 HD
ENDROOT
BRANCH   3  13
ATOM     12  N   UNL     1      31.744 -22.495 -14.273  0.00  0.00    +0.388 N 
ATOM     13  C   UNL     1      32.365 -23.567 -15.093  0.00  0.00    -0.011 C 
ATOM     14  C   UNL     1      31.306 -24.674 -14.961  0.00  0.00    -0.018 C 
ATOM     15  C   UNL     1      30.876 -24.598 -13.507  0.00  0.00    -0.025 C 
ATOM     16  C   UNL     1      31.090 -23.144 -13.126  0.00  0.00    -0.081 C 
ATOM     17  C   UNL     1      32.486 -23.087 -16.549  0.00  0.00    -0.018 C 
ATOM     18  H   UNL     1      31.053 -21.987 -14.825  0.00  0.00    -0.084 HD
ATOM     19  H   UNL     1      32.448 -21.829 -13.957  0.00  0.00    -0.084 HD
ENDBRANCH   3  13
BRANCH   6  22
ATOM     20  O   UNL     1      35.185 -25.099 -10.373  0.00  0.00    -0.270 OA
ATOM     21  N   UNL     1      36.658 -23.343 -10.310  0.00  0.00    -0.325 N 
ATOM     22  C   UNL     1      36.022 -24.394 -10.967  0.00  0.00    +0.244 C 
ATOM     23  H   UNL     1      36.438 -23.144  -9.371  0.00  0.00    +0.145 HD
ATOM     24  H   UNL     1      37.328 -22.799 -10.784  0.00  0.00    +0.145 HD
ENDBRANCH   6  22
TORSDOF 2
ENDMDL
