MODEL 1
REMARK VINA RESULT:     -11.3      0.000      0.000
REMARK  Name = 444698
REMARK  5 active torsions:
REMARK  status: ('A' for Active; 'I' for Inactive)
REMARK    1  A    between atoms: S_1  and  N_4
REMARK    2  A    between atoms: S_1  and  C_18
REMARK    3  A    between atoms: C_5  and  C_15
REMARK    4  A    between atoms: C_15  and  O_16
REMARK    5  A    between atoms: C_21  and  C_24
REMARK                            x       y       z     vdW  Elec       q    Type
REMARK                         _______ _______ _______ _____ _____    ______ ____
ROOT
ATOM      1  S   UNL     1      35.024 -18.369 -23.135  0.00  0.00    +0.064 S 
ATOM      2  O   UNL     1      36.470 -18.290 -23.196  0.00  0.00    -0.153 OA
ATOM      3  O   UNL     1      34.243 -18.940 -24.212  0.00  0.00    -0.153 OA
ENDROOT
BRANCH   1   4
ATOM      4  N   UNL     1      34.409 -16.820 -22.754  0.00  0.00    -0.141 NA
ATOM      5  C   UNL     1      33.749 -16.666 -21.425  0.00  0.00    +0.182 C 
ATOM      6  C   UNL     1      32.555 -15.709 -21.410  0.00  0.00    +0.055 C 
ATOM      7  C   UNL     1      33.839 -16.043 -23.890  0.00  0.00    +0.122 C 
ATOM      8  C   UNL     1      32.772 -14.489 -22.263  0.00  0.00    -0.023 C 
ATOM      9  C   UNL     1      33.414 -14.656 -23.499  0.00  0.00    -0.008 C 
ATOM     10  C   UNL     1      32.310 -13.225 -21.883  0.00  0.00    -0.004 C 
ATOM     11  C   UNL     1      33.590 -13.560 -24.346  0.00  0.00    -0.003 C 
ATOM     12  C   UNL     1      32.502 -12.131 -22.726  0.00  0.00    -0.000 C 
ATOM     13  C   UNL     1      33.140 -12.298 -23.956  0.00  0.00    -0.000 C 
BRANCH   5  15
ATOM     14  O   UNL     1      34.952 -15.026 -20.119  0.00  0.00    -0.249 OA
ATOM     15  C   UNL     1      34.848 -16.171 -20.536  0.00  0.00    +0.330 C 
BRANCH  15  16
ATOM     16  O   UNL     1      35.721 -17.168 -20.253  0.00  0.00    -0.479 OA
ATOM     17  H   UNL     1      36.547 -17.206 -20.695  0.00  0.00    +0.295 HD
ENDBRANCH  15  16
ENDBRANCH   5  15
ENDBRANCH   1   4
BRANCH   1  18
ATOM     18  C   UNL     1      34.683 -19.442 -21.743  0.00  0.00    +0.122 C 
ATOM     19  C   UNL     1      33.377 -19.622 -21.360  0.00  0.00    +0.020 C 
ATOM     20  C   UNL     1      35.742 -20.045 -21.108  0.00  0.00    +0.020 C 
ATOM     21  C   UNL     1      34.161 -21.086 -19.607  0.00  0.00    +0.000 C 
ATOM     22  C   UNL     1      33.111 -20.457 -20.276  0.00  0.00    +0.001 C 
ATOM     23  C   UNL     1      35.476 -20.880 -20.023  0.00  0.00    +0.001 C 
BRANCH  21  24
ATOM     24  C   UNL     1      33.885 -21.953 -18.482  0.00  0.00    +0.000 C 
ATOM     25  C   UNL     1      32.571 -22.301 -18.174  0.00  0.00    +0.000 C 
ATOM     26  C   UNL     1      34.936 -22.440 -17.704  0.00  0.00    +0.000 C 
ATOM     27  C   UNL     1      32.306 -23.136 -17.088  0.00  0.00    +0.000 C 
ATOM     28  C   UNL     1      34.672 -23.276 -16.619  0.00  0.00    +0.000 C 
ATOM     29  C   UNL     1      33.356 -23.624 -16.311  0.00  0.00    +0.000 C 
ENDBRANCH  21  24
ENDBRANCH   1  18
TORSDOF 5
ENDMDL
MODEL 2
REMARK VINA RESULT:     -11.2      5.027      7.464
REMARK  Name = 444698
REMARK  5 active torsions:
REMARK  status: ('A' for Active; 'I' for Inactive)
REMARK    1  A    between atoms: S_1  and  N_4
REMARK    2  A    between atoms: S_1  and  C_18
REMARK    3  A    between atoms: C_5  and  C_15
REMARK    4  A    between atoms: C_15  and  O_16
REMARK    5  A    between atoms: C_21  and  C_24
REMARK                            x       y       z     vdW  Elec       q    Type
REMARK                         _______ _______ _______ _____ _____    ______ ____
ROOT
ATOM      1  S   UNL     1      31.388 -11.401 -20.792  0.00  0.00    +0.064 S 
ATOM      2  O   UNL     1      30.026 -11.534 -21.266  0.00  0.00    -0.153 OA
ATOM      3  O   UNL     1      31.705 -11.346 -19.380  0.00  0.00    -0.153 OA
ENDROOT
BRANCH   1   4
ATOM      4  N   UNL     1      32.113 -10.069 -21.583  0.00  0.00    -0.141 NA
ATOM      5  C   UNL     1      31.502  -8.730 -21.343  0.00  0.00    +0.182 C 
ATOM      6  C   UNL     1      31.524  -7.789 -22.551  0.00  0.00    +0.055 C 
ATOM      7  C   UNL     1      32.661 -10.333 -22.942  0.00  0.00    +0.122 C 
ATOM      8  C   UNL     1      32.804  -7.878 -23.337  0.00  0.00    -0.023 C 
ATOM      9  C   UNL     1      33.371  -9.146 -23.530  0.00  0.00    -0.008 C 
ATOM     10  C   UNL     1      33.400  -6.752 -23.912  0.00  0.00    -0.004 C 
ATOM     11  C   UNL     1      34.530  -9.281 -24.298  0.00  0.00    -0.003 C 
ATOM     12  C   UNL     1      34.566  -6.891 -24.665  0.00  0.00    -0.000 C 
ATOM     13  C   UNL     1      35.130  -8.153 -24.858  0.00  0.00    -0.000 C 
BRANCH   5  15
ATOM     14  O   UNL     1      33.283  -7.449 -20.330  0.00  0.00    -0.249 OA
ATOM     15  C   UNL     1      32.302  -8.169 -20.208  0.00  0.00    +0.330 C 
BRANCH  15  16
ATOM     16  O   UNL     1      31.794  -8.571 -19.018  0.00  0.00    -0.479 OA
ATOM     17  H   UNL     1      31.555  -7.935 -18.373  0.00  0.00    +0.295 HD
ENDBRANCH  15  16
ENDBRANCH   5  15
ENDBRANCH   1   4
BRANCH   1  18
ATOM     18  C   UNL     1      32.217 -12.881 -21.361  0.00  0.00    +0.122 C 
ATOM     19  C   UNL     1      32.322 -13.094 -22.713  0.00  0.00    +0.020 C 
ATOM     20  C   UNL     1      32.719 -13.751 -20.423  0.00  0.00    +0.020 C 
ATOM     21  C   UNL     1      33.489 -15.153 -22.233  0.00  0.00    +0.000 C 
ATOM     22  C   UNL     1      32.967 -14.248 -23.156  0.00  0.00    +0.001 C 
ATOM     23  C   UNL     1      33.364 -14.905 -20.866  0.00  0.00    +0.001 C 
BRANCH  21  24
ATOM     24  C   UNL     1      34.159 -16.350 -22.693  0.00  0.00    +0.000 C 
ATOM     25  C   UNL     1      34.646 -17.276 -21.771  0.00  0.00    +0.000 C 
ATOM     26  C   UNL     1      34.317 -16.578 -24.060  0.00  0.00    +0.000 C 
ATOM     27  C   UNL     1      35.292 -18.430 -22.216  0.00  0.00    +0.000 C 
ATOM     28  C   UNL     1      34.963 -17.732 -24.505  0.00  0.00    +0.000 C 
ATOM     29  C   UNL     1      35.451 -18.658 -23.582  0.00  0.00    +0.000 C 
ENDBRANCH  21  24
ENDBRANCH   1  18
TORSDOF 5
ENDMDL
MODEL 3
REMARK VINA RESULT:     -10.9      5.438      9.388
REMARK  Name = 444698
REMARK  5 active torsions:
REMARK  status: ('A' for Active; 'I' for Inactive)
REMARK    1  A    between atoms: S_1  and  N_4
REMARK    2  A    between atoms: S_1  and  C_18
REMARK    3  A    between atoms: C_5  and  C_15
REMARK    4  A    between atoms: C_15  and  O_16
REMARK    5  A    between atoms: C_21  and  C_24
REMARK                            x       y       z     vdW  Elec       q    Type
REMARK                         _______ _______ _______ _____ _____    ______ ____
ROOT
ATOM      1  S   UNL     1      34.943 -23.570 -15.745  0.00  0.00    +0.064 S 
ATOM      2  O   UNL     1      35.376 -24.893 -16.147  0.00  0.00    -0.153 OA
ATOM      3  O   UNL     1      35.626 -22.824 -14.708  0.00  0.00    -0.153 OA
ENDROOT
BRANCH   1   4
ATOM      4  N   UNL     1      33.272 -23.628 -15.389  0.00  0.00    -0.141 NA
ATOM      5  C   UNL     1      32.847 -24.552 -14.299  0.00  0.00    +0.182 C 
ATOM      6  C   UNL     1      31.492 -25.228 -14.522  0.00  0.00    +0.055 C 
ATOM      7  C   UNL     1      32.349 -23.474 -16.548  0.00  0.00    +0.122 C 
ATOM      8  C   UNL     1      30.474 -24.307 -15.137  0.00  0.00    -0.023 C 
ATOM      9  C   UNL     1      30.902 -23.432 -16.145  0.00  0.00    -0.008 C 
ATOM     10  C   UNL     1      29.126 -24.341 -14.769  0.00  0.00    -0.004 C 
ATOM     11  C   UNL     1      29.980 -22.596 -16.780  0.00  0.00    -0.003 C 
ATOM     12  C   UNL     1      28.212 -23.493 -15.395  0.00  0.00    -0.000 C 
ATOM     13  C   UNL     1      28.638 -22.623 -16.399  0.00  0.00    -0.000 C 
BRANCH   5  15
ATOM     14  O   UNL     1      31.863 -23.011 -12.718  0.00  0.00    -0.249 OA
ATOM     15  C   UNL     1      32.820 -23.680 -13.081  0.00  0.00    +0.330 C 
BRANCH  15  16
ATOM     16  O   UNL     1      34.007 -23.728 -12.430  0.00  0.00    -0.479 OA
ATOM     17  H   UNL     1      34.052 -24.081 -11.563  0.00  0.00    +0.295 HD
ENDBRANCH  15  16
ENDBRANCH   5  15
ENDBRANCH   1   4
BRANCH   1  18
ATOM     18  C   UNL     1      35.148 -22.559 -17.207  0.00  0.00    +0.122 C 
ATOM     19  C   UNL     1      36.365 -21.960 -17.424  0.00  0.00    +0.020 C 
ATOM     20  C   UNL     1      34.080 -22.418 -18.060  0.00  0.00    +0.020 C 
ATOM     21  C   UNL     1      35.462 -21.007 -19.451  0.00  0.00    +0.000 C 
ATOM     22  C   UNL     1      36.524 -21.172 -18.563  0.00  0.00    +0.001 C 
ATOM     23  C   UNL     1      34.239 -21.629 -19.199  0.00  0.00    +0.001 C 
BRANCH  21  24
ATOM     24  C   UNL     1      35.628 -20.189 -20.632  0.00  0.00    +0.000 C 
ATOM     25  C   UNL     1      36.803 -19.462 -20.820  0.00  0.00    +0.000 C 
ATOM     26  C   UNL     1      34.610 -20.128 -21.585  0.00  0.00    +0.000 C 
ATOM     27  C   UNL     1      36.961 -18.672 -21.959  0.00  0.00    +0.000 C 
ATOM     28  C   UNL     1      34.769 -19.339 -22.725  0.00  0.00    +0.000 C 
ATOM     29  C   UNL     1      35.945 -18.611 -22.912  0.00  0.00    +0.000 C 
ENDBRANCH  21  24
ENDBRANCH   1  18
TORSDOF 5
ENDMDL
MODEL 4
REMARK VINA RESULT:     -10.9      1.431      2.695
REMARK  Name = 444698
REMARK  5 active torsions:
REMARK  status: ('A' for Active; 'I' for Inactive)
REMARK    1  A    between atoms: S_1  and  N_4
REMARK    2  A    between atoms: S_1  and  C_18
REMARK    3  A    between atoms: C_5  and  C_15
REMARK    4  A    between atoms: C_15  and  O_16
REMARK    5  A    between atoms: C_21  and  C_24
REMARK                            x       y       z     vdW  Elec       q    Type
REMARK                         _______ _______ _______ _____ _____    ______ ____
ROOT
ATOM      1  S   UNL     1      35.327 -18.791 -23.109  0.00  0.00    +0.064 S 
ATOM      2  O   UNL     1      36.763 -18.601 -23.074  0.00  0.00    -0.153 OA
ATOM      3  O   UNL     1      34.676 -19.508 -24.186  0.00  0.00    -0.153 OA
ENDROOT
BRANCH   1   4
ATOM      4  N   UNL     1      34.570 -17.271 -22.907  0.00  0.00    -0.141 NA
ATOM      5  C   UNL     1      34.953 -16.196 -23.866  0.00  0.00    +0.182 C 
ATOM      6  C   UNL     1      35.002 -14.789 -23.267  0.00  0.00    +0.055 C 
ATOM      7  C   UNL     1      34.288 -16.861 -21.503  0.00  0.00    +0.122 C 
ATOM      8  C   UNL     1      33.889 -14.532 -22.288  0.00  0.00    -0.023 C 
ATOM      9  C   UNL     1      33.532 -15.565 -21.410  0.00  0.00    -0.008 C 
ATOM     10  C   UNL     1      33.250 -13.291 -22.201  0.00  0.00    -0.004 C 
ATOM     11  C   UNL     1      32.540 -15.353 -20.450  0.00  0.00    -0.003 C 
ATOM     12  C   UNL     1      32.249 -13.089 -21.250  0.00  0.00    -0.000 C 
ATOM     13  C   UNL     1      31.895 -14.118 -20.376  0.00  0.00    -0.000 C 
BRANCH   5  15
ATOM     14  O   UNL     1      32.994 -15.497 -25.097  0.00  0.00    -0.249 OA
ATOM     15  C   UNL     1      33.913 -16.289 -24.940  0.00  0.00    +0.330 C 
BRANCH  15  16
ATOM     16  O   UNL     1      34.125 -17.376 -25.721  0.00  0.00    -0.479 OA
ATOM     17  H   UNL     1      34.248 -18.218 -25.327  0.00  0.00    +0.295 HD
ENDBRANCH  15  16
ENDBRANCH   5  15
ENDBRANCH   1   4
BRANCH   1  18
ATOM     18  C   UNL     1      34.960 -19.773 -21.657  0.00  0.00    +0.122 C 
ATOM     19  C   UNL     1      36.008 -20.299 -20.941  0.00  0.00    +0.020 C 
ATOM     20  C   UNL     1      33.644 -19.964 -21.312  0.00  0.00    +0.020 C 
ATOM     21  C   UNL     1      34.397 -21.278 -19.431  0.00  0.00    +0.000 C 
ATOM     22  C   UNL     1      35.722 -21.063 -19.811  0.00  0.00    +0.001 C 
ATOM     23  C   UNL     1      33.358 -20.728 -20.182  0.00  0.00    +0.001 C 
BRANCH  21  24
ATOM     24  C   UNL     1      34.101 -22.071 -18.258  0.00  0.00    +0.000 C 
ATOM     25  C   UNL     1      35.122 -22.420 -17.374  0.00  0.00    +0.000 C 
ATOM     26  C   UNL     1      32.793 -22.488 -18.011  0.00  0.00    +0.000 C 
ATOM     27  C   UNL     1      34.836 -23.186 -16.244  0.00  0.00    +0.000 C 
ATOM     28  C   UNL     1      32.506 -23.253 -16.880  0.00  0.00    +0.000 C 
ATOM     29  C   UNL     1      33.528 -23.602 -15.996  0.00  0.00    +0.000 C 
ENDBRANCH  21  24
ENDBRANCH   1  18
TORSDOF 5
ENDMDL
MODEL 5
REMARK VINA RESULT:     -10.7      1.025      1.537
REMARK  Name = 444698
REMARK  5 active torsions:
REMARK  status: ('A' for Active; 'I' for Inactive)
REMARK    1  A    between atoms: S_1  and  N_4
REMARK    2  A    between atoms: S_1  and  C_18
REMARK    3  A    between atoms: C_5  and  C_15
REMARK    4  A    between atoms: C_15  and  O_16
REMARK    5  A    between atoms: C_21  and  C_24
REMARK                            x       y       z     vdW  Elec       q    Type
REMARK                         _______ _______ _______ _____ _____    ______ ____
ROOT
ATOM      1  S   UNL     1      34.897 -17.093 -23.516  0.00  0.00    +0.064 S 
ATOM      2  O   UNL     1      36.314 -16.860 -23.702  0.00  0.00    -0.153 OA
ATOM      3  O   UNL     1      34.061 -17.611 -24.579  0.00  0.00    -0.153 OA
ENDROOT
BRANCH   1   4
ATOM      4  N   UNL     1      34.187 -15.670 -22.886  0.00  0.00    -0.141 NA
ATOM      5  C   UNL     1      33.558 -15.772 -21.538  0.00  0.00    +0.182 C 
ATOM      6  C   UNL     1      32.302 -14.918 -21.350  0.00  0.00    +0.055 C 
ATOM      7  C   UNL     1      33.532 -14.771 -23.876  0.00  0.00    +0.122 C 
ATOM      8  C   UNL     1      32.409 -13.569 -22.006  0.00  0.00    -0.023 C 
ATOM      9  C   UNL     1      33.024 -13.496 -23.265  0.00  0.00    -0.008 C 
ATOM     10  C   UNL     1      31.873 -12.416 -21.424  0.00  0.00    -0.004 C 
ATOM     11  C   UNL     1      33.099 -12.271 -23.933  0.00  0.00    -0.003 C 
ATOM     12  C   UNL     1      31.963 -11.194 -22.090  0.00  0.00    -0.000 C 
ATOM     13  C   UNL     1      32.574 -11.121 -23.342  0.00  0.00    -0.000 C 
BRANCH   5  15
ATOM     14  O   UNL     1      35.200 -14.252 -20.624  0.00  0.00    -0.249 OA
ATOM     15  C   UNL     1      34.647 -15.342 -20.603  0.00  0.00    +0.330 C 
BRANCH  15  16
ATOM     16  O   UNL     1      34.942 -16.330 -19.724  0.00  0.00    -0.479 OA
ATOM     17  H   UNL     1      35.401 -17.094 -20.015  0.00  0.00    +0.295 HD
ENDBRANCH  15  16
ENDBRANCH   5  15
ENDBRANCH   1   4
BRANCH   1  18
ATOM     18  C   UNL     1      34.803 -18.350 -22.245  0.00  0.00    +0.122 C 
ATOM     19  C   UNL     1      35.966 -18.749 -21.633  0.00  0.00    +0.020 C 
ATOM     20  C   UNL     1      33.572 -18.870 -21.929  0.00  0.00    +0.020 C 
ATOM     21  C   UNL     1      34.660 -20.278 -20.296  0.00  0.00    +0.000 C 
ATOM     22  C   UNL     1      35.893 -19.729 -20.643  0.00  0.00    +0.001 C 
ATOM     23  C   UNL     1      33.499 -19.849 -20.939  0.00  0.00    +0.001 C 
BRANCH  21  24
ATOM     24  C   UNL     1      34.584 -21.295 -19.269  0.00  0.00    +0.000 C 
ATOM     25  C   UNL     1      33.379 -21.953 -19.025  0.00  0.00    +0.000 C 
ATOM     26  C   UNL     1      35.718 -21.616 -18.522  0.00  0.00    +0.000 C 
ATOM     27  C   UNL     1      33.308 -22.932 -18.034  0.00  0.00    +0.000 C 
ATOM     28  C   UNL     1      35.647 -22.595 -17.532  0.00  0.00    +0.000 C 
ATOM     29  C   UNL     1      34.441 -23.254 -17.288  0.00  0.00    +0.000 C 
ENDBRANCH  21  24
ENDBRANCH   1  18
TORSDOF 5
ENDMDL
MODEL 6
REMARK VINA RESULT:     -10.4      1.415      2.175
REMARK  Name = 444698
REMARK  5 active torsions:
REMARK  status: ('A' for Active; 'I' for Inactive)
REMARK    1  A    between atoms: S_1  and  N_4
REMARK    2  A    between atoms: S_1  and  C_18
REMARK    3  A    between atoms: C_5  and  C_15
REMARK    4  A    between atoms: C_15  and  O_16
REMARK    5  A    between atoms: C_21  and  C_24
REMARK                            x       y       z     vdW  Elec       q    Type
REMARK                         _______ _______ _______ _____ _____    ______ ____
ROOT
ATOM      1  S   UNL     1      34.772 -16.462 -24.042  0.00  0.00    +0.064 S 
ATOM      2  O   UNL     1      36.170 -16.220 -24.336  0.00  0.00    -0.153 OA
ATOM      3  O   UNL     1      33.855 -16.961 -25.046  0.00  0.00    -0.153 OA
ENDROOT
BRANCH   1   4
ATOM      4  N   UNL     1      34.113 -15.055 -23.328  0.00  0.00    -0.141 NA
ATOM      5  C   UNL     1      33.358 -15.238 -22.055  0.00  0.00    +0.182 C 
ATOM      6  C   UNL     1      32.155 -14.307 -21.884  0.00  0.00    +0.055 C 
ATOM      7  C   UNL     1      33.618 -14.013 -24.269  0.00  0.00    +0.122 C 
ATOM      8  C   UNL     1      32.419 -12.913 -22.384  0.00  0.00    -0.023 C 
ATOM      9  C   UNL     1      33.149 -12.767 -23.571  0.00  0.00    -0.008 C 
ATOM     10  C   UNL     1      31.916 -11.784 -21.730  0.00  0.00    -0.004 C 
ATOM     11  C   UNL     1      33.373 -11.493 -24.099  0.00  0.00    -0.003 C 
ATOM     12  C   UNL     1      32.155 -10.513 -22.254  0.00  0.00    -0.000 C 
ATOM     13  C   UNL     1      32.882 -10.368 -23.436  0.00  0.00    -0.000 C 
BRANCH   5  15
ATOM     14  O   UNL     1      35.333 -14.227 -21.096  0.00  0.00    -0.249 OA
ATOM     15  C   UNL     1      34.384 -14.992 -20.992  0.00  0.00    +0.330 C 
BRANCH  15  16
ATOM     16  O   UNL     1      34.123 -15.737 -19.891  0.00  0.00    -0.479 OA
ATOM     17  H   UNL     1      34.030 -15.321 -19.056  0.00  0.00    +0.295 HD
ENDBRANCH  15  16
ENDBRANCH   5  15
ENDBRANCH   1   4
BRANCH   1  18
ATOM     18  C   UNL     1      34.783 -17.746 -22.795  0.00  0.00    +0.122 C 
ATOM     19  C   UNL     1      33.646 -18.496 -22.618  0.00  0.00    +0.020 C 
ATOM     20  C   UNL     1      35.928 -17.933 -22.060  0.00  0.00    +0.020 C 
ATOM     21  C   UNL     1      34.799 -19.715 -20.881  0.00  0.00    +0.000 C 
ATOM     22  C   UNL     1      33.654 -19.496 -21.646  0.00  0.00    +0.001 C 
ATOM     23  C   UNL     1      35.936 -18.933 -21.087  0.00  0.00    +0.001 C 
BRANCH  21  24
ATOM     24  C   UNL     1      34.808 -20.752 -19.873  0.00  0.00    +0.000 C 
ATOM     25  C   UNL     1      35.998 -21.092 -19.230  0.00  0.00    +0.000 C 
ATOM     26  C   UNL     1      33.624 -21.412 -19.543  0.00  0.00    +0.000 C 
ATOM     27  C   UNL     1      36.005 -22.092 -18.258  0.00  0.00    +0.000 C 
ATOM     28  C   UNL     1      33.630 -22.413 -18.571  0.00  0.00    +0.000 C 
ATOM     29  C   UNL     1      34.821 -22.753 -17.928  0.00  0.00    +0.000 C 
ENDBRANCH  21  24
ENDBRANCH   1  18
TORSDOF 5
ENDMDL
MODEL 7
REMARK VINA RESULT:     -10.0      2.462      4.050
REMARK  Name = 444698
REMARK  5 active torsions:
REMARK  status: ('A' for Active; 'I' for Inactive)
REMARK    1  A    between atoms: S_1  and  N_4
REMARK    2  A    between atoms: S_1  and  C_18
REMARK    3  A    between atoms: C_5  and  C_15
REMARK    4  A    between atoms: C_15  and  O_16
REMARK    5  A    between atoms: C_21  and  C_24
REMARK                            x       y       z     vdW  Elec       q    Type
REMARK                         _______ _______ _______ _____ _____    ______ ____
ROOT
ATOM      1  S   UNL     1      34.254 -16.456 -25.403  0.00  0.00    +0.064 S 
ATOM      2  O   UNL     1      35.569 -16.217 -25.962  0.00  0.00    -0.153 OA
ATOM      3  O   UNL     1      33.212 -17.124 -26.155  0.00  0.00    -0.153 OA
ENDROOT
BRANCH   1   4
ATOM      4  N   UNL     1      33.646 -14.980 -24.789  0.00  0.00    -0.141 NA
ATOM      5  C   UNL     1      33.991 -13.743 -25.547  0.00  0.00    +0.182 C 
ATOM      6  C   UNL     1      34.219 -12.503 -24.679  0.00  0.00    +0.055 C 
ATOM      7  C   UNL     1      33.569 -14.870 -23.305  0.00  0.00    +0.122 C 
ATOM      8  C   UNL     1      33.256 -12.409 -23.528  0.00  0.00    -0.023 C 
ATOM      9  C   UNL     1      32.931 -13.589 -22.844  0.00  0.00    -0.008 C 
ATOM     10  C   UNL     1      32.729 -11.187 -23.099  0.00  0.00    -0.004 C 
ATOM     11  C   UNL     1      32.081 -13.541 -21.737  0.00  0.00    -0.003 C 
ATOM     12  C   UNL     1      31.869 -11.147 -22.001  0.00  0.00    -0.000 C 
ATOM     13  C   UNL     1      31.546 -12.322 -21.321  0.00  0.00    -0.000 C 
BRANCH   5  15
ATOM     14  O   UNL     1      31.749 -14.124 -26.366  0.00  0.00    -0.249 OA
ATOM     15  C   UNL     1      32.824 -13.550 -26.466  0.00  0.00    +0.330 C 
BRANCH  15  16
ATOM     16  O   UNL     1      33.120 -12.650 -27.434  0.00  0.00    -0.479 OA
ATOM     17  H   UNL     1      34.009 -12.385 -27.572  0.00  0.00    +0.295 HD
ENDBRANCH  15  16
ENDBRANCH   5  15
ENDBRANCH   1   4
BRANCH   1  18
ATOM     18  C   UNL     1      34.540 -17.542 -24.009  0.00  0.00    +0.122 C 
ATOM     19  C   UNL     1      34.837 -16.980 -22.791  0.00  0.00    +0.020 C 
ATOM     20  C   UNL     1      34.453 -18.898 -24.208  0.00  0.00    +0.020 C 
ATOM     21  C   UNL     1      34.980 -19.208 -21.871  0.00  0.00    +0.000 C 
ATOM     22  C   UNL     1      35.060 -17.826 -21.706  0.00  0.00    +0.001 C 
ATOM     23  C   UNL     1      34.677 -19.745 -23.123  0.00  0.00    +0.001 C 
BRANCH  21  24
ATOM     24  C   UNL     1      35.212 -20.086 -20.745  0.00  0.00    +0.000 C 
ATOM     25  C   UNL     1      36.507 -20.281 -20.267  0.00  0.00    +0.000 C 
ATOM     26  C   UNL     1      34.138 -20.737 -20.136  0.00  0.00    +0.000 C 
ATOM     27  C   UNL     1      36.730 -21.129 -19.181  0.00  0.00    +0.000 C 
ATOM     28  C   UNL     1      34.360 -21.583 -19.050  0.00  0.00    +0.000 C 
ATOM     29  C   UNL     1      35.657 -21.779 -18.572  0.00  0.00    +0.000 C 
ENDBRANCH  21  24
ENDBRANCH   1  18
TORSDOF 5
ENDMDL
MODEL 8
REMARK VINA RESULT:     -10.0      5.127     11.604
REMARK  Name = 444698
REMARK  5 active torsions:
REMARK  status: ('A' for Active; 'I' for Inactive)
REMARK    1  A    between atoms: S_1  and  N_4
REMARK    2  A    between atoms: S_1  and  C_18
REMARK    3  A    between atoms: C_5  and  C_15
REMARK    4  A    between atoms: C_15  and  O_16
REMARK    5  A    between atoms: C_21  and  C_24
REMARK                            x       y       z     vdW  Elec       q    Type
REMARK                         _______ _______ _______ _____ _____    ______ ____
ROOT
ATOM      1  S   UNL     1      31.498 -10.917 -20.977  0.00  0.00    +0.064 S 
ATOM      2  O   UNL     1      32.122 -10.555 -19.721  0.00  0.00    -0.153 OA
ATOM      3  O   UNL     1      30.078 -11.187 -21.076  0.00  0.00    -0.153 OA
ENDROOT
BRANCH   1   4
ATOM      4  N   UNL     1      32.367 -12.221 -21.663  0.00  0.00    -0.141 NA
ATOM      5  C   UNL     1      32.225 -12.425 -23.133  0.00  0.00    +0.182 C 
ATOM      6  C   UNL     1      32.236 -13.889 -23.581  0.00  0.00    +0.055 C 
ATOM      7  C   UNL     1      32.496 -13.440 -20.817  0.00  0.00    +0.122 C 
ATOM      8  C   UNL     1      33.226 -14.726 -22.820  0.00  0.00    -0.023 C 
ATOM      9  C   UNL     1      33.357 -14.501 -21.442  0.00  0.00    -0.008 C 
ATOM     10  C   UNL     1      33.968 -15.740 -23.434  0.00  0.00    -0.004 C 
ATOM     11  C   UNL     1      34.228 -15.290 -20.687  0.00  0.00    -0.003 C 
ATOM     12  C   UNL     1      34.846 -16.515 -22.678  0.00  0.00    -0.000 C 
ATOM     13  C   UNL     1      34.976 -16.291 -21.307  0.00  0.00    -0.000 C 
BRANCH   5  15
ATOM     14  O   UNL     1      33.331 -10.941 -24.687  0.00  0.00    -0.249 OA
ATOM     15  C   UNL     1      33.386 -11.676 -23.712  0.00  0.00    +0.330 C 
BRANCH  15  16
ATOM     16  O   UNL     1      34.516 -11.925 -23.007  0.00  0.00    -0.479 OA
ATOM     17  H   UNL     1      34.888 -12.785 -23.007  0.00  0.00    +0.295 HD
ENDBRANCH  15  16
ENDBRANCH   5  15
ENDBRANCH   1   4
BRANCH   1  18
ATOM     18  C   UNL     1      31.739  -9.494 -22.035  0.00  0.00    +0.122 C 
ATOM     19  C   UNL     1      32.869  -8.733 -21.861  0.00  0.00    +0.020 C 
ATOM     20  C   UNL     1      30.784  -9.214 -22.982  0.00  0.00    +0.020 C 
ATOM     21  C   UNL     1      32.108  -7.310 -23.658  0.00  0.00    +0.000 C 
ATOM     22  C   UNL     1      33.056  -7.624 -22.685  0.00  0.00    +0.001 C 
ATOM     23  C   UNL     1      30.972  -8.104 -23.806  0.00  0.00    +0.001 C 
BRANCH  21  24
ATOM     24  C   UNL     1      32.303  -6.158 -24.512  0.00  0.00    +0.000 C 
ATOM     25  C   UNL     1      31.351  -5.140 -24.540  0.00  0.00    +0.000 C 
ATOM     26  C   UNL     1      33.444  -6.068 -25.309  0.00  0.00    +0.000 C 
ATOM     27  C   UNL     1      31.539  -4.031 -25.365  0.00  0.00    +0.000 C 
ATOM     28  C   UNL     1      33.634  -4.958 -26.133  0.00  0.00    +0.000 C 
ATOM     29  C   UNL     1      32.680  -3.939 -26.161  0.00  0.00    +0.000 C 
ENDBRANCH  21  24
ENDBRANCH   1  18
TORSDOF 5
ENDMDL
MODEL 9
REMARK VINA RESULT:      -9.9      5.410      8.003
REMARK  Name = 444698
REMARK  5 active torsions:
REMARK  status: ('A' for Active; 'I' for Inactive)
REMARK    1  A    between atoms: S_1  and  N_4
REMARK    2  A    between atoms: S_1  and  C_18
REMARK    3  A    between atoms: C_5  and  C_15
REMARK    4  A    between atoms: C_15  and  O_16
REMARK    5  A    between atoms: C_21  and  C_24
REMARK                            x       y       z     vdW  Elec       q    Type
REMARK                         _______ _______ _______ _____ _____    ______ ____
ROOT
ATOM      1  S   UNL     1      31.681 -10.896 -20.700  0.00  0.00    +0.064 S 
ATOM      2  O   UNL     1      30.254 -11.044 -20.901  0.00  0.00    -0.153 OA
ATOM      3  O   UNL     1      32.263 -10.823 -19.376  0.00  0.00    -0.153 OA
ENDROOT
BRANCH   1   4
ATOM      4  N   UNL     1      32.228  -9.570 -21.629  0.00  0.00    -0.141 NA
ATOM      5  C   UNL     1      31.436  -8.310 -21.536  0.00  0.00    +0.182 C 
ATOM      6  C   UNL     1      31.348  -7.510 -22.838  0.00  0.00    +0.055 C 
ATOM      7  C   UNL     1      32.828  -9.899 -22.953  0.00  0.00    +0.122 C 
ATOM      8  C   UNL     1      32.639  -7.505 -23.609  0.00  0.00    -0.023 C 
ATOM      9  C   UNL     1      33.377  -8.696 -23.665  0.00  0.00    -0.008 C 
ATOM     10  C   UNL     1      33.085  -6.375 -24.303  0.00  0.00    -0.004 C 
ATOM     11  C   UNL     1      34.556  -8.751 -24.413  0.00  0.00    -0.003 C 
ATOM     12  C   UNL     1      34.270  -6.432 -25.036  0.00  0.00    -0.000 C 
ATOM     13  C   UNL     1      35.004  -7.617 -25.092  0.00  0.00    -0.000 C 
BRANCH   5  15
ATOM     14  O   UNL     1      32.855  -8.006 -19.603  0.00  0.00    -0.249 OA
ATOM     15  C   UNL     1      32.136  -7.526 -20.468  0.00  0.00    +0.330 C 
BRANCH  15  16
ATOM     16  O   UNL     1      31.862  -6.204 -20.586  0.00  0.00    -0.479 OA
ATOM     17  H   UNL     1      31.846  -5.660 -19.823  0.00  0.00    +0.295 HD
ENDBRANCH  15  16
ENDBRANCH   5  15
ENDBRANCH   1   4
BRANCH   1  18
ATOM     18  C   UNL     1      32.398 -12.379 -21.402  0.00  0.00    +0.122 C 
ATOM     19  C   UNL     1      32.516 -13.490 -20.604  0.00  0.00    +0.020 C 
ATOM     20  C   UNL     1      32.804 -12.350 -22.714  0.00  0.00    +0.020 C 
ATOM     21  C   UNL     1      33.498 -14.652 -22.480  0.00  0.00    +0.000 C 
ATOM     22  C   UNL     1      33.075 -14.644 -21.151  0.00  0.00    +0.001 C 
ATOM     23  C   UNL     1      33.363 -13.504 -23.261  0.00  0.00    +0.001 C 
BRANCH  21  24
ATOM     24  C   UNL     1      34.078 -15.850 -23.047  0.00  0.00    +0.000 C 
ATOM     25  C   UNL     1      34.744 -16.760 -22.226  0.00  0.00    +0.000 C 
ATOM     26  C   UNL     1      33.971 -16.094 -24.416  0.00  0.00    +0.000 C 
ATOM     27  C   UNL     1      35.303 -17.914 -22.775  0.00  0.00    +0.000 C 
ATOM     28  C   UNL     1      34.530 -17.249 -24.965  0.00  0.00    +0.000 C 
ATOM     29  C   UNL     1      35.196 -18.159 -24.143  0.00  0.00    +0.000 C 
ENDBRANCH  21  24
ENDBRANCH   1  18
TORSDOF 5
ENDMDL
