MODEL 1
REMARK VINA RESULT:      -9.8      0.000      0.000
REMARK  Name = 28718
REMARK  3 active torsions:
REMARK  status: ('A' for Active; 'I' for Inactive)
REMARK    1  A    between atoms: N_1  and  C_4
REMARK    2  A    between atoms: C_13  and  C_18
REMARK    3  A    between atoms: C_18  and  O_19
REMARK                            x       y       z     vdW  Elec       q    Type
REMARK                         _______ _______ _______ _____ _____    ______ ____
ROOT
ATOM      1  N   UNL     1      34.515 -18.631 -22.108  0.00  0.00    -0.298 N 
ATOM      2  H   UNL     1      34.087 -19.068 -22.880  0.00  0.00    +0.154 HD
ATOM      3  N   UNL     1      34.480 -16.529 -21.015  0.00  0.00    -0.229 NA
ATOM      4  C   UNL     1      34.513 -17.227 -22.177  0.00  0.00    +0.138 C 
ATOM      5  C   UNL     1      34.544 -16.621 -23.430  0.00  0.00    +0.107 C 
ATOM      6  C   UNL     1      34.541 -15.232 -23.490  0.00  0.00    +0.011 C 
ATOM      7  C   UNL     1      34.509 -14.491 -22.315  0.00  0.00    +0.021 C 
ATOM      8  C   UNL     1      34.479 -15.180 -21.113  0.00  0.00    +0.100 C 
ENDROOT
BRANCH   1  10
ATOM      9 CL   UNL     1      33.633 -22.327 -18.602  0.00  0.00    -0.083 Cl
ATOM     10  C   UNL     1      35.013 -19.539 -21.147  0.00  0.00    +0.046 C 
ATOM     11  C   UNL     1      34.151 -20.380 -20.441  0.00  0.00    +0.002 C 
ATOM     12  C   UNL     1      36.386 -19.588 -20.907  0.00  0.00    +0.014 C 
ATOM     13  C   UNL     1      34.664 -21.270 -19.497  0.00  0.00    +0.055 C 
ATOM     14  C   UNL     1      32.679 -20.318 -20.706  0.00  0.00    +0.033 C 
ATOM     15  C   UNL     1      36.898 -20.478 -19.964  0.00  0.00    +0.002 C 
ATOM     16  C   UNL     1      36.038 -21.319 -19.258  0.00  0.00    +0.011 C 
ENDBRANCH   1  10
BRANCH   5  18
ATOM     17  O   UNL     1      34.313 -18.590 -24.768  0.00  0.00    -0.245 OA
ATOM     18  C   UNL     1      34.578 -17.389 -24.667  0.00  0.00    +0.341 C 
BRANCH  18  19
ATOM     19  O   UNL     1      34.939 -16.632 -25.738  0.00  0.00    -0.477 OA
ATOM     20  H   UNL     1      35.717 -16.841 -26.217  0.00  0.00    +0.295 HD
ENDBRANCH  18  19
ENDBRANCH   5  18
TORSDOF 3
ENDMDL
MODEL 2
REMARK VINA RESULT:      -9.1      1.772      2.523
REMARK  Name = 28718
REMARK  3 active torsions:
REMARK  status: ('A' for Active; 'I' for Inactive)
REMARK    1  A    between atoms: N_1  and  C_4
REMARK    2  A    between atoms: C_13  and  C_18
REMARK    3  A    between atoms: C_18  and  O_19
REMARK                            x       y       z     vdW  Elec       q    Type
REMARK                         _______ _______ _______ _____ _____    ______ ____
ROOT
ATOM      1  N   UNL     1      35.579 -17.983 -21.600  0.00  0.00    -0.298 N 
ATOM      2  H   UNL     1      35.960 -17.222 -21.105  0.00  0.00    +0.154 HD
ATOM      3  N   UNL     1      35.117 -18.585 -23.845  0.00  0.00    -0.229 NA
ATOM      4  C   UNL     1      35.085 -17.641 -22.872  0.00  0.00    +0.138 C 
ATOM      5  C   UNL     1      34.589 -16.356 -23.070  0.00  0.00    +0.107 C 
ATOM      6  C   UNL     1      34.102 -16.025 -24.330  0.00  0.00    +0.011 C 
ATOM      7  C   UNL     1      34.121 -16.973 -25.347  0.00  0.00    +0.021 C 
ATOM      8  C   UNL     1      34.635 -18.227 -25.057  0.00  0.00    +0.100 C 
ENDROOT
BRANCH   1  10
ATOM      9 CL   UNL     1      33.123 -21.915 -19.313  0.00  0.00    -0.083 Cl
ATOM     10  C   UNL     1      35.635 -19.204 -20.894  0.00  0.00    +0.046 C 
ATOM     11  C   UNL     1      34.466 -19.862 -20.507  0.00  0.00    +0.002 C 
ATOM     12  C   UNL     1      36.879 -19.752 -20.581  0.00  0.00    +0.014 C 
ATOM     13  C   UNL     1      34.544 -21.069 -19.809  0.00  0.00    +0.055 C 
ATOM     14  C   UNL     1      33.136 -19.265 -20.846  0.00  0.00    +0.033 C 
ATOM     15  C   UNL     1      36.956 -20.957 -19.885  0.00  0.00    +0.002 C 
ATOM     16  C   UNL     1      35.789 -21.616 -19.499  0.00  0.00    +0.011 C 
ENDBRANCH   1  10
BRANCH   5  18
ATOM     17  O   UNL     1      34.363 -15.589 -20.816  0.00  0.00    -0.245 OA
ATOM     18  C   UNL     1      34.564 -15.357 -22.011  0.00  0.00    +0.341 C 
BRANCH  18  19
ATOM     19  O   UNL     1      34.794 -14.100 -22.478  0.00  0.00    -0.477 OA
ATOM     20  H   UNL     1      34.321 -13.784 -23.223  0.00  0.00    +0.295 HD
ENDBRANCH  18  19
ENDBRANCH   5  18
TORSDOF 3
ENDMDL
MODEL 3
REMARK VINA RESULT:      -9.0      2.084      3.194
REMARK  Name = 28718
REMARK  3 active torsions:
REMARK  status: ('A' for Active; 'I' for Inactive)
REMARK    1  A    between atoms: N_1  and  C_4
REMARK    2  A    between atoms: C_13  and  C_18
REMARK    3  A    between atoms: C_18  and  O_19
REMARK                            x       y       z     vdW  Elec       q    Type
REMARK                         _______ _______ _______ _____ _____    ______ ____
ROOT
ATOM      1  N   UNL     1      34.536 -17.571 -21.603  0.00  0.00    -0.298 N 
ATOM      2  H   UNL     1      34.753 -16.851 -20.966  0.00  0.00    +0.154 HD
ATOM      3  N   UNL     1      34.716 -17.997 -23.926  0.00  0.00    -0.229 NA
ATOM      4  C   UNL     1      34.401 -17.131 -22.931  0.00  0.00    +0.138 C 
ATOM      5  C   UNL     1      33.954 -15.834 -23.162  0.00  0.00    +0.107 C 
ATOM      6  C   UNL     1      33.824 -15.406 -24.479  0.00  0.00    +0.011 C 
ATOM      7  C   UNL     1      34.138 -16.273 -25.519  0.00  0.00    +0.021 C 
ATOM      8  C   UNL     1      34.576 -17.546 -25.194  0.00  0.00    +0.100 C 
ENDROOT
BRANCH   1  10
ATOM      9 CL   UNL     1      36.791 -21.797 -19.658  0.00  0.00    -0.083 Cl
ATOM     10  C   UNL     1      34.420 -18.843 -21.001  0.00  0.00    +0.046 C 
ATOM     11  C   UNL     1      35.553 -19.588 -20.673  0.00  0.00    +0.002 C 
ATOM     12  C   UNL     1      33.149 -19.354 -20.736  0.00  0.00    +0.014 C 
ATOM     13  C   UNL     1      35.415 -20.843 -20.079  0.00  0.00    +0.055 C 
ATOM     14  C   UNL     1      36.912 -19.030 -20.963  0.00  0.00    +0.033 C 
ATOM     15  C   UNL     1      33.011 -20.609 -20.142  0.00  0.00    +0.002 C 
ATOM     16  C   UNL     1      34.144 -21.353 -19.813  0.00  0.00    +0.011 C 
ENDBRANCH   1  10
BRANCH   5  18
ATOM     17  O   UNL     1      34.406 -14.529 -21.209  0.00  0.00    -0.245 OA
ATOM     18  C   UNL     1      33.622 -14.919 -22.079  0.00  0.00    +0.341 C 
BRANCH  18  19
ATOM     19  O   UNL     1      32.322 -14.519 -22.117  0.00  0.00    -0.477 OA
ATOM     20  H   UNL     1      32.086 -13.665 -21.810  0.00  0.00    +0.295 HD
ENDBRANCH  18  19
ENDBRANCH   5  18
TORSDOF 3
ENDMDL
MODEL 4
REMARK VINA RESULT:      -9.0      7.251     10.207
REMARK  Name = 28718
REMARK  3 active torsions:
REMARK  status: ('A' for Active; 'I' for Inactive)
REMARK    1  A    between atoms: N_1  and  C_4
REMARK    2  A    between atoms: C_13  and  C_18
REMARK    3  A    between atoms: C_18  and  O_19
REMARK                            x       y       z     vdW  Elec       q    Type
REMARK                         _______ _______ _______ _____ _____    ______ ____
ROOT
ATOM      1  N   UNL     1      34.959 -23.665 -15.184  0.00  0.00    -0.298 N 
ATOM      2  H   UNL     1      34.441 -23.226 -14.471  0.00  0.00    +0.154 HD
ATOM      3  N   UNL     1      36.018 -25.747 -15.583  0.00  0.00    -0.229 NA
ATOM      4  C   UNL     1      35.766 -24.723 -14.730  0.00  0.00    +0.138 C 
ATOM      5  C   UNL     1      36.266 -24.670 -13.433  0.00  0.00    +0.107 C 
ATOM      6  C   UNL     1      37.063 -25.721 -12.991  0.00  0.00    +0.011 C 
ATOM      7  C   UNL     1      37.339 -26.783 -13.844  0.00  0.00    +0.021 C 
ATOM      8  C   UNL     1      36.797 -26.750 -15.119  0.00  0.00    +0.100 C 
ENDROOT
BRANCH   1  10
ATOM      9 CL   UNL     1      36.763 -21.006 -19.234  0.00  0.00    -0.083 Cl
ATOM     10  C   UNL     1      34.746 -23.107 -16.464  0.00  0.00    +0.046 C 
ATOM     11  C   UNL     1      35.764 -22.414 -17.122  0.00  0.00    +0.002 C 
ATOM     12  C   UNL     1      33.499 -23.254 -17.070  0.00  0.00    +0.014 C 
ATOM     13  C   UNL     1      35.532 -21.870 -18.386  0.00  0.00    +0.055 C 
ATOM     14  C   UNL     1      37.098 -22.260 -16.461  0.00  0.00    +0.033 C 
ATOM     15  C   UNL     1      33.268 -22.711 -18.334  0.00  0.00    +0.002 C 
ATOM     16  C   UNL     1      34.285 -22.019 -18.992  0.00  0.00    +0.011 C 
ENDBRANCH   1  10
BRANCH   5  18
ATOM     17  O   UNL     1      36.811 -22.740 -12.130  0.00  0.00    -0.245 OA
ATOM     18  C   UNL     1      35.983 -23.562 -12.532  0.00  0.00    +0.341 C 
BRANCH  18  19
ATOM     19  O   UNL     1      34.674 -23.514 -12.163  0.00  0.00    -0.477 OA
ATOM     20  H   UNL     1      34.187 -22.721 -12.270  0.00  0.00    +0.295 HD
ENDBRANCH  18  19
ENDBRANCH   5  18
TORSDOF 3
ENDMDL
MODEL 5
REMARK VINA RESULT:      -8.9      1.104      2.027
REMARK  Name = 28718
REMARK  3 active torsions:
REMARK  status: ('A' for Active; 'I' for Inactive)
REMARK    1  A    between atoms: N_1  and  C_4
REMARK    2  A    between atoms: C_13  and  C_18
REMARK    3  A    between atoms: C_18  and  O_19
REMARK                            x       y       z     vdW  Elec       q    Type
REMARK                         _______ _______ _______ _____ _____    ______ ____
ROOT
ATOM      1  N   UNL     1      33.957 -18.650 -22.038  0.00  0.00    -0.298 N 
ATOM      2  H   UNL     1      33.741 -18.984 -22.939  0.00  0.00    +0.154 HD
ATOM      3  N   UNL     1      33.794 -16.633 -20.807  0.00  0.00    -0.229 NA
ATOM      4  C   UNL     1      34.107 -17.254 -21.971  0.00  0.00    +0.138 C 
ATOM      5  C   UNL     1      34.569 -16.579 -23.096  0.00  0.00    +0.107 C 
ATOM      6  C   UNL     1      34.715 -15.197 -23.022  0.00  0.00    +0.011 C 
ATOM      7  C   UNL     1      34.402 -14.534 -21.841  0.00  0.00    +0.021 C 
ATOM      8  C   UNL     1      33.949 -15.290 -20.772  0.00  0.00    +0.100 C 
ENDROOT
BRANCH   1  10
ATOM      9 CL   UNL     1      36.881 -21.535 -18.899  0.00  0.00    -0.083 Cl
ATOM     10  C   UNL     1      34.056 -19.670 -21.066  0.00  0.00    +0.046 C 
ATOM     11  C   UNL     1      35.294 -20.039 -20.538  0.00  0.00    +0.002 C 
ATOM     12  C   UNL     1      32.895 -20.312 -20.635  0.00  0.00    +0.014 C 
ATOM     13  C   UNL     1      35.370 -21.049 -19.578  0.00  0.00    +0.055 C 
ATOM     14  C   UNL     1      36.534 -19.344 -21.008  0.00  0.00    +0.033 C 
ATOM     15  C   UNL     1      32.971 -21.321 -19.676  0.00  0.00    +0.002 C 
ATOM     16  C   UNL     1      34.208 -21.690 -19.147  0.00  0.00    +0.011 C 
ENDBRANCH   1  10
BRANCH   5  18
ATOM     17  O   UNL     1      34.464 -16.969 -25.454  0.00  0.00    -0.245 OA
ATOM     18  C   UNL     1      34.899 -17.265 -24.338  0.00  0.00    +0.341 C 
BRANCH  18  19
ATOM     19  O   UNL     1      35.763 -18.298 -24.145  0.00  0.00    -0.477 OA
ATOM     20  H   UNL     1      36.347 -18.289 -23.412  0.00  0.00    +0.295 HD
ENDBRANCH  18  19
ENDBRANCH   5  18
TORSDOF 3
ENDMDL
MODEL 6
REMARK VINA RESULT:      -8.9      4.055      5.779
REMARK  Name = 28718
REMARK  3 active torsions:
REMARK  status: ('A' for Active; 'I' for Inactive)
REMARK    1  A    between atoms: N_1  and  C_4
REMARK    2  A    between atoms: C_13  and  C_18
REMARK    3  A    between atoms: C_18  and  O_19
REMARK                            x       y       z     vdW  Elec       q    Type
REMARK                         _______ _______ _______ _____ _____    ______ ____
ROOT
ATOM      1  N   UNL     1      33.786 -13.432 -23.683  0.00  0.00    -0.298 N 
ATOM      2  H   UNL     1      34.138 -13.333 -24.597  0.00  0.00    +0.154 HD
ATOM      3  N   UNL     1      32.036 -12.549 -22.351  0.00  0.00    -0.229 NA
ATOM      4  C   UNL     1      33.035 -12.328 -23.242  0.00  0.00    +0.138 C 
ATOM      5  C   UNL     1      33.349 -11.067 -23.739  0.00  0.00    +0.107 C 
ATOM      6  C   UNL     1      32.600  -9.980 -23.299  0.00  0.00    +0.011 C 
ATOM      7  C   UNL     1      31.572 -10.177 -22.385  0.00  0.00    +0.021 C 
ATOM      8  C   UNL     1      31.331 -11.468 -21.945  0.00  0.00    +0.100 C 
ENDROOT
BRANCH   1  10
ATOM      9 CL   UNL     1      34.656 -18.513 -24.067  0.00  0.00    -0.083 Cl
ATOM     10  C   UNL     1      34.137 -14.655 -23.070  0.00  0.00    +0.046 C 
ATOM     11  C   UNL     1      34.208 -15.834 -23.812  0.00  0.00    +0.002 C 
ATOM     12  C   UNL     1      34.412 -14.674 -21.702  0.00  0.00    +0.014 C 
ATOM     13  C   UNL     1      34.557 -17.032 -23.186  0.00  0.00    +0.055 C 
ATOM     14  C   UNL     1      33.909 -15.803 -25.278  0.00  0.00    +0.033 C 
ATOM     15  C   UNL     1      34.761 -15.870 -21.077  0.00  0.00    +0.002 C 
ATOM     16  C   UNL     1      34.833 -17.050 -21.819  0.00  0.00    +0.011 C 
ENDBRANCH   1  10
BRANCH   5  18
ATOM     17  O   UNL     1      34.446 -11.280 -25.854  0.00  0.00    -0.245 OA
ATOM     18  C   UNL     1      34.424 -10.851 -24.697  0.00  0.00    +0.341 C 
BRANCH  18  19
ATOM     19  O   UNL     1      35.437 -10.105 -24.180  0.00  0.00    -0.477 OA
ATOM     20  H   UNL     1      36.005  -9.626 -24.752  0.00  0.00    +0.295 HD
ENDBRANCH  18  19
ENDBRANCH   5  18
TORSDOF 3
ENDMDL
MODEL 7
REMARK VINA RESULT:      -8.8      7.127     10.097
REMARK  Name = 28718
REMARK  3 active torsions:
REMARK  status: ('A' for Active; 'I' for Inactive)
REMARK    1  A    between atoms: N_1  and  C_4
REMARK    2  A    between atoms: C_13  and  C_18
REMARK    3  A    between atoms: C_18  and  O_19
REMARK                            x       y       z     vdW  Elec       q    Type
REMARK                         _______ _______ _______ _____ _____    ______ ____
ROOT
ATOM      1  N   UNL     1      35.494 -23.418 -15.169  0.00  0.00    -0.298 N 
ATOM      2  H   UNL     1      34.883 -22.963 -14.544  0.00  0.00    +0.154 HD
ATOM      3  N   UNL     1      36.414 -25.577 -15.493  0.00  0.00    -0.229 NA
ATOM      4  C   UNL     1      36.089 -24.576 -14.638  0.00  0.00    +0.138 C 
ATOM      5  C   UNL     1      36.315 -24.640 -13.266  0.00  0.00    +0.107 C 
ATOM      6  C   UNL     1      36.904 -25.788 -12.749  0.00  0.00    +0.011 C 
ATOM      7  C   UNL     1      37.249 -26.830 -13.602  0.00  0.00    +0.021 C 
ATOM      8  C   UNL     1      36.986 -26.678 -14.953  0.00  0.00    +0.100 C 
ENDROOT
BRANCH   1  10
ATOM      9 CL   UNL     1      33.333 -22.032 -19.656  0.00  0.00    -0.083 Cl
ATOM     10  C   UNL     1      35.601 -22.778 -16.424  0.00  0.00    +0.046 C 
ATOM     11  C   UNL     1      34.519 -22.740 -17.304  0.00  0.00    +0.002 C 
ATOM     12  C   UNL     1      36.810 -22.181 -16.779  0.00  0.00    +0.014 C 
ATOM     13  C   UNL     1      34.647 -22.102 -18.539  0.00  0.00    +0.055 C 
ATOM     14  C   UNL     1      33.226 -23.385 -16.913  0.00  0.00    +0.033 C 
ATOM     15  C   UNL     1      36.938 -21.543 -18.013  0.00  0.00    +0.002 C 
ATOM     16  C   UNL     1      35.856 -21.504 -18.893  0.00  0.00    +0.011 C 
ENDBRANCH   1  10
BRANCH   5  18
ATOM     17  O   UNL     1      36.751 -22.755 -11.860  0.00  0.00    -0.245 OA
ATOM     18  C   UNL     1      35.957 -23.553 -12.365  0.00  0.00    +0.341 C 
BRANCH  18  19
ATOM     19  O   UNL     1      34.619 -23.497 -12.126  0.00  0.00    -0.477 OA
ATOM     20  H   UNL     1      34.013 -23.758 -12.792  0.00  0.00    +0.295 HD
ENDBRANCH  18  19
ENDBRANCH   5  18
TORSDOF 3
ENDMDL
MODEL 8
REMARK VINA RESULT:      -8.8      3.289      5.967
REMARK  Name = 28718
REMARK  3 active torsions:
REMARK  status: ('A' for Active; 'I' for Inactive)
REMARK    1  A    between atoms: N_1  and  C_4
REMARK    2  A    between atoms: C_13  and  C_18
REMARK    3  A    between atoms: C_18  and  O_19
REMARK                            x       y       z     vdW  Elec       q    Type
REMARK                         _______ _______ _______ _____ _____    ______ ____
ROOT
ATOM      1  N   UNL     1      34.326 -19.317 -21.358  0.00  0.00    -0.298 N 
ATOM      2  H   UNL     1      33.499 -19.784 -21.619  0.00  0.00    +0.154 HD
ATOM      3  N   UNL     1      36.489 -19.856 -20.555  0.00  0.00    -0.229 NA
ATOM      4  C   UNL     1      35.150 -20.062 -20.496  0.00  0.00    +0.138 C 
ATOM      5  C   UNL     1      34.555 -20.973 -19.628  0.00  0.00    +0.107 C 
ATOM      6  C   UNL     1      35.377 -21.707 -18.779  0.00  0.00    +0.011 C 
ATOM      7  C   UNL     1      36.753 -21.515 -18.817  0.00  0.00    +0.021 C 
ATOM      8  C   UNL     1      37.255 -20.587 -19.714  0.00  0.00    +0.100 C 
ENDROOT
BRANCH   1  10
ATOM      9 CL   UNL     1      34.929 -16.324 -25.530  0.00  0.00    -0.083 Cl
ATOM     10  C   UNL     1      34.451 -18.028 -21.922  0.00  0.00    +0.046 C 
ATOM     11  C   UNL     1      34.610 -17.859 -23.298  0.00  0.00    +0.002 C 
ATOM     12  C   UNL     1      34.415 -16.914 -21.082  0.00  0.00    +0.014 C 
ATOM     13  C   UNL     1      34.731 -16.576 -23.833  0.00  0.00    +0.055 C 
ATOM     14  C   UNL     1      34.648 -19.062 -24.189  0.00  0.00    +0.033 C 
ATOM     15  C   UNL     1      34.536 -15.633 -21.618  0.00  0.00    +0.002 C 
ATOM     16  C   UNL     1      34.694 -15.464 -22.994  0.00  0.00    +0.011 C 
ENDBRANCH   1  10
BRANCH   5  18
ATOM     17  O   UNL     1      32.262 -20.308 -19.769  0.00  0.00    -0.245 OA
ATOM     18  C   UNL     1      33.114 -21.180 -19.581  0.00  0.00    +0.341 C 
BRANCH  18  19
ATOM     19  O   UNL     1      32.785 -22.470 -19.303  0.00  0.00    -0.477 OA
ATOM     20  H   UNL     1      32.782 -23.110 -19.988  0.00  0.00    +0.295 HD
ENDBRANCH  18  19
ENDBRANCH   5  18
TORSDOF 3
ENDMDL
MODEL 9
REMARK VINA RESULT:      -8.8      3.224      5.956
REMARK  Name = 28718
REMARK  3 active torsions:
REMARK  status: ('A' for Active; 'I' for Inactive)
REMARK    1  A    between atoms: N_1  and  C_4
REMARK    2  A    between atoms: C_13  and  C_18
REMARK    3  A    between atoms: C_18  and  O_19
REMARK                            x       y       z     vdW  Elec       q    Type
REMARK                         _______ _______ _______ _____ _____    ______ ____
ROOT
ATOM      1  N   UNL     1      35.182 -18.140 -21.588  0.00  0.00    -0.298 N 
ATOM      2  H   UNL     1      35.970 -17.792 -21.111  0.00  0.00    +0.154 HD
ATOM      3  N   UNL     1      33.259 -19.445 -21.124  0.00  0.00    -0.229 NA
ATOM      4  C   UNL     1      34.594 -19.260 -20.974  0.00  0.00    +0.138 C 
ATOM      5  C   UNL     1      35.407 -20.121 -20.242  0.00  0.00    +0.107 C 
ATOM      6  C   UNL     1      34.818 -21.226 -19.637  0.00  0.00    +0.011 C 
ATOM      7  C   UNL     1      33.452 -21.442 -19.775  0.00  0.00    +0.021 C 
ATOM      8  C   UNL     1      32.723 -20.531 -20.522  0.00  0.00    +0.100 C 
ENDROOT
BRANCH   1  10
ATOM      9 CL   UNL     1      33.748 -13.706 -23.828  0.00  0.00    -0.083 Cl
ATOM     10  C   UNL     1      34.864 -17.416 -22.759  0.00  0.00    +0.046 C 
ATOM     11  C   UNL     1      34.506 -16.069 -22.694  0.00  0.00    +0.002 C 
ATOM     12  C   UNL     1      34.910 -18.067 -23.992  0.00  0.00    +0.014 C 
ATOM     13  C   UNL     1      34.196 -15.373 -23.864  0.00  0.00    +0.055 C 
ATOM     14  C   UNL     1      34.458 -15.381 -21.366  0.00  0.00    +0.033 C 
ATOM     15  C   UNL     1      34.601 -17.371 -25.160  0.00  0.00    +0.002 C 
ATOM     16  C   UNL     1      34.244 -16.024 -25.096  0.00  0.00    +0.011 C 
ENDBRANCH   1  10
BRANCH   5  18
ATOM     17  O   UNL     1      37.593 -19.485 -20.974  0.00  0.00    -0.245 OA
ATOM     18  C   UNL     1      36.839 -19.903 -20.092  0.00  0.00    +0.341 C 
BRANCH  18  19
ATOM     19  O   UNL     1      37.282 -20.213 -18.844  0.00  0.00    -0.477 OA
ATOM     20  H   UNL     1      37.185 -21.086 -18.516  0.00  0.00    +0.295 HD
ENDBRANCH  18  19
ENDBRANCH   5  18
TORSDOF 3
ENDMDL
