MODEL 1
REMARK VINA RESULT:      -8.7      0.000      0.000
REMARK  Name = 5281081
REMARK  8 active torsions:
REMARK  status: ('A' for Active; 'I' for Inactive)
REMARK    1  A    between atoms: C_1  and  C_15
REMARK    2  A    between atoms: C_4  and  N_9
REMARK    3  A    between atoms: C_5  and  O_10
REMARK    4  A    between atoms: C_6  and  O_12
REMARK    5  A    between atoms: C_14  and  C_18
REMARK    6  A    between atoms: C_14  and  C_24
REMARK    7  A    between atoms: N_17  and  C_19
REMARK    8  A    between atoms: N_17  and  C_21
REMARK                            x       y       z     vdW  Elec       q    Type
REMARK                         _______ _______ _______ _____ _____    ______ ____
ROOT
ATOM      1  C   UNL     1      34.829 -23.605 -15.419  0.00  0.00    +0.006 C 
ATOM      2  C   UNL     1      35.321 -24.889 -15.235  0.00  0.00    +0.027 C 
ATOM      3  C   UNL     1      35.683 -22.520 -15.547  0.00  0.00    +0.040 C 
ATOM      4  C   UNL     1      36.700 -25.092 -15.178  0.00  0.00    +0.179 C 
ATOM      5  C   UNL     1      37.062 -22.724 -15.490  0.00  0.00    +0.169 C 
ATOM      6  C   UNL     1      37.570 -24.010 -15.305  0.00  0.00    +0.190 C 
ENDROOT
BRANCH   4   9
ATOM      7  O   UNL     1      36.948 -27.285 -15.849  0.00  0.00    -0.126 OA
ATOM      8  O   UNL     1      37.877 -26.657 -13.961  0.00  0.00    -0.126 OA
ATOM      9  N   UNL     1      37.199 -26.410 -14.986  0.00  0.00    +0.061 N 
ENDBRANCH   4   9
BRANCH   5  10
ATOM     10  O   UNL     1      37.901 -21.658 -15.616  0.00  0.00    -0.503 OA
ATOM     11  H   UNL     1      38.180 -21.189 -14.855  0.00  0.00    +0.292 HD
ENDBRANCH   5  10
BRANCH   6  12
ATOM     12  O   UNL     1      38.921 -24.197 -15.250  0.00  0.00    -0.502 OA
ATOM     13  H   UNL     1      39.499 -23.531 -15.569  0.00  0.00    +0.292 HD
ENDBRANCH   6  12
BRANCH   1  15
ATOM     14  C   UNL     1      32.629 -23.281 -16.595  0.00  0.00    +0.122 C 
ATOM     15  C   UNL     1      33.376 -23.391 -15.481  0.00  0.00    +0.015 C 
BRANCH  14  18
ATOM     16  O   UNL     1      30.712 -22.090 -17.209  0.00  0.00    -0.269 OA
ATOM     17  N   UNL     1      30.410 -23.817 -15.672  0.00  0.00    -0.276 N 
ATOM     18  C   UNL     1      31.166 -23.005 -16.520  0.00  0.00    +0.259 C 
BRANCH  17  19
ATOM     19  C   UNL     1      28.973 -23.594 -15.568  0.00  0.00    +0.094 C 
ATOM     20  C   UNL     1      28.226 -24.249 -16.711  0.00  0.00    +0.023 C 
ENDBRANCH  17  19
BRANCH  17  21
ATOM     21  C   UNL     1      30.932 -24.914 -14.861  0.00  0.00    +0.094 C 
ATOM     22  C   UNL     1      30.710 -24.667 -13.382  0.00  0.00    +0.023 C 
ENDBRANCH  17  21
ENDBRANCH  14  18
BRANCH  14  24
ATOM     23  N   UNL     1      33.723 -23.440 -18.931  0.00  0.00    -0.191 NA
ATOM     24  C   UNL     1      33.231 -23.371 -17.882  0.00  0.00    +0.105 C 
ENDBRANCH  14  24
ENDBRANCH   1  15
TORSDOF 8
ENDMDL
MODEL 2
REMARK VINA RESULT:      -8.1      2.079      2.750
REMARK  Name = 5281081
REMARK  8 active torsions:
REMARK  status: ('A' for Active; 'I' for Inactive)
REMARK    1  A    between atoms: C_1  and  C_15
REMARK    2  A    between atoms: C_4  and  N_9
REMARK    3  A    between atoms: C_5  and  O_10
REMARK    4  A    between atoms: C_6  and  O_12
REMARK    5  A    between atoms: C_14  and  C_18
REMARK    6  A    between atoms: C_14  and  C_24
REMARK    7  A    between atoms: N_17  and  C_19
REMARK    8  A    between atoms: N_17  and  C_21
REMARK                            x       y       z     vdW  Elec       q    Type
REMARK                         _______ _______ _______ _____ _____    ______ ____
ROOT
ATOM      1  C   UNL     1      35.149 -24.499 -14.431  0.00  0.00    +0.006 C 
ATOM      2  C   UNL     1      35.619 -23.916 -13.264  0.00  0.00    +0.027 C 
ATOM      3  C   UNL     1      35.927 -25.394 -15.151  0.00  0.00    +0.040 C 
ATOM      4  C   UNL     1      36.897 -24.236 -12.806  0.00  0.00    +0.179 C 
ATOM      5  C   UNL     1      37.205 -25.713 -14.692  0.00  0.00    +0.169 C 
ATOM      6  C   UNL     1      37.690 -25.135 -13.520  0.00  0.00    +0.190 C 
ENDROOT
BRANCH   4   9
ATOM      7  O   UNL     1      36.777 -23.865 -10.532  0.00  0.00    -0.126 OA
ATOM      8  O   UNL     1      38.385 -22.891 -11.667  0.00  0.00    -0.126 OA
ATOM      9  N   UNL     1      37.376 -23.634 -11.609  0.00  0.00    +0.061 N 
ENDBRANCH   4   9
BRANCH   5  10
ATOM     10  O   UNL     1      37.968 -26.593 -15.399  0.00  0.00    -0.503 OA
ATOM     11  H   UNL     1      37.925 -26.605 -16.334  0.00  0.00    +0.292 HD
ENDBRANCH   5  10
BRANCH   6  12
ATOM     12  O   UNL     1      38.942 -25.455 -13.081  0.00  0.00    -0.502 OA
ATOM     13  H   UNL     1      39.683 -24.970 -13.386  0.00  0.00    +0.292 HD
ENDBRANCH   6  12
BRANCH   1  15
ATOM     14  C   UNL     1      33.500 -23.456 -16.018  0.00  0.00    +0.122 C 
ATOM     15  C   UNL     1      33.802 -24.163 -14.914  0.00  0.00    +0.015 C 
BRANCH  14  18
ATOM     16  O   UNL     1      31.808 -22.954 -17.555  0.00  0.00    -0.269 OA
ATOM     17  N   UNL     1      31.173 -23.066 -15.314  0.00  0.00    -0.276 N 
ATOM     18  C   UNL     1      32.087 -23.134 -16.367  0.00  0.00    +0.259 C 
BRANCH  17  19
ATOM     19  C   UNL     1      29.777 -22.762 -15.601  0.00  0.00    +0.094 C 
ATOM     20  C   UNL     1      29.057 -23.960 -16.186  0.00  0.00    +0.023 C 
ENDBRANCH  17  19
BRANCH  17  21
ATOM     21  C   UNL     1      31.486 -23.291 -13.904  0.00  0.00    +0.094 C 
ATOM     22  C   UNL     1      30.691 -24.450 -13.337  0.00  0.00    +0.023 C 
ENDBRANCH  17  21
ENDBRANCH  14  18
BRANCH  14  24
ATOM     23  N   UNL     1      35.375 -22.530 -17.537  0.00  0.00    -0.191 NA
ATOM     24  C   UNL     1      34.532 -22.946 -16.856  0.00  0.00    +0.105 C 
ENDBRANCH  14  24
ENDBRANCH   1  15
TORSDOF 8
ENDMDL
MODEL 3
REMARK VINA RESULT:      -7.8      2.400      6.815
REMARK  Name = 5281081
REMARK  8 active torsions:
REMARK  status: ('A' for Active; 'I' for Inactive)
REMARK    1  A    between atoms: C_1  and  C_15
REMARK    2  A    between atoms: C_4  and  N_9
REMARK    3  A    between atoms: C_5  and  O_10
REMARK    4  A    between atoms: C_6  and  O_12
REMARK    5  A    between atoms: C_14  and  C_18
REMARK    6  A    between atoms: C_14  and  C_24
REMARK    7  A    between atoms: N_17  and  C_19
REMARK    8  A    between atoms: N_17  and  C_21
REMARK                            x       y       z     vdW  Elec       q    Type
REMARK                         _______ _______ _______ _____ _____    ______ ____
ROOT
ATOM      1  C   UNL     1      34.048 -23.528 -15.061  0.00  0.00    +0.006 C 
ATOM      2  C   UNL     1      34.162 -23.321 -16.427  0.00  0.00    +0.027 C 
ATOM      3  C   UNL     1      32.824 -23.416 -14.417  0.00  0.00    +0.040 C 
ATOM      4  C   UNL     1      33.025 -22.994 -17.167  0.00  0.00    +0.179 C 
ATOM      5  C   UNL     1      31.688 -23.090 -15.158  0.00  0.00    +0.169 C 
ATOM      6  C   UNL     1      31.788 -22.879 -16.533  0.00  0.00    +0.190 C 
ENDROOT
BRANCH   4   9
ATOM      7  O   UNL     1      33.771 -23.622 -19.258  0.00  0.00    -0.126 OA
ATOM      8  O   UNL     1      32.626 -21.757 -19.072  0.00  0.00    -0.126 OA
ATOM      9  N   UNL     1      33.147 -22.780 -18.568  0.00  0.00    +0.061 N 
ENDBRANCH   4   9
BRANCH   5  10
ATOM     10  O   UNL     1      30.486 -22.981 -14.525  0.00  0.00    -0.503 OA
ATOM     11  H   UNL     1      30.024 -23.752 -14.262  0.00  0.00    +0.292 HD
ENDBRANCH   5  10
BRANCH   6  12
ATOM     12  O   UNL     1      30.670 -22.560 -17.247  0.00  0.00    -0.502 OA
ATOM     13  H   UNL     1      30.036 -21.971 -16.886  0.00  0.00    +0.292 HD
ENDBRANCH   6  12
BRANCH   1  15
ATOM     14  C   UNL     1      36.489 -23.397 -14.469  0.00  0.00    +0.122 C 
ATOM     15  C   UNL     1      35.245 -23.873 -14.281  0.00  0.00    +0.015 C 
BRANCH  14  18
ATOM     16  O   UNL     1      37.951 -23.209 -12.653  0.00  0.00    -0.269 OA
ATOM     17  N   UNL     1      38.261 -25.054 -14.046  0.00  0.00    -0.276 N 
ATOM     18  C   UNL     1      37.633 -23.874 -13.641  0.00  0.00    +0.259 C 
BRANCH  17  19
ATOM     19  C   UNL     1      39.380 -25.568 -13.267  0.00  0.00    +0.094 C 
ATOM     20  C   UNL     1      40.543 -25.957 -14.156  0.00  0.00    +0.023 C 
ENDBRANCH  17  19
BRANCH  17  21
ATOM     21  C   UNL     1      37.885 -25.859 -15.206  0.00  0.00    +0.094 C 
ATOM     22  C   UNL     1      37.022 -27.039 -14.807  0.00  0.00    +0.023 C 
ENDBRANCH  17  21
ENDBRANCH  14  18
BRANCH  14  24
ATOM     23  N   UNL     1      36.975 -21.696 -16.354  0.00  0.00    -0.191 NA
ATOM     24  C   UNL     1      36.756 -22.461 -15.509  0.00  0.00    +0.105 C 
ENDBRANCH  14  24
ENDBRANCH   1  15
TORSDOF 8
ENDMDL
MODEL 4
REMARK VINA RESULT:      -7.8      1.804      1.977
REMARK  Name = 5281081
REMARK  8 active torsions:
REMARK  status: ('A' for Active; 'I' for Inactive)
REMARK    1  A    between atoms: C_1  and  C_15
REMARK    2  A    between atoms: C_4  and  N_9
REMARK    3  A    between atoms: C_5  and  O_10
REMARK    4  A    between atoms: C_6  and  O_12
REMARK    5  A    between atoms: C_14  and  C_18
REMARK    6  A    between atoms: C_14  and  C_24
REMARK    7  A    between atoms: N_17  and  C_19
REMARK    8  A    between atoms: N_17  and  C_21
REMARK                            x       y       z     vdW  Elec       q    Type
REMARK                         _______ _______ _______ _____ _____    ______ ____
ROOT
ATOM      1  C   UNL     1      35.436 -24.078 -14.381  0.00  0.00    +0.006 C 
ATOM      2  C   UNL     1      36.321 -25.038 -14.848  0.00  0.00    +0.027 C 
ATOM      3  C   UNL     1      35.778 -23.236 -13.333  0.00  0.00    +0.040 C 
ATOM      4  C   UNL     1      37.578 -25.158 -14.255  0.00  0.00    +0.179 C 
ATOM      5  C   UNL     1      37.035 -23.357 -12.739  0.00  0.00    +0.169 C 
ATOM      6  C   UNL     1      37.935 -24.318 -13.200  0.00  0.00    +0.190 C 
ENDROOT
BRANCH   4   9
ATOM      7  O   UNL     1      38.124 -27.348 -14.730  0.00  0.00    -0.126 OA
ATOM      8  O   UNL     1      39.607 -25.785 -15.154  0.00  0.00    -0.126 OA
ATOM      9  N   UNL     1      38.481 -26.146 -14.736  0.00  0.00    +0.061 N 
ENDBRANCH   4   9
BRANCH   5  10
ATOM     10  O   UNL     1      37.371 -22.529 -11.711  0.00  0.00    -0.503 OA
ATOM     11  H   UNL     1      36.736 -21.938 -11.359  0.00  0.00    +0.292 HD
ENDBRANCH   5  10
BRANCH   6  12
ATOM     12  O   UNL     1      39.162 -24.427 -12.611  0.00  0.00    -0.502 OA
ATOM     13  H   UNL     1      39.310 -25.080 -11.956  0.00  0.00    +0.292 HD
ENDBRANCH   6  12
BRANCH   1  15
ATOM     14  C   UNL     1      33.838 -23.368 -16.188  0.00  0.00    +0.122 C 
ATOM     15  C   UNL     1      34.113 -23.950 -15.007  0.00  0.00    +0.015 C 
BRANCH  14  18
ATOM     16  O   UNL     1      32.265 -22.965 -17.872  0.00  0.00    -0.269 OA
ATOM     17  N   UNL     1      31.416 -23.484 -15.764  0.00  0.00    -0.276 N 
ATOM     18  C   UNL     1      32.438 -23.252 -16.686  0.00  0.00    +0.259 C 
BRANCH  17  19
ATOM     19  C   UNL     1      30.028 -23.391 -16.200  0.00  0.00    +0.094 C 
ATOM     20  C   UNL     1      29.246 -22.408 -15.354  0.00  0.00    +0.023 C 
ENDBRANCH  17  19
BRANCH  17  21
ATOM     21  C   UNL     1      31.606 -23.838 -14.358  0.00  0.00    +0.094 C 
ATOM     22  C   UNL     1      30.962 -25.169 -14.029  0.00  0.00    +0.023 C 
ENDBRANCH  17  21
ENDBRANCH  14  18
BRANCH  14  24
ATOM     23  N   UNL     1      35.726 -22.325 -17.613  0.00  0.00    -0.191 NA
ATOM     24  C   UNL     1      34.879 -22.793 -16.971  0.00  0.00    +0.105 C 
ENDBRANCH  14  24
ENDBRANCH   1  15
TORSDOF 8
ENDMDL
MODEL 5
REMARK VINA RESULT:      -7.7      8.042     10.951
REMARK  Name = 5281081
REMARK  8 active torsions:
REMARK  status: ('A' for Active; 'I' for Inactive)
REMARK    1  A    between atoms: C_1  and  C_15
REMARK    2  A    between atoms: C_4  and  N_9
REMARK    3  A    between atoms: C_5  and  O_10
REMARK    4  A    between atoms: C_6  and  O_12
REMARK    5  A    between atoms: C_14  and  C_18
REMARK    6  A    between atoms: C_14  and  C_24
REMARK    7  A    between atoms: N_17  and  C_19
REMARK    8  A    between atoms: N_17  and  C_21
REMARK                            x       y       z     vdW  Elec       q    Type
REMARK                         _______ _______ _______ _____ _____    ______ ____
ROOT
ATOM      1  C   UNL     1      34.279 -16.115 -21.499  0.00  0.00    +0.006 C 
ATOM      2  C   UNL     1      34.238 -15.890 -22.867  0.00  0.00    +0.027 C 
ATOM      3  C   UNL     1      33.570 -15.312 -20.618  0.00  0.00    +0.040 C 
ATOM      4  C   UNL     1      33.470 -14.837 -23.365  0.00  0.00    +0.179 C 
ATOM      5  C   UNL     1      32.803 -14.259 -21.116  0.00  0.00    +0.169 C 
ATOM      6  C   UNL     1      32.752 -14.022 -22.490  0.00  0.00    +0.190 C 
ENDROOT
BRANCH   4   9
ATOM      7  O   UNL     1      33.448 -13.427 -25.191  0.00  0.00    -0.126 OA
ATOM      8  O   UNL     1      33.389 -15.594 -25.542  0.00  0.00    -0.126 OA
ATOM      9  N   UNL     1      33.433 -14.608 -24.768  0.00  0.00    +0.061 N 
ENDBRANCH   4   9
BRANCH   5  10
ATOM     10  O   UNL     1      32.106 -13.471 -20.250  0.00  0.00    -0.503 OA
ATOM     11  H   UNL     1      32.334 -12.568 -20.152  0.00  0.00    +0.292 HD
ENDBRANCH   5  10
BRANCH   6  12
ATOM     12  O   UNL     1      31.998 -12.988 -22.966  0.00  0.00    -0.502 OA
ATOM     13  H   UNL     1      31.287 -12.654 -22.456  0.00  0.00    +0.292 HD
ENDBRANCH   6  12
BRANCH   1  15
ATOM     14  C   UNL     1      35.354 -18.387 -21.598  0.00  0.00    +0.122 C 
ATOM     15  C   UNL     1      35.086 -17.225 -20.974  0.00  0.00    +0.015 C 
BRANCH  14  18
ATOM     16  O   UNL     1      37.373 -19.388 -20.969  0.00  0.00    -0.269 OA
ATOM     17  N   UNL     1      35.423 -20.474 -20.293  0.00  0.00    -0.276 N 
ATOM     18  C   UNL     1      36.143 -19.460 -20.929  0.00  0.00    +0.259 C 
BRANCH  17  19
ATOM     19  C   UNL     1      36.145 -21.543 -19.617  0.00  0.00    +0.094 C 
ATOM     20  C   UNL     1      36.704 -21.081 -18.287  0.00  0.00    +0.023 C 
ENDBRANCH  17  19
BRANCH  17  21
ATOM     21  C   UNL     1      33.966 -20.563 -20.225  0.00  0.00    +0.094 C 
ATOM     22  C   UNL     1      33.520 -21.794 -19.462  0.00  0.00    +0.023 C 
ENDBRANCH  17  21
ENDBRANCH  14  18
BRANCH  14  24
ATOM     23  N   UNL     1      34.421 -18.857 -23.962  0.00  0.00    -0.191 NA
ATOM     24  C   UNL     1      34.840 -18.644 -22.901  0.00  0.00    +0.105 C 
ENDBRANCH  14  24
ENDBRANCH   1  15
TORSDOF 8
ENDMDL
MODEL 6
REMARK VINA RESULT:      -7.7      1.877      2.396
REMARK  Name = 5281081
REMARK  8 active torsions:
REMARK  status: ('A' for Active; 'I' for Inactive)
REMARK    1  A    between atoms: C_1  and  C_15
REMARK    2  A    between atoms: C_4  and  N_9
REMARK    3  A    between atoms: C_5  and  O_10
REMARK    4  A    between atoms: C_6  and  O_12
REMARK    5  A    between atoms: C_14  and  C_18
REMARK    6  A    between atoms: C_14  and  C_24
REMARK    7  A    between atoms: N_17  and  C_19
REMARK    8  A    between atoms: N_17  and  C_21
REMARK                            x       y       z     vdW  Elec       q    Type
REMARK                         _______ _______ _______ _____ _____    ______ ____
ROOT
ATOM      1  C   UNL     1      34.786 -23.672 -15.392  0.00  0.00    +0.006 C 
ATOM      2  C   UNL     1      34.781 -24.311 -14.161  0.00  0.00    +0.027 C 
ATOM      3  C   UNL     1      35.972 -23.252 -15.978  0.00  0.00    +0.040 C 
ATOM      4  C   UNL     1      35.989 -24.536 -13.501  0.00  0.00    +0.179 C 
ATOM      5  C   UNL     1      37.179 -23.478 -15.317  0.00  0.00    +0.169 C 
ATOM      6  C   UNL     1      37.188 -24.120 -14.078  0.00  0.00    +0.190 C 
ENDROOT
BRANCH   4   9
ATOM      7  O   UNL     1      36.849 -26.059 -11.997  0.00  0.00    -0.126 OA
ATOM      8  O   UNL     1      35.097 -24.876 -11.402  0.00  0.00    -0.126 OA
ATOM      9  N   UNL     1      35.977 -25.190 -12.237  0.00  0.00    +0.061 N 
ENDBRANCH   4   9
BRANCH   5  10
ATOM     10  O   UNL     1      38.344 -23.067 -15.893  0.00  0.00    -0.503 OA
ATOM     11  H   UNL     1      38.542 -23.312 -16.775  0.00  0.00    +0.292 HD
ENDBRANCH   5  10
BRANCH   6  12
ATOM     12  O   UNL     1      38.376 -24.335 -13.441  0.00  0.00    -0.502 OA
ATOM     13  H   UNL     1      39.158 -23.931 -13.761  0.00  0.00    +0.292 HD
ENDBRANCH   6  12
BRANCH   1  15
ATOM     14  C   UNL     1      32.334 -23.128 -15.520  0.00  0.00    +0.122 C 
ATOM     15  C   UNL     1      33.514 -23.435 -16.089  0.00  0.00    +0.015 C 
BRANCH  14  18
ATOM     16  O   UNL     1      31.170 -22.302 -17.374  0.00  0.00    -0.269 OA
ATOM     17  N   UNL     1      29.943 -23.600 -15.874  0.00  0.00    -0.276 N 
ATOM     18  C   UNL     1      31.099 -22.970 -16.339  0.00  0.00    +0.259 C 
BRANCH  17  19
ATOM     19  C   UNL     1      28.710 -23.482 -16.642  0.00  0.00    +0.094 C 
ATOM     20  C   UNL     1      27.700 -22.601 -15.937  0.00  0.00    +0.023 C 
ENDBRANCH  17  19
BRANCH  17  21
ATOM     21  C   UNL     1      29.848 -24.405 -14.658  0.00  0.00    +0.094 C 
ATOM     22  C   UNL     1      29.699 -25.879 -14.978  0.00  0.00    +0.023 C 
ENDBRANCH  17  21
ENDBRANCH  14  18
BRANCH  14  24
ATOM     23  N   UNL     1      32.129 -22.902 -12.953  0.00  0.00    -0.191 NA
ATOM     24  C   UNL     1      32.223 -23.003 -14.106  0.00  0.00    +0.105 C 
ENDBRANCH  14  24
ENDBRANCH   1  15
TORSDOF 8
ENDMDL
MODEL 7
REMARK VINA RESULT:      -7.7      1.608      2.532
REMARK  Name = 5281081
REMARK  8 active torsions:
REMARK  status: ('A' for Active; 'I' for Inactive)
REMARK    1  A    between atoms: C_1  and  C_15
REMARK    2  A    between atoms: C_4  and  N_9
REMARK    3  A    between atoms: C_5  and  O_10
REMARK    4  A    between atoms: C_6  and  O_12
REMARK    5  A    between atoms: C_14  and  C_18
REMARK    6  A    between atoms: C_14  and  C_24
REMARK    7  A    between atoms: N_17  and  C_19
REMARK    8  A    between atoms: N_17  and  C_21
REMARK                            x       y       z     vdW  Elec       q    Type
REMARK                         _______ _______ _______ _____ _____    ______ ____
ROOT
ATOM      1  C   UNL     1      34.104 -23.518 -14.696  0.00  0.00    +0.006 C 
ATOM      2  C   UNL     1      35.130 -22.924 -15.415  0.00  0.00    +0.027 C 
ATOM      3  C   UNL     1      34.370 -24.337 -13.608  0.00  0.00    +0.040 C 
ATOM      4  C   UNL     1      36.453 -23.154 -15.037  0.00  0.00    +0.179 C 
ATOM      5  C   UNL     1      35.693 -24.567 -13.231  0.00  0.00    +0.169 C 
ATOM      6  C   UNL     1      36.735 -23.976 -13.946  0.00  0.00    +0.190 C 
ENDROOT
BRANCH   4   9
ATOM      7  O   UNL     1      37.312 -21.411 -16.280  0.00  0.00    -0.126 OA
ATOM      8  O   UNL     1      38.588 -23.160 -15.911  0.00  0.00    -0.126 OA
ATOM      9  N   UNL     1      37.503 -22.545 -15.780  0.00  0.00    +0.061 N 
ENDBRANCH   4   9
BRANCH   5  10
ATOM     10  O   UNL     1      35.954 -25.371 -12.163  0.00  0.00    -0.503 OA
ATOM     11  H   UNL     1      36.183 -26.269 -12.297  0.00  0.00    +0.292 HD
ENDBRANCH   5  10
BRANCH   6  12
ATOM     12  O   UNL     1      38.026 -24.208 -13.568  0.00  0.00    -0.502 OA
ATOM     13  H   UNL     1      38.669 -23.534 -13.660  0.00  0.00    +0.292 HD
ENDBRANCH   6  12
BRANCH   1  15
ATOM     14  C   UNL     1      32.214 -23.314 -16.342  0.00  0.00    +0.122 C 
ATOM     15  C   UNL     1      32.710 -23.275 -15.092  0.00  0.00    +0.015 C 
BRANCH  14  18
ATOM     16  O   UNL     1      30.530 -21.925 -17.184  0.00  0.00    -0.269 OA
ATOM     17  N   UNL     1      29.832 -23.927 -16.214  0.00  0.00    -0.276 N 
ATOM     18  C   UNL     1      30.785 -22.990 -16.617  0.00  0.00    +0.259 C 
BRANCH  17  19
ATOM     19  C   UNL     1      28.422 -23.662 -16.466  0.00  0.00    +0.094 C 
ATOM     20  C   UNL     1      27.916 -22.508 -15.625  0.00  0.00    +0.023 C 
ENDBRANCH  17  19
BRANCH  17  21
ATOM     21  C   UNL     1      30.121 -25.199 -15.554  0.00  0.00    +0.094 C 
ATOM     22  C   UNL     1      29.935 -25.101 -14.054  0.00  0.00    +0.023 C 
ENDBRANCH  17  21
ENDBRANCH  14  18
BRANCH  14  24
ATOM     23  N   UNL     1      33.752 -23.854 -18.348  0.00  0.00    -0.191 NA
ATOM     24  C   UNL     1      33.060 -23.613 -17.448  0.00  0.00    +0.105 C 
ENDBRANCH  14  24
ENDBRANCH   1  15
TORSDOF 8
ENDMDL
MODEL 8
REMARK VINA RESULT:      -7.6     11.717     14.346
REMARK  Name = 5281081
REMARK  8 active torsions:
REMARK  status: ('A' for Active; 'I' for Inactive)
REMARK    1  A    between atoms: C_1  and  C_15
REMARK    2  A    between atoms: C_4  and  N_9
REMARK    3  A    between atoms: C_5  and  O_10
REMARK    4  A    between atoms: C_6  and  O_12
REMARK    5  A    between atoms: C_14  and  C_18
REMARK    6  A    between atoms: C_14  and  C_24
REMARK    7  A    between atoms: N_17  and  C_19
REMARK    8  A    between atoms: N_17  and  C_21
REMARK                            x       y       z     vdW  Elec       q    Type
REMARK                         _______ _______ _______ _____ _____    ______ ____
ROOT
ATOM      1  C   UNL     1      33.385 -12.941 -23.173  0.00  0.00    +0.006 C 
ATOM      2  C   UNL     1      33.947 -11.769 -23.658  0.00  0.00    +0.027 C 
ATOM      3  C   UNL     1      32.214 -12.922 -22.430  0.00  0.00    +0.040 C 
ATOM      4  C   UNL     1      33.322 -10.550 -23.394  0.00  0.00    +0.179 C 
ATOM      5  C   UNL     1      31.590 -11.703 -22.166  0.00  0.00    +0.169 C 
ATOM      6  C   UNL     1      32.144 -10.517 -22.648  0.00  0.00    +0.190 C 
ENDROOT
BRANCH   4   9
ATOM      7  O   UNL     1      33.150  -8.403 -24.219  0.00  0.00    -0.126 OA
ATOM      8  O   UNL     1      35.151  -9.277 -23.985  0.00  0.00    -0.126 OA
ATOM      9  N   UNL     1      33.903  -9.351 -23.891  0.00  0.00    +0.061 N 
ENDBRANCH   4   9
BRANCH   5  10
ATOM     10  O   UNL     1      30.439 -11.685 -21.437  0.00  0.00    -0.503 OA
ATOM     11  H   UNL     1      29.953 -10.889 -21.349  0.00  0.00    +0.292 HD
ENDBRANCH   5  10
BRANCH   6  12
ATOM     12  O   UNL     1      31.524  -9.330 -22.383  0.00  0.00    -0.502 OA
ATOM     13  H   UNL     1      30.679  -9.323 -21.979  0.00  0.00    +0.292 HD
ENDBRANCH   6  12
BRANCH   1  15
ATOM     14  C   UNL     1      33.894 -14.979 -24.557  0.00  0.00    +0.122 C 
ATOM     15  C   UNL     1      34.042 -14.226 -23.451  0.00  0.00    +0.015 C 
BRANCH  14  18
ATOM     16  O   UNL     1      34.941 -16.649 -25.815  0.00  0.00    -0.269 OA
ATOM     17  N   UNL     1      34.758 -17.040 -23.523  0.00  0.00    -0.276 N 
ATOM     18  C   UNL     1      34.576 -16.297 -24.691  0.00  0.00    +0.259 C 
BRANCH  17  19
ATOM     19  C   UNL     1      35.426 -18.333 -23.599  0.00  0.00    +0.094 C 
ATOM     20  C   UNL     1      34.561 -19.365 -24.293  0.00  0.00    +0.023 C 
ENDBRANCH  17  19
BRANCH  17  21
ATOM     21  C   UNL     1      34.342 -16.628 -22.184  0.00  0.00    +0.094 C 
ATOM     22  C   UNL     1      35.101 -17.382 -21.111  0.00  0.00    +0.023 C 
ENDBRANCH  17  21
ENDBRANCH  14  18
BRANCH  14  24
ATOM     23  N   UNL     1      32.330 -14.213 -26.467  0.00  0.00    -0.191 NA
ATOM     24  C   UNL     1      33.030 -14.558 -25.608  0.00  0.00    +0.105 C 
ENDBRANCH  14  24
ENDBRANCH   1  15
TORSDOF 8
ENDMDL
MODEL 9
REMARK VINA RESULT:      -7.6     10.723     12.457
REMARK  Name = 5281081
REMARK  8 active torsions:
REMARK  status: ('A' for Active; 'I' for Inactive)
REMARK    1  A    between atoms: C_1  and  C_15
REMARK    2  A    between atoms: C_4  and  N_9
REMARK    3  A    between atoms: C_5  and  O_10
REMARK    4  A    between atoms: C_6  and  O_12
REMARK    5  A    between atoms: C_14  and  C_18
REMARK    6  A    between atoms: C_14  and  C_24
REMARK    7  A    between atoms: N_17  and  C_19
REMARK    8  A    between atoms: N_17  and  C_21
REMARK                            x       y       z     vdW  Elec       q    Type
REMARK                         _______ _______ _______ _____ _____    ______ ____
ROOT
ATOM      1  C   UNL     1      34.403 -15.425 -23.215  0.00  0.00    +0.006 C 
ATOM      2  C   UNL     1      34.522 -16.228 -22.091  0.00  0.00    +0.027 C 
ATOM      3  C   UNL     1      34.457 -15.964 -24.492  0.00  0.00    +0.040 C 
ATOM      4  C   UNL     1      34.700 -17.603 -22.248  0.00  0.00    +0.179 C 
ATOM      5  C   UNL     1      34.635 -17.339 -24.648  0.00  0.00    +0.169 C 
ATOM      6  C   UNL     1      34.756 -18.158 -23.525  0.00  0.00    +0.190 C 
ENDROOT
BRANCH   4   9
ATOM      7  O   UNL     1      35.890 -18.380 -20.431  0.00  0.00    -0.126 OA
ATOM      8  O   UNL     1      33.865 -19.161 -20.767  0.00  0.00    -0.126 OA
ATOM      9  N   UNL     1      34.825 -18.422 -21.091  0.00  0.00    +0.061 N 
ENDBRANCH   4   9
BRANCH   5  10
ATOM     10  O   UNL     1      34.687 -17.868 -25.902  0.00  0.00    -0.503 OA
ATOM     11  H   UNL     1      34.997 -18.743 -26.028  0.00  0.00    +0.292 HD
ENDBRANCH   5  10
BRANCH   6  12
ATOM     12  O   UNL     1      34.930 -19.502 -23.691  0.00  0.00    -0.502 OA
ATOM     13  H   UNL     1      35.492 -19.822 -24.369  0.00  0.00    +0.292 HD
ENDBRANCH   6  12
BRANCH   1  15
ATOM     14  C   UNL     1      33.577 -13.150 -23.901  0.00  0.00    +0.122 C 
ATOM     15  C   UNL     1      34.215 -13.976 -23.051  0.00  0.00    +0.015 C 
BRANCH  14  18
ATOM     16  O   UNL     1      34.266 -10.946 -24.275  0.00  0.00    -0.269 OA
ATOM     17  N   UNL     1      32.569 -11.248 -22.705  0.00  0.00    -0.276 N 
ATOM     18  C   UNL     1      33.506 -11.683 -23.644  0.00  0.00    +0.259 C 
BRANCH  17  19
ATOM     19  C   UNL     1      32.454  -9.823 -22.422  0.00  0.00    +0.094 C 
ATOM     20  C   UNL     1      31.330  -9.190 -23.217  0.00  0.00    +0.023 C 
ENDBRANCH  17  19
BRANCH  17  21
ATOM     21  C   UNL     1      31.652 -12.109 -21.961  0.00  0.00    +0.094 C 
ATOM     22  C   UNL     1      31.660 -11.781 -20.481  0.00  0.00    +0.023 C 
ENDBRANCH  17  21
ENDBRANCH  14  18
BRANCH  14  24
ATOM     23  N   UNL     1      32.533 -14.061 -26.082  0.00  0.00    -0.191 NA
ATOM     24  C   UNL     1      33.000 -13.651 -25.102  0.00  0.00    +0.105 C 
ENDBRANCH  14  24
ENDBRANCH   1  15
TORSDOF 8
ENDMDL
