MODEL 1
REMARK VINA RESULT:      -8.8      0.000      0.000
REMARK  Name = 13695
REMARK  1 active torsions:
REMARK  status: ('A' for Active; 'I' for Inactive)
REMARK    1  A    between atoms: C_5  and  N_15
REMARK                            x       y       z     vdW  Elec       q    Type
REMARK                         _______ _______ _______ _____ _____    ______ ____
ROOT
ATOM      1  C   UNL     1      33.553 -15.130 -21.987  0.00  0.00    +0.001 C 
ATOM      2  C   UNL     1      34.332 -16.331 -22.144  0.00  0.00    +0.000 C 
ATOM      3  C   UNL     1      33.114 -14.434 -23.144  0.00  0.00    +0.013 C 
ATOM      4  C   UNL     1      34.642 -16.790 -23.451  0.00  0.00    +0.001 C 
ATOM      5  C   UNL     1      33.439 -14.917 -24.414  0.00  0.00    +0.041 C 
ATOM      6  C   UNL     1      34.192 -16.078 -24.564  0.00  0.00    +0.014 C 
ATOM      7  C   UNL     1      33.185 -14.580 -20.734  0.00  0.00    +0.000 C 
ATOM      8  C   UNL     1      34.824 -17.107 -21.063  0.00  0.00    +0.000 C 
ATOM      9  C   UNL     1      32.352 -13.259 -23.024  0.00  0.00    +0.001 C 
ATOM     10  C   UNL     1      35.400 -17.959 -23.637  0.00  0.00    +0.000 C 
ATOM     11  C   UNL     1      32.426 -13.411 -20.630  0.00  0.00    +0.000 C 
ATOM     12  C   UNL     1      32.010 -12.750 -21.776  0.00  0.00    +0.000 C 
ATOM     13  C   UNL     1      35.577 -18.267 -21.263  0.00  0.00    +0.000 C 
ATOM     14  C   UNL     1      35.865 -18.693 -22.551  0.00  0.00    +0.000 C 
ENDROOT
BRANCH   5  15
ATOM     15  N   UNL     1      33.022 -14.256 -25.597  0.00  0.00    -0.357 N 
ATOM     16  H   UNL     1      33.049 -14.728 -26.460  0.00  0.00    +0.142 HD
ATOM     17  H   UNL     1      32.706 -13.325 -25.555  0.00  0.00    +0.142 HD
ENDBRANCH   5  15
TORSDOF 1
ENDMDL
MODEL 2
REMARK VINA RESULT:      -8.6      2.098      5.210
REMARK  Name = 13695
REMARK  1 active torsions:
REMARK  status: ('A' for Active; 'I' for Inactive)
REMARK    1  A    between atoms: C_5  and  N_15
REMARK                            x       y       z     vdW  Elec       q    Type
REMARK                         _______ _______ _______ _____ _____    ______ ____
ROOT
ATOM      1  C   UNL     1      34.253 -16.755 -24.257  0.00  0.00    +0.001 C 
ATOM      2  C   UNL     1      33.903 -15.448 -24.749  0.00  0.00    +0.000 C 
ATOM      3  C   UNL     1      34.578 -16.914 -22.885  0.00  0.00    +0.013 C 
ATOM      4  C   UNL     1      33.893 -14.349 -23.850  0.00  0.00    +0.001 C 
ATOM      5  C   UNL     1      34.556 -15.809 -22.030  0.00  0.00    +0.041 C 
ATOM      6  C   UNL     1      34.218 -14.546 -22.506  0.00  0.00    +0.014 C 
ATOM      7  C   UNL     1      34.296 -17.921 -25.061  0.00  0.00    +0.000 C 
ATOM      8  C   UNL     1      33.561 -15.170 -26.097  0.00  0.00    +0.000 C 
ATOM      9  C   UNL     1      34.923 -18.177 -22.374  0.00  0.00    +0.001 C 
ATOM     10  C   UNL     1      33.556 -13.061 -24.299  0.00  0.00    +0.000 C 
ATOM     11  C   UNL     1      34.641 -19.171 -24.540  0.00  0.00    +0.000 C 
ATOM     12  C   UNL     1      34.954 -19.299 -23.196  0.00  0.00    +0.000 C 
ATOM     13  C   UNL     1      33.229 -13.884 -26.530  0.00  0.00    +0.000 C 
ATOM     14  C   UNL     1      33.226 -12.828 -25.631  0.00  0.00    +0.000 C 
ENDROOT
BRANCH   5  15
ATOM     15  N   UNL     1      34.873 -15.920 -20.652  0.00  0.00    -0.357 N 
ATOM     16  H   UNL     1      34.155 -16.048 -19.991  0.00  0.00    +0.142 HD
ATOM     17  H   UNL     1      35.811 -15.870 -20.357  0.00  0.00    +0.142 HD
ENDBRANCH   5  15
TORSDOF 1
ENDMDL
MODEL 3
REMARK VINA RESULT:      -8.6      1.877      5.060
REMARK  Name = 13695
REMARK  1 active torsions:
REMARK  status: ('A' for Active; 'I' for Inactive)
REMARK    1  A    between atoms: C_5  and  N_15
REMARK                            x       y       z     vdW  Elec       q    Type
REMARK                         _______ _______ _______ _____ _____    ______ ____
ROOT
ATOM      1  C   UNL     1      33.632 -15.247 -23.333  0.00  0.00    +0.001 C 
ATOM      2  C   UNL     1      33.032 -14.270 -22.461  0.00  0.00    +0.000 C 
ATOM      3  C   UNL     1      34.378 -16.314 -22.767  0.00  0.00    +0.013 C 
ATOM      4  C   UNL     1      33.202 -14.398 -21.057  0.00  0.00    +0.001 C 
ATOM      5  C   UNL     1      34.523 -16.406 -21.380  0.00  0.00    +0.041 C 
ATOM      6  C   UNL     1      33.944 -15.461 -20.539  0.00  0.00    +0.014 C 
ATOM      7  C   UNL     1      33.529 -15.221 -24.746  0.00  0.00    +0.000 C 
ATOM      8  C   UNL     1      32.267 -13.164 -22.911  0.00  0.00    +0.000 C 
ATOM      9  C   UNL     1      34.976 -17.283 -23.591  0.00  0.00    +0.001 C 
ATOM     10  C   UNL     1      32.630 -13.461 -20.180  0.00  0.00    +0.000 C 
ATOM     11  C   UNL     1      34.128 -16.191 -25.553  0.00  0.00    +0.000 C 
ATOM     12  C   UNL     1      34.852 -17.223 -24.975  0.00  0.00    +0.000 C 
ATOM     13  C   UNL     1      31.703 -12.241 -22.028  0.00  0.00    +0.000 C 
ATOM     14  C   UNL     1      31.885 -12.388 -20.661  0.00  0.00    +0.000 C 
ENDROOT
BRANCH   5  15
ATOM     15  N   UNL     1      35.260 -17.453 -20.771  0.00  0.00    -0.357 N 
ATOM     16  H   UNL     1      35.682 -17.311 -19.893  0.00  0.00    +0.142 HD
ATOM     17  H   UNL     1      35.348 -18.322 -21.225  0.00  0.00    +0.142 HD
ENDBRANCH   5  15
TORSDOF 1
ENDMDL
MODEL 4
REMARK VINA RESULT:      -8.5      0.736      4.345
REMARK  Name = 13695
REMARK  1 active torsions:
REMARK  status: ('A' for Active; 'I' for Inactive)
REMARK    1  A    between atoms: C_5  and  N_15
REMARK                            x       y       z     vdW  Elec       q    Type
REMARK                         _______ _______ _______ _____ _____    ______ ____
ROOT
ATOM      1  C   UNL     1      34.314 -16.276 -21.963  0.00  0.00    +0.001 C 
ATOM      2  C   UNL     1      33.527 -15.074 -21.863  0.00  0.00    +0.000 C 
ATOM      3  C   UNL     1      34.656 -16.773 -23.248  0.00  0.00    +0.013 C 
ATOM      4  C   UNL     1      33.112 -14.416 -23.050  0.00  0.00    +0.001 C 
ATOM      5  C   UNL     1      34.229 -16.098 -24.394  0.00  0.00    +0.041 C 
ATOM      6  C   UNL     1      33.468 -14.937 -24.296  0.00  0.00    +0.014 C 
ATOM      7  C   UNL     1      34.782 -17.014 -20.848  0.00  0.00    +0.000 C 
ATOM      8  C   UNL     1      33.126 -14.485 -20.636  0.00  0.00    +0.000 C 
ATOM      9  C   UNL     1      35.423 -17.944 -23.379  0.00  0.00    +0.001 C 
ATOM     10  C   UNL     1      32.342 -13.242 -22.986  0.00  0.00    +0.000 C 
ATOM     11  C   UNL     1      35.544 -18.176 -20.993  0.00  0.00    +0.000 C 
ATOM     12  C   UNL     1      35.865 -18.641 -22.260  0.00  0.00    +0.000 C 
ATOM     13  C   UNL     1      32.361 -13.317 -20.586  0.00  0.00    +0.000 C 
ATOM     14  C   UNL     1      31.969 -12.695 -21.762  0.00  0.00    +0.000 C 
ENDROOT
BRANCH   5  15
ATOM     15  N   UNL     1      34.546 -16.558 -25.697  0.00  0.00    -0.357 N 
ATOM     16  H   UNL     1      33.833 -16.667 -26.368  0.00  0.00    +0.142 HD
ATOM     17  H   UNL     1      35.479 -16.767 -25.932  0.00  0.00    +0.142 HD
ENDBRANCH   5  15
TORSDOF 1
ENDMDL
MODEL 5
REMARK VINA RESULT:      -8.3      5.455      8.330
REMARK  Name = 13695
REMARK  1 active torsions:
REMARK  status: ('A' for Active; 'I' for Inactive)
REMARK    1  A    between atoms: C_5  and  N_15
REMARK                            x       y       z     vdW  Elec       q    Type
REMARK                         _______ _______ _______ _____ _____    ______ ____
ROOT
ATOM      1  C   UNL     1      35.831 -21.683 -18.229  0.00  0.00    +0.001 C 
ATOM      2  C   UNL     1      35.663 -20.888 -19.418  0.00  0.00    +0.000 C 
ATOM      3  C   UNL     1      34.720 -22.401 -17.713  0.00  0.00    +0.013 C 
ATOM      4  C   UNL     1      34.391 -20.842 -20.046  0.00  0.00    +0.001 C 
ATOM      5  C   UNL     1      33.484 -22.331 -18.360  0.00  0.00    +0.041 C 
ATOM      6  C   UNL     1      33.322 -21.563 -19.509  0.00  0.00    +0.014 C 
ATOM      7  C   UNL     1      37.052 -21.803 -17.519  0.00  0.00    +0.000 C 
ATOM      8  C   UNL     1      36.699 -20.131 -20.022  0.00  0.00    +0.000 C 
ATOM      9  C   UNL     1      34.852 -23.185 -16.554  0.00  0.00    +0.001 C 
ATOM     10  C   UNL     1      34.194 -20.076 -21.208  0.00  0.00    +0.000 C 
ATOM     11  C   UNL     1      37.169 -22.586 -16.368  0.00  0.00    +0.000 C 
ATOM     12  C   UNL     1      36.068 -23.278 -15.886  0.00  0.00    +0.000 C 
ATOM     13  C   UNL     1      36.490 -19.373 -21.177  0.00  0.00    +0.000 C 
ATOM     14  C   UNL     1      35.237 -19.346 -21.771  0.00  0.00    +0.000 C 
ENDROOT
BRANCH   5  15
ATOM     15  N   UNL     1      32.347 -23.031 -17.882  0.00  0.00    -0.357 N 
ATOM     16  H   UNL     1      31.467 -22.884 -18.299  0.00  0.00    +0.142 HD
ATOM     17  H   UNL     1      32.437 -23.664 -17.133  0.00  0.00    +0.142 HD
ENDBRANCH   5  15
TORSDOF 1
ENDMDL
MODEL 6
REMARK VINA RESULT:      -8.2      1.487      3.097
REMARK  Name = 13695
REMARK  1 active torsions:
REMARK  status: ('A' for Active; 'I' for Inactive)
REMARK    1  A    between atoms: C_5  and  N_15
REMARK                            x       y       z     vdW  Elec       q    Type
REMARK                         _______ _______ _______ _____ _____    ______ ____
ROOT
ATOM      1  C   UNL     1      33.994 -15.892 -24.059  0.00  0.00    +0.001 C 
ATOM      2  C   UNL     1      34.627 -16.821 -23.160  0.00  0.00    +0.000 C 
ATOM      3  C   UNL     1      33.351 -14.743 -23.527  0.00  0.00    +0.013 C 
ATOM      4  C   UNL     1      34.594 -16.566 -21.763  0.00  0.00    +0.001 C 
ATOM      5  C   UNL     1      33.339 -14.527 -22.147  0.00  0.00    +0.041 C 
ATOM      6  C   UNL     1      33.951 -15.425 -21.278  0.00  0.00    +0.014 C 
ATOM      7  C   UNL     1      33.965 -16.043 -25.467  0.00  0.00    +0.000 C 
ATOM      8  C   UNL     1      35.299 -17.999 -23.575  0.00  0.00    +0.000 C 
ATOM      9  C   UNL     1      32.723 -13.818 -24.378  0.00  0.00    +0.001 C 
ATOM     10  C   UNL     1      35.203 -17.454 -20.860  0.00  0.00    +0.000 C 
ATOM     11  C   UNL     1      33.337 -15.115 -26.302  0.00  0.00    +0.000 C 
ATOM     12  C   UNL     1      32.716 -14.002 -25.757  0.00  0.00    +0.000 C 
ATOM     13  C   UNL     1      35.900 -18.873 -22.667  0.00  0.00    +0.000 C 
ATOM     14  C   UNL     1      35.852 -18.600 -21.307  0.00  0.00    +0.000 C 
ENDROOT
BRANCH   5  15
ATOM     15  N   UNL     1      32.709 -13.394 -21.571  0.00  0.00    -0.357 N 
ATOM     16  H   UNL     1      32.131 -13.501 -20.781  0.00  0.00    +0.142 HD
ATOM     17  H   UNL     1      32.850 -12.501 -21.960  0.00  0.00    +0.142 HD
ENDBRANCH   5  15
TORSDOF 1
ENDMDL
MODEL 7
REMARK VINA RESULT:      -8.1      6.947      9.725
REMARK  Name = 13695
REMARK  1 active torsions:
REMARK  status: ('A' for Active; 'I' for Inactive)
REMARK    1  A    between atoms: C_5  and  N_15
REMARK                            x       y       z     vdW  Elec       q    Type
REMARK                         _______ _______ _______ _____ _____    ______ ____
ROOT
ATOM      1  C   UNL     1      35.567 -22.737 -16.758  0.00  0.00    +0.001 C 
ATOM      2  C   UNL     1      35.492 -22.052 -18.023  0.00  0.00    +0.000 C 
ATOM      3  C   UNL     1      34.387 -23.302 -16.207  0.00  0.00    +0.013 C 
ATOM      4  C   UNL     1      34.241 -21.959 -18.687  0.00  0.00    +0.001 C 
ATOM      5  C   UNL     1      33.174 -23.190 -16.891  0.00  0.00    +0.041 C 
ATOM      6  C   UNL     1      33.103 -22.528 -18.113  0.00  0.00    +0.014 C 
ATOM      7  C   UNL     1      36.758 -22.892 -16.007  0.00  0.00    +0.000 C 
ATOM      8  C   UNL     1      36.603 -21.450 -18.669  0.00  0.00    +0.000 C 
ATOM      9  C   UNL     1      34.427 -23.977 -14.975  0.00  0.00    +0.001 C 
ATOM     10  C   UNL     1      34.136 -21.297 -19.923  0.00  0.00    +0.000 C 
ATOM     11  C   UNL     1      36.783 -23.565 -14.783  0.00  0.00    +0.000 C 
ATOM     12  C   UNL     1      35.617 -24.108 -14.267  0.00  0.00    +0.000 C 
ATOM     13  C   UNL     1      36.484 -20.795 -19.896  0.00  0.00    +0.000 C 
ATOM     14  C   UNL     1      35.249 -20.718 -20.525  0.00  0.00    +0.000 C 
ENDROOT
BRANCH   5  15
ATOM     15  N   UNL     1      31.971 -23.738 -16.379  0.00  0.00    -0.357 N 
ATOM     16  H   UNL     1      31.688 -24.641 -16.650  0.00  0.00    +0.142 HD
ATOM     17  H   UNL     1      31.419 -23.216 -15.753  0.00  0.00    +0.142 HD
ENDBRANCH   5  15
TORSDOF 1
ENDMDL
MODEL 8
REMARK VINA RESULT:      -8.1      7.576     10.113
REMARK  Name = 13695
REMARK  1 active torsions:
REMARK  status: ('A' for Active; 'I' for Inactive)
REMARK    1  A    between atoms: C_5  and  N_15
REMARK                            x       y       z     vdW  Elec       q    Type
REMARK                         _______ _______ _______ _____ _____    ______ ____
ROOT
ATOM      1  C   UNL     1      34.133 -22.517 -17.634  0.00  0.00    +0.001 C 
ATOM      2  C   UNL     1      33.435 -23.128 -16.533  0.00  0.00    +0.000 C 
ATOM      3  C   UNL     1      35.540 -22.345 -17.551  0.00  0.00    +0.013 C 
ATOM      4  C   UNL     1      34.169 -23.544 -15.392  0.00  0.00    +0.001 C 
ATOM      5  C   UNL     1      36.228 -22.767 -16.411  0.00  0.00    +0.041 C 
ATOM      6  C   UNL     1      35.552 -23.357 -15.348  0.00  0.00    +0.014 C 
ATOM      7  C   UNL     1      33.505 -22.065 -18.821  0.00  0.00    +0.000 C 
ATOM      8  C   UNL     1      32.034 -23.351 -16.504  0.00  0.00    +0.000 C 
ATOM      9  C   UNL     1      36.250 -21.751 -18.609  0.00  0.00    +0.001 C 
ATOM     10  C   UNL     1      33.517 -24.144 -14.301  0.00  0.00    +0.000 C 
ATOM     11  C   UNL     1      34.223 -21.477 -19.865  0.00  0.00    +0.000 C 
ATOM     12  C   UNL     1      35.597 -21.320 -19.759  0.00  0.00    +0.000 C 
ATOM     13  C   UNL     1      31.398 -23.949 -15.414  0.00  0.00    +0.000 C 
ATOM     14  C   UNL     1      32.140 -24.346 -14.311  0.00  0.00    +0.000 C 
ENDROOT
BRANCH   5  15
ATOM     15  N   UNL     1      37.632 -22.615 -16.284  0.00  0.00    -0.357 N 
ATOM     16  H   UNL     1      38.199 -23.402 -16.115  0.00  0.00    +0.142 HD
ATOM     17  H   UNL     1      38.041 -21.723 -16.366  0.00  0.00    +0.142 HD
ENDBRANCH   5  15
TORSDOF 1
ENDMDL
MODEL 9
REMARK VINA RESULT:      -8.0      6.343      9.013
REMARK  Name = 13695
REMARK  1 active torsions:
REMARK  status: ('A' for Active; 'I' for Inactive)
REMARK    1  A    between atoms: C_5  and  N_15
REMARK                            x       y       z     vdW  Elec       q    Type
REMARK                         _______ _______ _______ _____ _____    ______ ____
ROOT
ATOM      1  C   UNL     1      34.092 -22.386 -17.735  0.00  0.00    +0.001 C 
ATOM      2  C   UNL     1      34.371 -21.589 -18.901  0.00  0.00    +0.000 C 
ATOM      3  C   UNL     1      35.162 -22.765 -16.883  0.00  0.00    +0.013 C 
ATOM      4  C   UNL     1      35.710 -21.200 -19.171  0.00  0.00    +0.001 C 
ATOM      5  C   UNL     1      36.467 -22.363 -17.182  0.00  0.00    +0.041 C 
ATOM      6  C   UNL     1      36.736 -21.593 -18.309  0.00  0.00    +0.014 C 
ATOM      7  C   UNL     1      32.798 -22.831 -17.367  0.00  0.00    +0.000 C 
ATOM      8  C   UNL     1      33.384 -21.152 -19.822  0.00  0.00    +0.000 C 
ATOM      9  C   UNL     1      34.923 -23.543 -15.738  0.00  0.00    +0.001 C 
ATOM     10  C   UNL     1      36.015 -20.422 -20.301  0.00  0.00    +0.000 C 
ATOM     11  C   UNL     1      32.573 -23.604 -16.225  0.00  0.00    +0.000 C 
ATOM     12  C   UNL     1      33.637 -23.960 -15.410  0.00  0.00    +0.000 C 
ATOM     13  C   UNL     1      33.701 -20.379 -20.941  0.00  0.00    +0.000 C 
ATOM     14  C   UNL     1      35.017 -20.013 -21.181  0.00  0.00    +0.000 C 
ENDROOT
BRANCH   5  15
ATOM     15  N   UNL     1      37.567 -22.718 -16.360  0.00  0.00    -0.357 N 
ATOM     16  H   UNL     1      37.909 -22.079 -15.693  0.00  0.00    +0.142 HD
ATOM     17  H   UNL     1      37.988 -23.602 -16.456  0.00  0.00    +0.142 HD
ENDBRANCH   5  15
TORSDOF 1
ENDMDL
