MODEL 1
REMARK VINA RESULT:      -9.3      0.000      0.000
REMARK  Name = 6741
REMARK  5 active torsions:
REMARK  status: ('A' for Active; 'I' for Inactive)
REMARK    1  A    between atoms: C_6  and  O_22
REMARK    2  A    between atoms: C_6  and  C_27
REMARK    3  A    between atoms: C_8  and  O_24
REMARK    4  A    between atoms: C_27  and  C_28
REMARK    5  A    between atoms: C_28  and  O_29
REMARK                            x       y       z     vdW  Elec       q    Type
REMARK                         _______ _______ _______ _____ _____    ______ ____
ROOT
ATOM      1  O   UNL     1      39.391 -26.579 -14.625  0.00  0.00    -0.287 OA
ATOM      2  C   UNL     1      31.710 -23.712 -14.884  0.00  0.00    +0.031 C 
ATOM      3  C   UNL     1      32.840 -23.503 -15.915  0.00  0.00    +0.003 C 
ATOM      4  C   UNL     1      34.201 -23.182 -15.279  0.00  0.00    +0.003 C 
ATOM      5  C   UNL     1      34.621 -24.379 -14.359  0.00  0.00    +0.034 C 
ATOM      6  C   UNL     1      30.518 -23.941 -15.854  0.00  0.00    +0.141 C 
ATOM      7  C   UNL     1      32.106 -24.913 -14.001  0.00  0.00    +0.032 C 
ATOM      8  C   UNL     1      33.495 -24.753 -13.343  0.00  0.00    +0.111 C 
ATOM      9  C   UNL     1      32.235 -22.511 -16.906  0.00  0.00    +0.003 C 
ATOM     10  C   UNL     1      36.067 -24.185 -13.754  0.00  0.00    +0.036 C 
ATOM     11  C   UNL     1      30.748 -22.913 -16.985  0.00  0.00    +0.034 C 
ATOM     12  C   UNL     1      35.255 -22.919 -16.369  0.00  0.00    +0.004 C 
ATOM     13  C   UNL     1      36.661 -22.707 -15.791  0.00  0.00    +0.019 C 
ATOM     14  C   UNL     1      31.436 -22.456 -14.011  0.00  0.00    +0.003 C 
ATOM     15  C   UNL     1      37.029 -23.911 -14.927  0.00  0.00    -0.038 C 
ATOM     16  C   UNL     1      36.177 -23.015 -12.748  0.00  0.00    +0.009 C 
ATOM     17  C   UNL     1      36.467 -25.433 -12.980  0.00  0.00    -0.020 C 
ATOM     18  C   UNL     1      37.630 -22.365 -16.932  0.00  0.00    +0.004 C 
ATOM     19  C   UNL     1      38.091 -24.695 -15.188  0.00  0.00    +0.034 C 
ATOM     20  C   UNL     1      37.522 -26.209 -13.247  0.00  0.00    +0.038 C 
ATOM     21  C   UNL     1      38.414 -25.883 -14.372  0.00  0.00    +0.195 C 
ENDROOT
BRANCH   6  22
ATOM     22  O   UNL     1      30.542 -25.256 -16.399  0.00  0.00    -0.380 OA
ATOM     23  H   UNL     1      29.829 -25.351 -17.050  0.00  0.00    +0.211 HD
ENDBRANCH   6  22
BRANCH   8  24
ATOM     24  O   UNL     1      33.416 -23.803 -12.289  0.00  0.00    -0.384 OA
ATOM     25  H   UNL     1      33.436 -24.265 -11.437  0.00  0.00    +0.210 HD
ENDBRANCH   8  24
BRANCH   6  27
ATOM     26  O   UNL     1      28.708 -24.724 -14.518  0.00  0.00    -0.291 OA
ATOM     27  C   UNL     1      29.165 -23.825 -15.221  0.00  0.00    +0.204 C 
BRANCH  27  28
ATOM     28  C   UNL     1      28.405 -22.544 -15.496  0.00  0.00    +0.204 C 
BRANCH  28  29
ATOM     29  O   UNL     1      27.082 -22.827 -15.899  0.00  0.00    -0.375 OA
ATOM     30  H   UNL     1      27.078 -23.089 -16.834  0.00  0.00    +0.211 HD
ENDBRANCH  28  29
ENDBRANCH  27  28
ENDBRANCH   6  27
TORSDOF 5
ENDMDL
MODEL 2
REMARK VINA RESULT:      -8.1     10.851     13.354
REMARK  Name = 6741
REMARK  5 active torsions:
REMARK  status: ('A' for Active; 'I' for Inactive)
REMARK    1  A    between atoms: C_6  and  O_22
REMARK    2  A    between atoms: C_6  and  C_27
REMARK    3  A    between atoms: C_8  and  O_24
REMARK    4  A    between atoms: C_27  and  C_28
REMARK    5  A    between atoms: C_28  and  O_29
REMARK                            x       y       z     vdW  Elec       q    Type
REMARK                         _______ _______ _______ _____ _____    ______ ____
ROOT
ATOM      1  O   UNL     1      34.965  -9.831 -25.878  0.00  0.00    -0.287 OA
ATOM      2  C   UNL     1      34.663 -17.173 -22.231  0.00  0.00    +0.031 C 
ATOM      3  C   UNL     1      34.622 -16.858 -23.742  0.00  0.00    +0.003 C 
ATOM      4  C   UNL     1      33.708 -15.676 -24.099  0.00  0.00    +0.003 C 
ATOM      5  C   UNL     1      34.233 -14.394 -23.366  0.00  0.00    +0.034 C 
ATOM      6  C   UNL     1      35.597 -18.415 -22.255  0.00  0.00    +0.141 C 
ATOM      7  C   UNL     1      35.214 -15.925 -21.513  0.00  0.00    +0.032 C 
ATOM      8  C   UNL     1      34.421 -14.638 -21.835  0.00  0.00    +0.111 C 
ATOM      9  C   UNL     1      34.354 -18.218 -24.380  0.00  0.00    +0.003 C 
ATOM     10  C   UNL     1      33.418 -13.102 -23.769  0.00  0.00    +0.036 C 
ATOM     11  C   UNL     1      35.133 -19.212 -23.495  0.00  0.00    +0.034 C 
ATOM     12  C   UNL     1      33.665 -15.469 -25.623  0.00  0.00    +0.004 C 
ATOM     13  C   UNL     1      32.857 -14.229 -26.028  0.00  0.00    +0.019 C 
ATOM     14  C   UNL     1      33.279 -17.574 -21.650  0.00  0.00    +0.003 C 
ATOM     15  C   UNL     1      33.426 -13.009 -25.308  0.00  0.00    -0.038 C 
ATOM     16  C   UNL     1      31.948 -13.109 -23.288  0.00  0.00    +0.009 C 
ATOM     17  C   UNL     1      34.056 -11.877 -23.129  0.00  0.00    -0.020 C 
ATOM     18  C   UNL     1      32.792 -14.147 -27.560  0.00  0.00    +0.004 C 
ATOM     19  C   UNL     1      33.930 -11.948 -25.964  0.00  0.00    +0.034 C 
ATOM     20  C   UNL     1      34.556 -10.828 -23.788  0.00  0.00    +0.038 C 
ATOM     21  C   UNL     1      34.518 -10.790 -25.258  0.00  0.00    +0.195 C 
ENDROOT
BRANCH   6  22
ATOM     22  O   UNL     1      36.959 -18.034 -22.421  0.00  0.00    -0.380 OA
ATOM     23  H   UNL     1      37.528 -18.811 -22.314  0.00  0.00    +0.211 HD
ENDBRANCH   6  22
BRANCH   8  24
ATOM     24  O   UNL     1      33.171 -14.667 -21.160  0.00  0.00    -0.384 OA
ATOM     25  H   UNL     1      33.288 -15.062 -20.282  0.00  0.00    +0.210 HD
ENDBRANCH   8  24
BRANCH   6  27
ATOM     26  O   UNL     1      36.471 -19.107 -20.150  0.00  0.00    -0.291 OA
ATOM     27  C   UNL     1      35.588 -19.228 -20.997  0.00  0.00    +0.204 C 
BRANCH  27  28
ATOM     28  C   UNL     1      34.436 -20.198 -20.834  0.00  0.00    +0.204 C 
BRANCH  28  29
ATOM     29  O   UNL     1      34.688 -21.098 -19.777  0.00  0.00    -0.375 OA
ATOM     30  H   UNL     1      34.300 -20.751 -18.957  0.00  0.00    +0.211 HD
ENDBRANCH  28  29
ENDBRANCH  27  28
ENDBRANCH   6  27
TORSDOF 5
ENDMDL
MODEL 3
REMARK VINA RESULT:      -6.8      3.045      6.794
REMARK  Name = 6741
REMARK  5 active torsions:
REMARK  status: ('A' for Active; 'I' for Inactive)
REMARK    1  A    between atoms: C_6  and  O_22
REMARK    2  A    between atoms: C_6  and  C_27
REMARK    3  A    between atoms: C_8  and  O_24
REMARK    4  A    between atoms: C_27  and  C_28
REMARK    5  A    between atoms: C_28  and  O_29
REMARK                            x       y       z     vdW  Elec       q    Type
REMARK                         _______ _______ _______ _____ _____    ______ ____
ROOT
ATOM      1  O   UNL     1      33.004 -18.497 -20.955  0.00  0.00    -0.287 OA
ATOM      2  C   UNL     1      35.494 -23.773 -15.189  0.00  0.00    +0.031 C 
ATOM      3  C   UNL     1      36.333 -22.717 -15.940  0.00  0.00    +0.003 C 
ATOM      4  C   UNL     1      36.045 -22.663 -17.449  0.00  0.00    +0.003 C 
ATOM      5  C   UNL     1      34.536 -22.299 -17.659  0.00  0.00    +0.034 C 
ATOM      6  C   UNL     1      36.078 -23.594 -13.761  0.00  0.00    +0.141 C 
ATOM      7  C   UNL     1      34.009 -23.394 -15.366  0.00  0.00    +0.032 C 
ATOM      8  C   UNL     1      33.592 -23.241 -16.846  0.00  0.00    +0.111 C 
ATOM      9  C   UNL     1      37.758 -22.999 -15.470  0.00  0.00    +0.003 C 
ATOM     10  C   UNL     1      34.178 -22.106 -19.186  0.00  0.00    +0.036 C 
ATOM     11  C   UNL     1      37.595 -23.412 -13.993  0.00  0.00    +0.034 C 
ATOM     12  C   UNL     1      36.967 -21.640 -18.136  0.00  0.00    +0.004 C 
ATOM     13  C   UNL     1      36.643 -21.461 -19.626  0.00  0.00    +0.019 C 
ATOM     14  C   UNL     1      35.752 -25.225 -15.679  0.00  0.00    +0.003 C 
ATOM     15  C   UNL     1      35.172 -21.083 -19.771  0.00  0.00    -0.038 C 
ATOM     16  C   UNL     1      34.266 -23.405 -20.022  0.00  0.00    +0.009 C 
ATOM     17  C   UNL     1      32.739 -21.628 -19.316  0.00  0.00    -0.020 C 
ATOM     18  C   UNL     1      37.661 -20.497 -20.251  0.00  0.00    +0.004 C 
ATOM     19  C   UNL     1      34.771 -19.928 -20.334  0.00  0.00    +0.034 C 
ATOM     20  C   UNL     1      32.349 -20.479 -19.875  0.00  0.00    +0.038 C 
ATOM     21  C   UNL     1      33.346 -19.551 -20.431  0.00  0.00    +0.195 C 
ENDROOT
BRANCH   6  22
ATOM     22  O   UNL     1      35.554 -22.430 -13.130  0.00  0.00    -0.380 OA
ATOM     23  H   UNL     1      34.877 -22.687 -12.486  0.00  0.00    +0.211 HD
ENDBRANCH   6  22
BRANCH   8  24
ATOM     24  O   UNL     1      33.500 -24.524 -17.450  0.00  0.00    -0.384 OA
ATOM     25  H   UNL     1      33.630 -24.440 -18.408  0.00  0.00    +0.210 HD
ENDBRANCH   8  24
BRANCH   6  27
ATOM     26  O   UNL     1      34.617 -24.885 -12.392  0.00  0.00    -0.291 OA
ATOM     27  C   UNL     1      35.759 -24.708 -12.811  0.00  0.00    +0.204 C 
BRANCH  27  28
ATOM     28  C   UNL     1      36.918 -25.593 -12.403  0.00  0.00    +0.204 C 
BRANCH  28  29
ATOM     29  O   UNL     1      36.800 -26.871 -12.990  0.00  0.00    -0.375 OA
ATOM     30  H   UNL     1      35.937 -26.948 -13.427  0.00  0.00    +0.211 HD
ENDBRANCH  28  29
ENDBRANCH  27  28
ENDBRANCH   6  27
TORSDOF 5
ENDMDL
