MODEL 1
REMARK VINA RESULT:     -11.1      0.000      0.000
REMARK  Name = 6450546
REMARK  5 active torsions:
REMARK  status: ('A' for Active; 'I' for Inactive)
REMARK    1  A    between atoms: C_6  and  C_17
REMARK    2  A    between atoms: CA_7  and  C_14
REMARK    3  A    between atoms: C_14  and  O_15
REMARK    4  A    between atoms: C_18  and  C_21
REMARK    5  A    between atoms: N_20  and  C_23
REMARK                            x       y       z     vdW  Elec       q    Type
REMARK                         _______ _______ _______ _____ _____    ______ ____
ROOT
ATOM      1 CL   UNL     1      34.624 -14.844 -20.618  0.00  0.00    -0.082 Cl
ATOM      2 CL   UNL     1      35.953 -20.063 -21.042  0.00  0.00    -0.082 Cl
ATOM      3  N   UNL     1      34.189 -17.103 -24.958  0.00  0.00    -0.348 N 
ATOM      4  C   UNL     1      34.446 -16.232 -22.920  0.00  0.00    +0.028 A 
ATOM      5  C   UNL     1      34.584 -17.401 -23.672  0.00  0.00    +0.058 A 
ATOM      6  C   UNL     1      33.957 -15.225 -23.798  0.00  0.00    +0.024 A 
ATOM      7  CA  UNL     1      33.809 -15.792 -25.043  0.00  0.00    +0.133 A 
ATOM      8  C   UNL     1      34.786 -16.262 -21.553  0.00  0.00    +0.060 C 
ATOM      9  C   UNL     1      35.046 -18.602 -23.124  0.00  0.00    +0.028 C 
ATOM     10  C   UNL     1      35.250 -17.457 -20.991  0.00  0.00    +0.023 C 
ATOM     11  C   UNL     1      35.378 -18.607 -21.766  0.00  0.00    +0.060 C 
ATOM     12  H   UNL     1      34.183 -17.743 -25.707  0.00  0.00    +0.166 HD
ENDROOT
BRANCH   7  14
ATOM     13  OXT UNL     1      33.848 -14.225 -26.857  0.00  0.00    -0.243 OA
ATOM     14  C   UNL     1      33.351 -15.195 -26.262  0.00  0.00    +0.354 C 
BRANCH  14  15
ATOM     15  O   UNL     1      32.239 -15.814 -26.772  0.00  0.00    -0.476 OA
ATOM     16  H   UNL     1      31.586 -15.311 -27.220  0.00  0.00    +0.295 HD
ENDBRANCH  14  15
ENDBRANCH   7  14
BRANCH   6  17
ATOM     17  C   UNL     1      33.655 -13.871 -23.516  0.00  0.00    +0.006 C 
ATOM     18  C   UNL     1      32.496 -13.352 -23.025  0.00  0.00    +0.058 C 
BRANCH  18  21
ATOM     19  O   UNL     1      31.590 -11.455 -21.916  0.00  0.00    -0.270 OA
ATOM     20  N   UNL     1      33.147 -11.151 -23.646  0.00  0.00    -0.280 N 
ATOM     21  C   UNL     1      32.344 -11.883 -22.782  0.00  0.00    +0.250 C 
ATOM     22  H   UNL     1      33.692 -11.669 -24.281  0.00  0.00    +0.155 HD
BRANCH  20  23
ATOM     23  C   UNL     1      33.271  -9.741 -23.716  0.00  0.00    +0.051 C 
ATOM     24  C   UNL     1      34.526  -9.181 -23.881  0.00  0.00    +0.015 C 
ATOM     25  C   UNL     1      32.136  -8.956 -23.617  0.00  0.00    +0.015 C 
ATOM     26  C   UNL     1      34.650  -7.793 -23.950  0.00  0.00    +0.001 C 
ATOM     27  C   UNL     1      32.259  -7.568 -23.686  0.00  0.00    +0.001 C 
ATOM     28  C   UNL     1      33.516  -6.987 -23.853  0.00  0.00    +0.000 C 
ENDBRANCH  20  23
ENDBRANCH  18  21
ENDBRANCH   6  17
TORSDOF 5
ENDMDL
MODEL 2
REMARK VINA RESULT:     -10.7      1.295      1.690
REMARK  Name = 6450546
REMARK  5 active torsions:
REMARK  status: ('A' for Active; 'I' for Inactive)
REMARK    1  A    between atoms: C_6  and  C_17
REMARK    2  A    between atoms: CA_7  and  C_14
REMARK    3  A    between atoms: C_14  and  O_15
REMARK    4  A    between atoms: C_18  and  C_21
REMARK    5  A    between atoms: N_20  and  C_23
REMARK                            x       y       z     vdW  Elec       q    Type
REMARK                         _______ _______ _______ _____ _____    ______ ____
ROOT
ATOM      1 CL   UNL     1      33.540 -14.545 -20.377  0.00  0.00    -0.082 Cl
ATOM      2 CL   UNL     1      36.359 -19.071 -21.243  0.00  0.00    -0.082 Cl
ATOM      3  N   UNL     1      34.246 -16.110 -24.980  0.00  0.00    -0.348 N 
ATOM      4  C   UNL     1      34.019 -15.541 -22.834  0.00  0.00    +0.028 A 
ATOM      5  C   UNL     1      34.569 -16.492 -23.697  0.00  0.00    +0.058 A 
ATOM      6  C   UNL     1      33.357 -14.576 -23.644  0.00  0.00    +0.024 A 
ATOM      7  CA  UNL     1      33.514 -14.953 -24.958  0.00  0.00    +0.133 A 
ATOM      8  C   UNL     1      34.205 -15.697 -21.446  0.00  0.00    +0.060 C 
ATOM      9  C   UNL     1      35.298 -17.595 -23.239  0.00  0.00    +0.028 C 
ATOM     10  C   UNL     1      34.931 -16.796 -20.974  0.00  0.00    +0.023 C 
ATOM     11  C   UNL     1      35.468 -17.729 -21.859  0.00  0.00    +0.060 C 
ATOM     12  H   UNL     1      34.506 -16.598 -25.795  0.00  0.00    +0.166 HD
ENDROOT
BRANCH   7  14
ATOM     13  OXT UNL     1      33.478 -13.281 -26.674  0.00  0.00    -0.243 OA
ATOM     14  C   UNL     1      33.036 -14.315 -26.147  0.00  0.00    +0.354 C 
BRANCH  14  15
ATOM     15  O   UNL     1      31.976 -14.973 -26.715  0.00  0.00    -0.476 OA
ATOM     16  H   UNL     1      32.029 -15.267 -27.604  0.00  0.00    +0.295 HD
ENDBRANCH  14  15
ENDBRANCH   7  14
BRANCH   6  17
ATOM     17  C   UNL     1      32.648 -13.418 -23.244  0.00  0.00    +0.006 C 
ATOM     18  C   UNL     1      33.104 -12.138 -23.162  0.00  0.00    +0.058 C 
BRANCH  18  21
ATOM     19  O   UNL     1      31.134 -11.243 -22.178  0.00  0.00    -0.270 OA
ATOM     20  N   UNL     1      32.783  -9.787 -22.999  0.00  0.00    -0.280 N 
ATOM     21  C   UNL     1      32.212 -11.022 -22.717  0.00  0.00    +0.250 C 
ATOM     22  H   UNL     1      33.664  -9.804 -23.438  0.00  0.00    +0.155 HD
BRANCH  20  23
ATOM     23  C   UNL     1      32.239  -8.507 -22.727  0.00  0.00    +0.051 C 
ATOM     24  C   UNL     1      31.420  -7.908 -23.669  0.00  0.00    +0.015 C 
ATOM     25  C   UNL     1      32.537  -7.886 -21.527  0.00  0.00    +0.015 C 
ATOM     26  C   UNL     1      30.884  -6.647 -23.402  0.00  0.00    +0.001 C 
ATOM     27  C   UNL     1      32.002  -6.627 -21.260  0.00  0.00    +0.001 C 
ATOM     28  C   UNL     1      31.175  -6.008 -22.197  0.00  0.00    +0.000 C 
ENDBRANCH  20  23
ENDBRANCH  18  21
ENDBRANCH   6  17
TORSDOF 5
ENDMDL
MODEL 3
REMARK VINA RESULT:     -10.5      2.902      8.192
REMARK  Name = 6450546
REMARK  5 active torsions:
REMARK  status: ('A' for Active; 'I' for Inactive)
REMARK    1  A    between atoms: C_6  and  C_17
REMARK    2  A    between atoms: CA_7  and  C_14
REMARK    3  A    between atoms: C_14  and  O_15
REMARK    4  A    between atoms: C_18  and  C_21
REMARK    5  A    between atoms: N_20  and  C_23
REMARK                            x       y       z     vdW  Elec       q    Type
REMARK                         _______ _______ _______ _____ _____    ______ ____
ROOT
ATOM      1 CL   UNL     1      33.059 -15.220 -20.057  0.00  0.00    -0.082 Cl
ATOM      2 CL   UNL     1      31.161 -10.245 -20.965  0.00  0.00    -0.082 Cl
ATOM      3  N   UNL     1      32.950 -13.475 -24.648  0.00  0.00    -0.348 N 
ATOM      4  C   UNL     1      32.929 -14.112 -22.509  0.00  0.00    +0.028 A 
ATOM      5  C   UNL     1      32.617 -13.063 -23.377  0.00  0.00    +0.058 A 
ATOM      6  C   UNL     1      33.460 -15.167 -23.304  0.00  0.00    +0.024 A 
ATOM      7  CA  UNL     1      33.460 -14.745 -24.614  0.00  0.00    +0.133 A 
ATOM      8  C   UNL     1      32.684 -13.949 -21.132  0.00  0.00    +0.060 C 
ATOM      9  C   UNL     1      32.070 -11.854 -22.933  0.00  0.00    +0.028 C 
ATOM     10  C   UNL     1      32.137 -12.745 -20.674  0.00  0.00    +0.023 C 
ATOM     11  C   UNL     1      31.835 -11.716 -21.562  0.00  0.00    +0.060 C 
ATOM     12  H   UNL     1      32.837 -12.934 -25.462  0.00  0.00    +0.166 HD
ENDROOT
BRANCH   7  14
ATOM     13  OXT UNL     1      34.563 -16.483 -25.841  0.00  0.00    -0.243 OA
ATOM     14  C   UNL     1      33.893 -15.438 -25.789  0.00  0.00    +0.354 C 
BRANCH  14  15
ATOM     15  O   UNL     1      33.486 -14.828 -26.948  0.00  0.00    -0.476 OA
ATOM     16  H   UNL     1      33.925 -15.014 -27.755  0.00  0.00    +0.295 HD
ENDBRANCH  14  15
ENDBRANCH   7  14
BRANCH   6  17
ATOM     17  C   UNL     1      33.922 -16.441 -22.895  0.00  0.00    +0.006 C 
ATOM     18  C   UNL     1      35.186 -16.806 -22.547  0.00  0.00    +0.058 C 
BRANCH  18  21
ATOM     19  O   UNL     1      36.414 -18.838 -22.663  0.00  0.00    -0.270 OA
ATOM     20  N   UNL     1      34.653 -18.635 -21.123  0.00  0.00    -0.280 N 
ATOM     21  C   UNL     1      35.505 -18.209 -22.134  0.00  0.00    +0.250 C 
ATOM     22  H   UNL     1      33.977 -17.987 -20.820  0.00  0.00    +0.155 HD
BRANCH  20  23
ATOM     23  C   UNL     1      34.649 -19.897 -20.479  0.00  0.00    +0.051 C 
ATOM     24  C   UNL     1      33.439 -20.516 -20.215  0.00  0.00    +0.015 C 
ATOM     25  C   UNL     1      35.853 -20.483 -20.130  0.00  0.00    +0.015 C 
ATOM     26  C   UNL     1      33.433 -21.759 -19.581  0.00  0.00    +0.001 C 
ATOM     27  C   UNL     1      35.848 -21.726 -19.496  0.00  0.00    +0.001 C 
ATOM     28  C   UNL     1      34.638 -22.363 -19.222  0.00  0.00    +0.000 C 
ENDBRANCH  20  23
ENDBRANCH  18  21
ENDBRANCH   6  17
TORSDOF 5
ENDMDL
MODEL 4
REMARK VINA RESULT:      -9.7      8.218     11.609
REMARK  Name = 6450546
REMARK  5 active torsions:
REMARK  status: ('A' for Active; 'I' for Inactive)
REMARK    1  A    between atoms: C_6  and  C_17
REMARK    2  A    between atoms: CA_7  and  C_14
REMARK    3  A    between atoms: C_14  and  O_15
REMARK    4  A    between atoms: C_18  and  C_21
REMARK    5  A    between atoms: N_20  and  C_23
REMARK                            x       y       z     vdW  Elec       q    Type
REMARK                         _______ _______ _______ _____ _____    ______ ____
ROOT
ATOM      1 CL   UNL     1      37.260 -22.589 -16.694  0.00  0.00    -0.082 Cl
ATOM      2 CL   UNL     1      38.477 -25.504 -12.311  0.00  0.00    -0.082 Cl
ATOM      3  N   UNL     1      33.638 -24.471 -13.960  0.00  0.00    -0.348 N 
ATOM      4  C   UNL     1      35.399 -23.691 -15.088  0.00  0.00    +0.028 A 
ATOM      5  C   UNL     1      35.015 -24.442 -13.974  0.00  0.00    +0.058 A 
ATOM      6  C   UNL     1      34.206 -23.273 -15.740  0.00  0.00    +0.024 A 
ATOM      7  CA  UNL     1      33.141 -23.768 -15.024  0.00  0.00    +0.133 A 
ATOM      8  C   UNL     1      36.773 -23.504 -15.338  0.00  0.00    +0.060 C 
ATOM      9  C   UNL     1      35.940 -25.017 -13.095  0.00  0.00    +0.028 C 
ATOM     10  C   UNL     1      37.709 -24.072 -14.467  0.00  0.00    +0.023 C 
ATOM     11  C   UNL     1      37.297 -24.817 -13.364  0.00  0.00    +0.060 C 
ATOM     12  H   UNL     1      33.092 -24.932 -13.283  0.00  0.00    +0.166 HD
ENDROOT
BRANCH   7  14
ATOM     13  OXT UNL     1      31.031 -24.323 -16.015  0.00  0.00    -0.243 OA
ATOM     14  C   UNL     1      31.738 -23.624 -15.270  0.00  0.00    +0.354 C 
BRANCH  14  15
ATOM     15  O   UNL     1      31.178 -22.584 -14.573  0.00  0.00    -0.476 OA
ATOM     16  H   UNL     1      31.728 -21.975 -14.119  0.00  0.00    +0.295 HD
ENDBRANCH  14  15
ENDBRANCH   7  14
BRANCH   6  17
ATOM     17  C   UNL     1      34.062 -22.492 -16.912  0.00  0.00    +0.006 C 
ATOM     18  C   UNL     1      33.938 -22.919 -18.199  0.00  0.00    +0.058 C 
BRANCH  18  21
ATOM     19  O   UNL     1      32.739 -21.841 -19.946  0.00  0.00    -0.270 OA
ATOM     20  N   UNL     1      34.973 -21.248 -19.538  0.00  0.00    -0.280 N 
ATOM     21  C   UNL     1      33.793 -21.949 -19.330  0.00  0.00    +0.250 C 
ATOM     22  H   UNL     1      35.724 -21.469 -18.940  0.00  0.00    +0.155 HD
BRANCH  20  23
ATOM     23  C   UNL     1      35.219 -20.251 -20.513  0.00  0.00    +0.051 C 
ATOM     24  C   UNL     1      34.184 -19.842 -21.337  0.00  0.00    +0.015 C 
ATOM     25  C   UNL     1      36.487 -19.707 -20.622  0.00  0.00    +0.015 C 
ATOM     26  C   UNL     1      34.425 -18.860 -22.298  0.00  0.00    +0.001 C 
ATOM     27  C   UNL     1      36.729 -18.725 -21.582  0.00  0.00    +0.001 C 
ATOM     28  C   UNL     1      35.697 -18.302 -22.420  0.00  0.00    +0.000 C 
ENDBRANCH  20  23
ENDBRANCH  18  21
ENDBRANCH   6  17
TORSDOF 5
ENDMDL
MODEL 5
REMARK VINA RESULT:      -9.6      2.924      8.091
REMARK  Name = 6450546
REMARK  5 active torsions:
REMARK  status: ('A' for Active; 'I' for Inactive)
REMARK    1  A    between atoms: C_6  and  C_17
REMARK    2  A    between atoms: CA_7  and  C_14
REMARK    3  A    between atoms: C_14  and  O_15
REMARK    4  A    between atoms: C_18  and  C_21
REMARK    5  A    between atoms: N_20  and  C_23
REMARK                            x       y       z     vdW  Elec       q    Type
REMARK                         _______ _______ _______ _____ _____    ______ ____
ROOT
ATOM      1 CL   UNL     1      31.493 -11.284 -20.439  0.00  0.00    -0.082 Cl
ATOM      2 CL   UNL     1      31.765  -5.894 -20.669  0.00  0.00    -0.082 Cl
ATOM      3  N   UNL     1      33.691  -9.136 -24.272  0.00  0.00    -0.348 N 
ATOM      4  C   UNL     1      32.661  -9.948 -22.467  0.00  0.00    +0.028 A 
ATOM      5  C   UNL     1      33.050  -8.771 -23.109  0.00  0.00    +0.058 A 
ATOM      6  C   UNL     1      33.088 -11.031 -23.285  0.00  0.00    +0.024 A 
ATOM      7  CA  UNL     1      33.718 -10.500 -24.387  0.00  0.00    +0.133 A 
ATOM      8  C   UNL     1      31.977  -9.856 -21.238  0.00  0.00    +0.060 C 
ATOM      9  C   UNL     1      32.790  -7.501 -22.581  0.00  0.00    +0.028 C 
ATOM     10  C   UNL     1      31.710  -8.593 -20.699  0.00  0.00    +0.023 C 
ATOM     11  C   UNL     1      32.111  -7.435 -21.362  0.00  0.00    +0.060 C 
ATOM     12  H   UNL     1      34.072  -8.507 -24.926  0.00  0.00    +0.166 HD
ENDROOT
BRANCH   7  14
ATOM     13  OXT UNL     1      33.814 -12.064 -26.200  0.00  0.00    -0.243 OA
ATOM     14  C   UNL     1      34.320 -11.172 -25.499  0.00  0.00    +0.354 C 
BRANCH  14  15
ATOM     15  O   UNL     1      35.591 -10.732 -25.763  0.00  0.00    -0.476 OA
ATOM     16  H   UNL     1      35.758 -10.211 -26.524  0.00  0.00    +0.295 HD
ENDBRANCH  14  15
ENDBRANCH   7  14
BRANCH   6  17
ATOM     17  C   UNL     1      32.931 -12.422 -23.071  0.00  0.00    +0.006 C 
ATOM     18  C   UNL     1      33.802 -13.286 -22.483  0.00  0.00    +0.058 C 
BRANCH  18  21
ATOM     19  O   UNL     1      32.334 -15.114 -22.086  0.00  0.00    -0.270 OA
ATOM     20  N   UNL     1      34.605 -15.525 -22.519  0.00  0.00    -0.280 N 
ATOM     21  C   UNL     1      33.474 -14.740 -22.335  0.00  0.00    +0.250 C 
ATOM     22  H   UNL     1      35.442 -15.046 -22.715  0.00  0.00    +0.155 HD
BRANCH  20  23
ATOM     23  C   UNL     1      34.688 -16.938 -22.457  0.00  0.00    +0.051 C 
ATOM     24  C   UNL     1      34.832 -17.658 -23.630  0.00  0.00    +0.015 C 
ATOM     25  C   UNL     1      34.624 -17.566 -21.226  0.00  0.00    +0.015 C 
ATOM     26  C   UNL     1      34.914 -19.050 -23.571  0.00  0.00    +0.001 C 
ATOM     27  C   UNL     1      34.706 -18.957 -21.165  0.00  0.00    +0.001 C 
ATOM     28  C   UNL     1      34.852 -19.698 -22.337  0.00  0.00    +0.000 C 
ENDBRANCH  20  23
ENDBRANCH  18  21
ENDBRANCH   6  17
TORSDOF 5
ENDMDL
MODEL 6
REMARK VINA RESULT:      -9.6      7.862     10.957
REMARK  Name = 6450546
REMARK  5 active torsions:
REMARK  status: ('A' for Active; 'I' for Inactive)
REMARK    1  A    between atoms: C_6  and  C_17
REMARK    2  A    between atoms: CA_7  and  C_14
REMARK    3  A    between atoms: C_14  and  O_15
REMARK    4  A    between atoms: C_18  and  C_21
REMARK    5  A    between atoms: N_20  and  C_23
REMARK                            x       y       z     vdW  Elec       q    Type
REMARK                         _______ _______ _______ _____ _____    ______ ____
ROOT
ATOM      1 CL   UNL     1      32.241 -22.010 -18.139  0.00  0.00    -0.082 Cl
ATOM      2 CL   UNL     1      29.869 -24.945 -14.274  0.00  0.00    -0.082 Cl
ATOM      3  N   UNL     1      35.007 -24.155 -14.691  0.00  0.00    -0.348 N 
ATOM      4  C   UNL     1      33.608 -23.251 -16.176  0.00  0.00    +0.028 A 
ATOM      5  C   UNL     1      33.677 -24.046 -15.030  0.00  0.00    +0.058 A 
ATOM      6  C   UNL     1      34.942 -22.886 -16.511  0.00  0.00    +0.024 A 
ATOM      7  CA  UNL     1      35.778 -23.457 -15.580  0.00  0.00    +0.133 A 
ATOM      8  C   UNL     1      32.345 -22.979 -16.738  0.00  0.00    +0.060 C 
ATOM      9  C   UNL     1      32.541 -24.586 -14.416  0.00  0.00    +0.028 C 
ATOM     10  C   UNL     1      31.200 -23.513 -16.135  0.00  0.00    +0.023 C 
ATOM     11  C   UNL     1      31.299 -24.303 -14.992  0.00  0.00    +0.060 C 
ATOM     12  H   UNL     1      35.352 -24.660 -13.920  0.00  0.00    +0.166 HD
ENDROOT
BRANCH   7  14
ATOM     13  OXT UNL     1      37.906 -22.362 -15.444  0.00  0.00    -0.243 OA
ATOM     14  C   UNL     1      37.205 -23.387 -15.481  0.00  0.00    +0.354 C 
BRANCH  14  15
ATOM     15  O   UNL     1      37.796 -24.623 -15.422  0.00  0.00    -0.476 OA
ATOM     16  H   UNL     1      38.714 -24.696 -15.241  0.00  0.00    +0.295 HD
ENDBRANCH  14  15
ENDBRANCH   7  14
BRANCH   6  17
ATOM     17  C   UNL     1      35.400 -22.088 -17.587  0.00  0.00    +0.006 C 
ATOM     18  C   UNL     1      35.072 -22.182 -18.904  0.00  0.00    +0.058 C 
BRANCH  18  21
ATOM     19  O   UNL     1      36.839 -21.295 -20.224  0.00  0.00    -0.270 OA
ATOM     20  N   UNL     1      34.683 -20.388 -20.417  0.00  0.00    -0.280 N 
ATOM     21  C   UNL     1      35.653 -21.248 -19.920  0.00  0.00    +0.250 C 
ATOM     22  H   UNL     1      33.774 -20.498 -20.053  0.00  0.00    +0.155 HD
BRANCH  20  23
ATOM     23  C   UNL     1      34.853 -19.371 -21.389  0.00  0.00    +0.051 C 
ATOM     24  C   UNL     1      34.822 -19.708 -22.731  0.00  0.00    +0.015 C 
ATOM     25  C   UNL     1      35.047 -18.065 -20.975  0.00  0.00    +0.015 C 
ATOM     26  C   UNL     1      34.990 -18.708 -23.689  0.00  0.00    +0.001 C 
ATOM     27  C   UNL     1      35.215 -17.064 -21.932  0.00  0.00    +0.001 C 
ATOM     28  C   UNL     1      35.185 -17.386 -23.288  0.00  0.00    +0.000 C 
ENDBRANCH  20  23
ENDBRANCH  18  21
ENDBRANCH   6  17
TORSDOF 5
ENDMDL
MODEL 7
REMARK VINA RESULT:      -9.5      7.326     10.476
REMARK  Name = 6450546
REMARK  5 active torsions:
REMARK  status: ('A' for Active; 'I' for Inactive)
REMARK    1  A    between atoms: C_6  and  C_17
REMARK    2  A    between atoms: CA_7  and  C_14
REMARK    3  A    between atoms: C_14  and  O_15
REMARK    4  A    between atoms: C_18  and  C_21
REMARK    5  A    between atoms: N_20  and  C_23
REMARK                            x       y       z     vdW  Elec       q    Type
REMARK                         _______ _______ _______ _____ _____    ______ ____
ROOT
ATOM      1 CL   UNL     1      38.206 -22.423 -16.442  0.00  0.00    -0.082 Cl
ATOM      2 CL   UNL     1      37.295 -26.003 -12.500  0.00  0.00    -0.082 Cl
ATOM      3  N   UNL     1      33.635 -24.041 -15.656  0.00  0.00    -0.348 N 
ATOM      4  C   UNL     1      35.764 -23.412 -15.879  0.00  0.00    +0.028 A 
ATOM      5  C   UNL     1      34.899 -24.224 -15.142  0.00  0.00    +0.058 A 
ATOM      6  C   UNL     1      34.975 -22.738 -16.852  0.00  0.00    +0.024 A 
ATOM      7  CA  UNL     1      33.672 -23.145 -16.690  0.00  0.00    +0.133 A 
ATOM      8  C   UNL     1      37.135 -23.410 -15.553  0.00  0.00    +0.060 C 
ATOM      9  C   UNL     1      35.339 -25.037 -14.091  0.00  0.00    +0.028 C 
ATOM     10  C   UNL     1      37.588 -24.217 -14.504  0.00  0.00    +0.023 C 
ATOM     11  C   UNL     1      36.702 -25.018 -13.786  0.00  0.00    +0.060 C 
ATOM     12  H   UNL     1      32.824 -24.492 -15.328  0.00  0.00    +0.166 HD
ENDROOT
BRANCH   7  14
ATOM     13  OXT UNL     1      32.450 -22.367 -18.599  0.00  0.00    -0.243 OA
ATOM     14  C   UNL     1      32.503 -22.758 -17.422  0.00  0.00    +0.354 C 
BRANCH  14  15
ATOM     15  O   UNL     1      31.354 -22.857 -16.680  0.00  0.00    -0.476 OA
ATOM     16  H   UNL     1      30.707 -22.179 -16.726  0.00  0.00    +0.295 HD
ENDBRANCH  14  15
ENDBRANCH   7  14
BRANCH   6  17
ATOM     17  C   UNL     1      35.385 -21.807 -17.837  0.00  0.00    +0.006 C 
ATOM     18  C   UNL     1      35.489 -21.995 -19.181  0.00  0.00    +0.058 C 
BRANCH  18  21
ATOM     19  O   UNL     1      37.132 -20.652 -20.253  0.00  0.00    -0.270 OA
ATOM     20  N   UNL     1      34.857 -20.245 -20.663  0.00  0.00    -0.280 N 
ATOM     21  C   UNL     1      35.942 -20.893 -20.088  0.00  0.00    +0.250 C 
ATOM     22  H   UNL     1      33.965 -20.579 -20.411  0.00  0.00    +0.155 HD
BRANCH  20  23
ATOM     23  C   UNL     1      34.888 -19.158 -21.571  0.00  0.00    +0.051 C 
ATOM     24  C   UNL     1      34.913 -17.866 -21.076  0.00  0.00    +0.015 C 
ATOM     25  C   UNL     1      34.894 -19.412 -22.932  0.00  0.00    +0.015 C 
ATOM     26  C   UNL     1      34.943 -16.794 -21.969  0.00  0.00    +0.001 C 
ATOM     27  C   UNL     1      34.925 -18.342 -23.825  0.00  0.00    +0.001 C 
ATOM     28  C   UNL     1      34.950 -17.033 -23.343  0.00  0.00    +0.000 C 
ENDBRANCH  20  23
ENDBRANCH  18  21
ENDBRANCH   6  17
TORSDOF 5
ENDMDL
MODEL 8
REMARK VINA RESULT:      -9.2      2.975      8.301
REMARK  Name = 6450546
REMARK  5 active torsions:
REMARK  status: ('A' for Active; 'I' for Inactive)
REMARK    1  A    between atoms: C_6  and  C_17
REMARK    2  A    between atoms: CA_7  and  C_14
REMARK    3  A    between atoms: C_14  and  O_15
REMARK    4  A    between atoms: C_18  and  C_21
REMARK    5  A    between atoms: N_20  and  C_23
REMARK                            x       y       z     vdW  Elec       q    Type
REMARK                         _______ _______ _______ _____ _____    ______ ____
ROOT
ATOM      1 CL   UNL     1      34.427 -11.689 -24.953  0.00  0.00    -0.082 Cl
ATOM      2 CL   UNL     1      34.846  -6.303 -25.027  0.00  0.00    -0.082 Cl
ATOM      3  N   UNL     1      31.980  -9.028 -21.626  0.00  0.00    -0.348 N 
ATOM      4  C   UNL     1      33.154 -10.083 -23.203  0.00  0.00    +0.028 A 
ATOM      5  C   UNL     1      32.832  -8.825 -22.689  0.00  0.00    +0.058 A 
ATOM      6  C   UNL     1      32.467 -11.045 -22.413  0.00  0.00    +0.024 A 
ATOM      7  CA  UNL     1      31.754 -10.366 -21.452  0.00  0.00    +0.133 A 
ATOM      8  C   UNL     1      34.023 -10.161 -24.310  0.00  0.00    +0.060 C 
ATOM      9  C   UNL     1      33.337  -7.636 -23.228  0.00  0.00    +0.028 C 
ATOM     10  C   UNL     1      34.534  -8.980 -24.860  0.00  0.00    +0.023 C 
ATOM     11  C   UNL     1      34.196  -7.739 -24.326  0.00  0.00    +0.060 C 
ATOM     12  H   UNL     1      31.591  -8.313 -21.073  0.00  0.00    +0.166 HD
ENDROOT
BRANCH   7  14
ATOM     13  OXT UNL     1      31.048 -10.745 -19.193  0.00  0.00    -0.243 OA
ATOM     14  C   UNL     1      30.906 -10.881 -20.420  0.00  0.00    +0.354 C 
BRANCH  14  15
ATOM     15  O   UNL     1      29.839 -11.590 -20.910  0.00  0.00    -0.476 OA
ATOM     16  H   UNL     1      29.547 -12.363 -20.468  0.00  0.00    +0.295 HD
ENDBRANCH  14  15
ENDBRANCH   7  14
BRANCH   6  17
ATOM     17  C   UNL     1      32.468 -12.456 -22.532  0.00  0.00    +0.006 C 
ATOM     18  C   UNL     1      33.314 -13.349 -21.950  0.00  0.00    +0.058 C 
BRANCH  18  21
ATOM     19  O   UNL     1      32.212 -15.447 -21.751  0.00  0.00    -0.270 OA
ATOM     20  N   UNL     1      34.240 -15.311 -22.925  0.00  0.00    -0.280 N 
ATOM     21  C   UNL     1      33.172 -14.821 -22.184  0.00  0.00    +0.250 C 
ATOM     22  H   UNL     1      34.925 -14.656 -23.190  0.00  0.00    +0.155 HD
BRANCH  20  23
ATOM     23  C   UNL     1      34.454 -16.649 -23.342  0.00  0.00    +0.051 C 
ATOM     24  C   UNL     1      34.813 -17.599 -22.402  0.00  0.00    +0.015 C 
ATOM     25  C   UNL     1      34.299 -16.975 -24.678  0.00  0.00    +0.015 C 
ATOM     26  C   UNL     1      35.024 -18.917 -22.811  0.00  0.00    +0.001 C 
ATOM     27  C   UNL     1      34.510 -18.291 -25.087  0.00  0.00    +0.001 C 
ATOM     28  C   UNL     1      34.872 -19.262 -24.153  0.00  0.00    +0.000 C 
ENDBRANCH  20  23
ENDBRANCH  18  21
ENDBRANCH   6  17
TORSDOF 5
ENDMDL
MODEL 9
REMARK VINA RESULT:      -9.1      7.854     12.560
REMARK  Name = 6450546
REMARK  5 active torsions:
REMARK  status: ('A' for Active; 'I' for Inactive)
REMARK    1  A    between atoms: C_6  and  C_17
REMARK    2  A    between atoms: CA_7  and  C_14
REMARK    3  A    between atoms: C_14  and  O_15
REMARK    4  A    between atoms: C_18  and  C_21
REMARK    5  A    between atoms: N_20  and  C_23
REMARK                            x       y       z     vdW  Elec       q    Type
REMARK                         _______ _______ _______ _____ _____    ______ ____
ROOT
ATOM      1 CL   UNL     1      37.698 -20.108 -20.002  0.00  0.00    -0.082 Cl
ATOM      2 CL   UNL     1      34.576 -17.505 -23.560  0.00  0.00    -0.082 Cl
ATOM      3  N   UNL     1      32.867 -20.995 -20.082  0.00  0.00    -0.348 N 
ATOM      4  C   UNL     1      35.035 -20.476 -20.179  0.00  0.00    +0.028 A 
ATOM      5  C   UNL     1      33.785 -20.212 -20.744  0.00  0.00    +0.058 A 
ATOM      6  C   UNL     1      34.833 -21.443 -19.155  0.00  0.00    +0.024 A 
ATOM      7  CA  UNL     1      33.491 -21.742 -19.119  0.00  0.00    +0.133 A 
ATOM      8  C   UNL     1      36.163 -19.797 -20.681  0.00  0.00    +0.060 C 
ATOM      9  C   UNL     1      33.608 -19.300 -21.791  0.00  0.00    +0.028 C 
ATOM     10  C   UNL     1      36.000 -18.883 -21.727  0.00  0.00    +0.023 C 
ATOM     11  C   UNL     1      34.741 -18.639 -22.271  0.00  0.00    +0.060 C 
ATOM     12  H   UNL     1      31.901 -21.013 -20.272  0.00  0.00    +0.166 HD
ENDROOT
BRANCH   7  14
ATOM     13  OXT UNL     1      31.765 -22.420 -17.601  0.00  0.00    -0.243 OA
ATOM     14  C   UNL     1      32.787 -22.652 -18.267  0.00  0.00    +0.354 C 
BRANCH  14  15
ATOM     15  O   UNL     1      33.359 -23.898 -18.232  0.00  0.00    -0.476 OA
ATOM     16  H   UNL     1      33.404 -24.415 -19.013  0.00  0.00    +0.295 HD
ENDBRANCH  14  15
ENDBRANCH   7  14
BRANCH   6  17
ATOM     17  C   UNL     1      35.787 -22.034 -18.292  0.00  0.00    +0.006 C 
ATOM     18  C   UNL     1      36.140 -21.647 -17.036  0.00  0.00    +0.058 C 
BRANCH  18  21
ATOM     19  O   UNL     1      38.371 -22.269 -16.500  0.00  0.00    -0.270 OA
ATOM     20  N   UNL     1      36.589 -23.184 -15.277  0.00  0.00    -0.280 N 
ATOM     21  C   UNL     1      37.177 -22.392 -16.254  0.00  0.00    +0.250 C 
ATOM     22  H   UNL     1      35.606 -23.155 -15.224  0.00  0.00    +0.155 HD
BRANCH  20  23
ATOM     23  C   UNL     1      37.244 -24.028 -14.346  0.00  0.00    +0.051 C 
ATOM     24  C   UNL     1      37.388 -23.604 -13.036  0.00  0.00    +0.015 C 
ATOM     25  C   UNL     1      37.725 -25.255 -14.767  0.00  0.00    +0.015 C 
ATOM     26  C   UNL     1      38.033 -24.434 -12.118  0.00  0.00    +0.001 C 
ATOM     27  C   UNL     1      38.370 -26.085 -13.850  0.00  0.00    +0.001 C 
ATOM     28  C   UNL     1      38.524 -25.675 -12.526  0.00  0.00    +0.000 C 
ENDBRANCH  20  23
ENDBRANCH  18  21
ENDBRANCH   6  17
TORSDOF 5
ENDMDL
