MODEL 1
REMARK VINA RESULT:      -9.7      0.000      0.000
REMARK  Name = 5311507
REMARK  6 active torsions:
REMARK  status: ('A' for Active; 'I' for Inactive)
REMARK    1  A    between atoms: C_3  and  C_17
REMARK    2  A    between atoms: C_17  and  C_18
REMARK    3  A    between atoms: C_18  and  N_19
REMARK    4  A    between atoms: N_20  and  C_27
REMARK    5  A    between atoms: C_27  and  C_28
REMARK    6  A    between atoms: C_28  and  O_29
REMARK                            x       y       z     vdW  Elec       q    Type
REMARK                         _______ _______ _______ _____ _____    ______ ____
ROOT
ATOM      1 CL   UNL     1      33.060 -21.763 -19.961  0.00  0.00    -0.082 Cl
ATOM      2  S   UNL     1      37.850 -22.533 -15.927  0.00  0.00    -0.087 S 
ATOM      3  C   UNL     1      33.896 -23.858 -14.940  0.00  0.00    -0.028 C 
ATOM      4  C   UNL     1      35.065 -23.861 -15.610  0.00  0.00    -0.003 C 
ATOM      5  C   UNL     1      35.219 -22.981 -16.800  0.00  0.00    +0.007 C 
ATOM      6  C   UNL     1      36.208 -24.642 -15.066  0.00  0.00    +0.006 C 
ATOM      7  C   UNL     1      36.453 -22.345 -17.031  0.00  0.00    +0.029 C 
ATOM      8  C   UNL     1      37.512 -24.121 -15.176  0.00  0.00    +0.029 C 
ATOM      9  C   UNL     1      34.180 -22.801 -17.730  0.00  0.00    +0.012 C 
ATOM     10  C   UNL     1      36.033 -25.909 -14.484  0.00  0.00    +0.000 C 
ATOM     11  C   UNL     1      36.614 -21.516 -18.152  0.00  0.00    +0.007 C 
ATOM     12  C   UNL     1      38.601 -24.849 -14.671  0.00  0.00    +0.006 C 
ATOM     13  C   UNL     1      34.353 -21.980 -18.846  0.00  0.00    +0.058 C 
ATOM     14  C   UNL     1      37.123 -26.629 -13.992  0.00  0.00    +0.000 C 
ATOM     15  C   UNL     1      35.567 -21.334 -19.053  0.00  0.00    +0.012 C 
ATOM     16  C   UNL     1      38.404 -26.097 -14.080  0.00  0.00    +0.001 C 
ENDROOT
BRANCH   3  17
ATOM     17  C   UNL     1      32.682 -23.111 -15.392  0.00  0.00    +0.003 C 
BRANCH  17  18
ATOM     18  C   UNL     1      31.484 -24.049 -15.537  0.00  0.00    -0.073 C 
BRANCH  18  19
ATOM     19  N   UNL     1      30.301 -23.298 -15.951  0.00  0.00    +0.384 N 
ATOM     20  N   UNL     1      27.462 -22.746 -15.925  0.00  0.00    +0.386 N 
ATOM     21  C   UNL     1      29.348 -24.169 -16.651  0.00  0.00    -0.101 C 
ATOM     22  C   UNL     1      29.658 -22.659 -14.796  0.00  0.00    -0.101 C 
ATOM     23  C   UNL     1      28.105 -23.383 -17.081  0.00  0.00    -0.101 C 
ATOM     24  C   UNL     1      28.416 -21.874 -15.227  0.00  0.00    -0.101 C 
ATOM     25  H   UNL     1      30.601 -22.567 -16.595  0.00  0.00    -0.080 HD
ATOM     26  H   UNL     1      27.164 -23.478 -15.280  0.00  0.00    -0.080 HD
BRANCH  20  27
ATOM     27  C   UNL     1      26.278 -21.997 -16.337  0.00  0.00    -0.045 C 
BRANCH  27  28
ATOM     28  C   UNL     1      26.406 -21.543 -17.782  0.00  0.00    +0.115 C 
BRANCH  28  29
ATOM     29  O   UNL     1      25.942 -20.203 -17.883  0.00  0.00    -0.384 OA
ATOM     30  H   UNL     1      24.997 -20.204 -18.101  0.00  0.00    +0.210 HD
ENDBRANCH  28  29
ENDBRANCH  27  28
ENDBRANCH  20  27
ENDBRANCH  18  19
ENDBRANCH  17  18
ENDBRANCH   3  17
TORSDOF 6
ENDMDL
MODEL 2
REMARK VINA RESULT:      -9.6     12.638     15.875
REMARK  Name = 5311507
REMARK  6 active torsions:
REMARK  status: ('A' for Active; 'I' for Inactive)
REMARK    1  A    between atoms: C_3  and  C_17
REMARK    2  A    between atoms: C_17  and  C_18
REMARK    3  A    between atoms: C_18  and  N_19
REMARK    4  A    between atoms: N_20  and  C_27
REMARK    5  A    between atoms: C_27  and  C_28
REMARK    6  A    between atoms: C_28  and  O_29
REMARK                            x       y       z     vdW  Elec       q    Type
REMARK                         _______ _______ _______ _____ _____    ______ ____
ROOT
ATOM      1 CL   UNL     1      31.603 -13.517 -20.813  0.00  0.00    -0.082 Cl
ATOM      2  S   UNL     1      32.275  -7.260 -20.353  0.00  0.00    -0.087 S 
ATOM      3  C   UNL     1      33.320  -9.335 -23.954  0.00  0.00    -0.028 C 
ATOM      4  C   UNL     1      32.494  -8.853 -23.006  0.00  0.00    -0.003 C 
ATOM      5  C   UNL     1      32.230  -9.671 -21.792  0.00  0.00    +0.007 C 
ATOM      6  C   UNL     1      31.974  -7.465 -23.138  0.00  0.00    +0.006 C 
ATOM      7  C   UNL     1      32.104  -9.032 -20.544  0.00  0.00    +0.029 C 
ATOM      8  C   UNL     1      31.830  -6.671 -21.984  0.00  0.00    +0.029 C 
ATOM      9  C   UNL     1      32.055 -11.064 -21.859  0.00  0.00    +0.012 C 
ATOM     10  C   UNL     1      31.577  -6.934 -24.377  0.00  0.00    +0.000 C 
ATOM     11  C   UNL     1      31.850  -9.791 -19.392  0.00  0.00    +0.007 C 
ATOM     12  C   UNL     1      31.337  -5.361 -22.092  0.00  0.00    +0.006 C 
ATOM     13  C   UNL     1      31.796 -11.810 -20.708  0.00  0.00    +0.058 C 
ATOM     14  C   UNL     1      31.080  -5.633 -24.474  0.00  0.00    +0.000 C 
ATOM     15  C   UNL     1      31.699 -11.174 -19.474  0.00  0.00    +0.012 C 
ATOM     16  C   UNL     1      30.966  -4.846 -23.333  0.00  0.00    +0.001 C 
ENDROOT
BRANCH   3  17
ATOM     17  C   UNL     1      33.902 -10.712 -23.926  0.00  0.00    +0.003 C 
BRANCH  17  18
ATOM     18  C   UNL     1      33.387 -11.548 -25.097  0.00  0.00    -0.073 C 
BRANCH  18  19
ATOM     19  N   UNL     1      33.926 -12.905 -25.025  0.00  0.00    +0.384 N 
ATOM     20  N   UNL     1      33.726 -15.726 -24.421  0.00  0.00    +0.386 N 
ATOM     21  C   UNL     1      33.934 -13.390 -23.640  0.00  0.00    -0.101 C 
ATOM     22  C   UNL     1      33.158 -13.817 -25.883  0.00  0.00    -0.101 C 
ATOM     23  C   UNL     1      34.494 -14.815 -23.564  0.00  0.00    -0.101 C 
ATOM     24  C   UNL     1      33.719 -15.240 -25.807  0.00  0.00    -0.101 C 
ATOM     25  H   UNL     1      34.887 -12.881 -25.363  0.00  0.00    -0.080 HD
ATOM     26  H   UNL     1      32.763 -15.748 -24.084  0.00  0.00    -0.080 HD
BRANCH  20  27
ATOM     27  C   UNL     1      34.262 -17.083 -24.348  0.00  0.00    -0.045 C 
BRANCH  27  28
ATOM     28  C   UNL     1      34.975 -17.309 -23.025  0.00  0.00    +0.115 C 
BRANCH  28  29
ATOM     29  O   UNL     1      36.140 -18.087 -23.260  0.00  0.00    -0.384 OA
ATOM     30  H   UNL     1      36.010 -18.633 -24.051  0.00  0.00    +0.210 HD
ENDBRANCH  28  29
ENDBRANCH  27  28
ENDBRANCH  20  27
ENDBRANCH  18  19
ENDBRANCH  17  18
ENDBRANCH   3  17
TORSDOF 6
ENDMDL
MODEL 3
REMARK VINA RESULT:      -9.2     13.398     16.555
REMARK  Name = 5311507
REMARK  6 active torsions:
REMARK  status: ('A' for Active; 'I' for Inactive)
REMARK    1  A    between atoms: C_3  and  C_17
REMARK    2  A    between atoms: C_17  and  C_18
REMARK    3  A    between atoms: C_18  and  N_19
REMARK    4  A    between atoms: N_20  and  C_27
REMARK    5  A    between atoms: C_27  and  C_28
REMARK    6  A    between atoms: C_28  and  O_29
REMARK                            x       y       z     vdW  Elec       q    Type
REMARK                         _______ _______ _______ _____ _____    ______ ____
ROOT
ATOM      1 CL   UNL     1      31.764 -13.078 -21.234  0.00  0.00    -0.082 Cl
ATOM      2  S   UNL     1      32.102  -6.852 -20.273  0.00  0.00    -0.087 S 
ATOM      3  C   UNL     1      33.614  -8.616 -23.873  0.00  0.00    -0.028 C 
ATOM      4  C   UNL     1      32.671  -8.236 -22.990  0.00  0.00    -0.003 C 
ATOM      5  C   UNL     1      32.318  -9.151 -21.871  0.00  0.00    +0.007 C 
ATOM      6  C   UNL     1      32.107  -6.862 -23.081  0.00  0.00    +0.006 C 
ATOM      7  C   UNL     1      32.032  -8.610 -20.604  0.00  0.00    +0.029 C 
ATOM      8  C   UNL     1      31.806  -6.161 -21.897  0.00  0.00    +0.029 C 
ATOM      9  C   UNL     1      32.214 -10.541 -22.053  0.00  0.00    +0.012 C 
ATOM     10  C   UNL     1      31.819  -6.257 -24.317  0.00  0.00    +0.000 C 
ATOM     11  C   UNL     1      31.691  -9.461 -19.540  0.00  0.00    +0.007 C 
ATOM     12  C   UNL     1      31.269  -4.867 -21.968  0.00  0.00    +0.006 C 
ATOM     13  C   UNL     1      31.868 -11.378 -20.991  0.00  0.00    +0.058 C 
ATOM     14  C   UNL     1      31.278  -4.972 -24.377  0.00  0.00    +0.000 C 
ATOM     15  C   UNL     1      31.612 -10.839 -19.734  0.00  0.00    +0.012 C 
ATOM     16  C   UNL     1      31.009  -4.276 -23.204  0.00  0.00    +0.001 C 
ENDROOT
BRANCH   3  17
ATOM     17  C   UNL     1      34.251  -9.969 -23.878  0.00  0.00    +0.003 C 
BRANCH  17  18
ATOM     18  C   UNL     1      34.695 -10.362 -25.287  0.00  0.00    -0.073 C 
BRANCH  18  19
ATOM     19  N   UNL     1      34.571 -11.806 -25.472  0.00  0.00    +0.384 N 
ATOM     20  N   UNL     1      33.044 -14.251 -25.697  0.00  0.00    +0.386 N 
ATOM     21  C   UNL     1      33.956 -12.432 -24.295  0.00  0.00    -0.101 C 
ATOM     22  C   UNL     1      33.795 -12.112 -26.680  0.00  0.00    -0.101 C 
ATOM     23  C   UNL     1      33.821 -13.946 -24.490  0.00  0.00    -0.101 C 
ATOM     24  C   UNL     1      33.661 -13.626 -26.874  0.00  0.00    -0.101 C 
ATOM     25  H   UNL     1      35.508 -12.191 -25.587  0.00  0.00    -0.080 HD
ATOM     26  H   UNL     1      32.107 -13.865 -25.583  0.00  0.00    -0.080 HD
BRANCH  20  27
ATOM     27  C   UNL     1      32.918 -15.695 -25.882  0.00  0.00    -0.045 C 
BRANCH  27  28
ATOM     28  C   UNL     1      33.966 -16.435 -25.067  0.00  0.00    +0.115 C 
BRANCH  28  29
ATOM     29  O   UNL     1      34.742 -17.240 -25.944  0.00  0.00    -0.384 OA
ATOM     30  H   UNL     1      35.461 -16.709 -26.320  0.00  0.00    +0.210 HD
ENDBRANCH  28  29
ENDBRANCH  27  28
ENDBRANCH  20  27
ENDBRANCH  18  19
ENDBRANCH  17  18
ENDBRANCH   3  17
TORSDOF 6
ENDMDL
MODEL 4
REMARK VINA RESULT:      -9.1      4.296      7.073
REMARK  Name = 5311507
REMARK  6 active torsions:
REMARK  status: ('A' for Active; 'I' for Inactive)
REMARK    1  A    between atoms: C_3  and  C_17
REMARK    2  A    between atoms: C_17  and  C_18
REMARK    3  A    between atoms: C_18  and  N_19
REMARK    4  A    between atoms: N_20  and  C_27
REMARK    5  A    between atoms: C_27  and  C_28
REMARK    6  A    between atoms: C_28  and  O_29
REMARK                            x       y       z     vdW  Elec       q    Type
REMARK                         _______ _______ _______ _____ _____    ______ ____
ROOT
ATOM      1 CL   UNL     1      40.012 -25.248 -15.366  0.00  0.00    -0.082 Cl
ATOM      2  S   UNL     1      34.515 -24.111 -12.486  0.00  0.00    -0.087 S 
ATOM      3  C   UNL     1      35.493 -22.219 -16.204  0.00  0.00    -0.028 C 
ATOM      4  C   UNL     1      35.181 -23.245 -15.390  0.00  0.00    -0.003 C 
ATOM      5  C   UNL     1      36.272 -23.955 -14.671  0.00  0.00    +0.007 C 
ATOM      6  C   UNL     1      33.748 -23.552 -15.129  0.00  0.00    +0.006 C 
ATOM      7  C   UNL     1      36.056 -24.396 -13.352  0.00  0.00    +0.029 C 
ATOM      8  C   UNL     1      33.355 -23.964 -13.842  0.00  0.00    +0.029 C 
ATOM      9  C   UNL     1      37.503 -24.243 -15.287  0.00  0.00    +0.012 C 
ATOM     10  C   UNL     1      32.778 -23.488 -16.145  0.00  0.00    +0.000 C 
ATOM     11  C   UNL     1      37.075 -25.073 -12.663  0.00  0.00    +0.007 C 
ATOM     12  C   UNL     1      32.008 -24.262 -13.584  0.00  0.00    +0.006 C 
ATOM     13  C   UNL     1      38.508 -24.923 -14.596  0.00  0.00    +0.058 C 
ATOM     14  C   UNL     1      31.442 -23.793 -15.880  0.00  0.00    +0.000 C 
ATOM     15  C   UNL     1      38.296 -25.332 -13.284  0.00  0.00    +0.012 C 
ATOM     16  C   UNL     1      31.057 -24.174 -14.599  0.00  0.00    +0.001 C 
ENDROOT
BRANCH   3  17
ATOM     17  C   UNL     1      36.895 -21.820 -16.538  0.00  0.00    +0.003 C 
BRANCH  17  18
ATOM     18  C   UNL     1      37.169 -21.978 -18.033  0.00  0.00    -0.073 C 
BRANCH  18  19
ATOM     19  N   UNL     1      36.374 -21.019 -18.797  0.00  0.00    +0.384 N 
ATOM     20  N   UNL     1      35.200 -20.018 -21.243  0.00  0.00    +0.386 N 
ATOM     21  C   UNL     1      37.193 -20.362 -19.823  0.00  0.00    -0.101 C 
ATOM     22  C   UNL     1      35.214 -21.676 -19.411  0.00  0.00    -0.101 C 
ATOM     23  C   UNL     1      36.359 -19.360 -20.629  0.00  0.00    -0.101 C 
ATOM     24  C   UNL     1      34.380 -20.674 -20.215  0.00  0.00    -0.101 C 
ATOM     25  H   UNL     1      36.034 -20.306 -18.152  0.00  0.00    -0.080 HD
ATOM     26  H   UNL     1      35.539 -20.733 -21.886  0.00  0.00    -0.080 HD
BRANCH  20  27
ATOM     27  C   UNL     1      34.405 -19.061 -22.009  0.00  0.00    -0.045 C 
BRANCH  27  28
ATOM     28  C   UNL     1      34.860 -19.023 -23.458  0.00  0.00    +0.115 C 
BRANCH  28  29
ATOM     29  O   UNL     1      35.625 -17.844 -23.667  0.00  0.00    -0.384 OA
ATOM     30  H   UNL     1      35.296 -17.380 -24.452  0.00  0.00    +0.210 HD
ENDBRANCH  28  29
ENDBRANCH  27  28
ENDBRANCH  20  27
ENDBRANCH  18  19
ENDBRANCH  17  18
ENDBRANCH   3  17
TORSDOF 6
ENDMDL
MODEL 5
REMARK VINA RESULT:      -8.6      3.960      6.548
REMARK  Name = 5311507
REMARK  6 active torsions:
REMARK  status: ('A' for Active; 'I' for Inactive)
REMARK    1  A    between atoms: C_3  and  C_17
REMARK    2  A    between atoms: C_17  and  C_18
REMARK    3  A    between atoms: C_18  and  N_19
REMARK    4  A    between atoms: N_20  and  C_27
REMARK    5  A    between atoms: C_27  and  C_28
REMARK    6  A    between atoms: C_28  and  O_29
REMARK                            x       y       z     vdW  Elec       q    Type
REMARK                         _______ _______ _______ _____ _____    ______ ____
ROOT
ATOM      1 CL   UNL     1      28.735 -22.088 -16.829  0.00  0.00    -0.082 Cl
ATOM      2  S   UNL     1      33.027 -25.343 -13.544  0.00  0.00    -0.087 S 
ATOM      3  C   UNL     1      34.139 -23.114 -17.031  0.00  0.00    -0.028 C 
ATOM      4  C   UNL     1      33.712 -23.289 -15.766  0.00  0.00    -0.003 C 
ATOM      5  C   UNL     1      32.261 -23.493 -15.513  0.00  0.00    +0.007 C 
ATOM      6  C   UNL     1      34.717 -23.405 -14.674  0.00  0.00    +0.006 C 
ATOM      7  C   UNL     1      31.856 -24.398 -14.515  0.00  0.00    +0.029 C 
ATOM      8  C   UNL     1      34.483 -24.305 -13.616  0.00  0.00    +0.029 C 
ATOM      9  C   UNL     1      31.277 -22.771 -16.212  0.00  0.00    +0.012 C 
ATOM     10  C   UNL     1      35.874 -22.608 -14.640  0.00  0.00    +0.000 C 
ATOM     11  C   UNL     1      30.489 -24.597 -14.262  0.00  0.00    +0.007 C 
ATOM     12  C   UNL     1      35.420 -24.421 -12.577  0.00  0.00    +0.006 C 
ATOM     13  C   UNL     1      29.921 -22.971 -15.949  0.00  0.00    +0.058 C 
ATOM     14  C   UNL     1      36.795 -22.725 -13.598  0.00  0.00    +0.000 C 
ATOM     15  C   UNL     1      29.527 -23.887 -14.979  0.00  0.00    +0.012 C 
ATOM     16  C   UNL     1      36.571 -23.636 -12.571  0.00  0.00    +0.001 C 
ENDROOT
BRANCH   3  17
ATOM     17  C   UNL     1      33.223 -22.984 -18.206  0.00  0.00    +0.003 C 
BRANCH  17  18
ATOM     18  C   UNL     1      34.014 -22.790 -19.499  0.00  0.00    -0.073 C 
BRANCH  18  19
ATOM     19  N   UNL     1      34.326 -21.375 -19.693  0.00  0.00    +0.384 N 
ATOM     20  N   UNL     1      34.992 -19.087 -21.330  0.00  0.00    +0.386 N 
ATOM     21  C   UNL     1      35.669 -21.211 -20.264  0.00  0.00    -0.101 C 
ATOM     22  C   UNL     1      33.323 -20.732 -20.550  0.00  0.00    -0.101 C 
ATOM     23  C   UNL     1      35.996 -19.728 -20.472  0.00  0.00    -0.101 C 
ATOM     24  C   UNL     1      33.650 -19.250 -20.757  0.00  0.00    -0.101 C 
ATOM     25  H   UNL     1      34.308 -20.920 -18.781  0.00  0.00    -0.080 HD
ATOM     26  H   UNL     1      35.010 -19.543 -22.242  0.00  0.00    -0.080 HD
BRANCH  20  27
ATOM     27  C   UNL     1      35.305 -17.673 -21.526  0.00  0.00    -0.045 C 
BRANCH  27  28
ATOM     28  C   UNL     1      34.765 -17.183 -22.859  0.00  0.00    +0.115 C 
BRANCH  28  29
ATOM     29  O   UNL     1      35.742 -16.352 -23.471  0.00  0.00    -0.384 OA
ATOM     30  H   UNL     1      36.276 -16.880 -24.085  0.00  0.00    +0.210 HD
ENDBRANCH  28  29
ENDBRANCH  27  28
ENDBRANCH  20  27
ENDBRANCH  18  19
ENDBRANCH  17  18
ENDBRANCH   3  17
TORSDOF 6
ENDMDL
MODEL 6
REMARK VINA RESULT:      -8.6      4.110      7.450
REMARK  Name = 5311507
REMARK  6 active torsions:
REMARK  status: ('A' for Active; 'I' for Inactive)
REMARK    1  A    between atoms: C_3  and  C_17
REMARK    2  A    between atoms: C_17  and  C_18
REMARK    3  A    between atoms: C_18  and  N_19
REMARK    4  A    between atoms: N_20  and  C_27
REMARK    5  A    between atoms: C_27  and  C_28
REMARK    6  A    between atoms: C_28  and  O_29
REMARK                            x       y       z     vdW  Elec       q    Type
REMARK                         _______ _______ _______ _____ _____    ______ ____
ROOT
ATOM      1 CL   UNL     1      37.561 -25.174 -15.265  0.00  0.00    -0.082 Cl
ATOM      2  S   UNL     1      31.939 -23.225 -13.169  0.00  0.00    -0.087 S 
ATOM      3  C   UNL     1      32.974 -22.927 -17.317  0.00  0.00    -0.028 C 
ATOM      4  C   UNL     1      32.670 -23.557 -16.165  0.00  0.00    -0.003 C 
ATOM      5  C   UNL     1      33.761 -23.874 -15.205  0.00  0.00    +0.007 C 
ATOM      6  C   UNL     1      31.241 -23.796 -15.828  0.00  0.00    +0.006 C 
ATOM      7  C   UNL     1      33.516 -23.763 -13.823  0.00  0.00    +0.029 C 
ATOM      8  C   UNL     1      30.820 -23.679 -14.490  0.00  0.00    +0.029 C 
ATOM      9  C   UNL     1      35.019 -24.330 -15.635  0.00  0.00    +0.012 C 
ATOM     10  C   UNL     1      30.303 -24.184 -16.801  0.00  0.00    +0.000 C 
ATOM     11  C   UNL     1      34.534 -24.065 -12.906  0.00  0.00    +0.007 C 
ATOM     12  C   UNL     1      29.476 -23.908 -14.157  0.00  0.00    +0.006 C 
ATOM     13  C   UNL     1      36.023 -24.634 -14.714  0.00  0.00    +0.058 C 
ATOM     14  C   UNL     1      28.970 -24.416 -16.459  0.00  0.00    +0.000 C 
ATOM     15  C   UNL     1      35.782 -24.496 -13.351  0.00  0.00    +0.012 C 
ATOM     16  C   UNL     1      28.556 -24.272 -15.139  0.00  0.00    +0.001 C 
ENDROOT
BRANCH   3  17
ATOM     17  C   UNL     1      34.373 -22.633 -17.758  0.00  0.00    +0.003 C 
BRANCH  17  18
ATOM     18  C   UNL     1      34.447 -22.478 -19.277  0.00  0.00    -0.073 C 
BRANCH  18  19
ATOM     19  N   UNL     1      34.715 -21.086 -19.630  0.00  0.00    +0.384 N 
ATOM     20  N   UNL     1      35.309 -18.977 -21.518  0.00  0.00    +0.386 N 
ATOM     21  C   UNL     1      36.051 -20.946 -20.222  0.00  0.00    -0.101 C 
ATOM     22  C   UNL     1      33.692 -20.575 -20.550  0.00  0.00    -0.101 C 
ATOM     23  C   UNL     1      36.332 -19.487 -20.598  0.00  0.00    -0.101 C 
ATOM     24  C   UNL     1      33.973 -19.116 -20.925  0.00  0.00    -0.101 C 
ATOM     25  H   UNL     1      34.682 -20.531 -18.775  0.00  0.00    -0.080 HD
ATOM     26  H   UNL     1      35.340 -19.533 -22.373  0.00  0.00    -0.080 HD
BRANCH  20  27
ATOM     27  C   UNL     1      35.577 -17.586 -21.874  0.00  0.00    -0.045 C 
BRANCH  27  28
ATOM     28  C   UNL     1      35.008 -17.263 -23.246  0.00  0.00    +0.115 C 
BRANCH  28  29
ATOM     29  O   UNL     1      35.630 -16.081 -23.733  0.00  0.00    -0.384 OA
ATOM     30  H   UNL     1      36.437 -16.317 -24.216  0.00  0.00    +0.210 HD
ENDBRANCH  28  29
ENDBRANCH  27  28
ENDBRANCH  20  27
ENDBRANCH  18  19
ENDBRANCH  17  18
ENDBRANCH   3  17
TORSDOF 6
ENDMDL
MODEL 7
REMARK VINA RESULT:      -8.5      9.554     12.853
REMARK  Name = 5311507
REMARK  6 active torsions:
REMARK  status: ('A' for Active; 'I' for Inactive)
REMARK    1  A    between atoms: C_3  and  C_17
REMARK    2  A    between atoms: C_17  and  C_18
REMARK    3  A    between atoms: C_18  and  N_19
REMARK    4  A    between atoms: N_20  and  C_27
REMARK    5  A    between atoms: C_27  and  C_28
REMARK    6  A    between atoms: C_28  and  O_29
REMARK                            x       y       z     vdW  Elec       q    Type
REMARK                         _______ _______ _______ _____ _____    ______ ____
ROOT
ATOM      1 CL   UNL     1      30.522 -10.794 -19.502  0.00  0.00    -0.082 Cl
ATOM      2  S   UNL     1      34.101 -10.669 -24.696  0.00  0.00    -0.087 S 
ATOM      3  C   UNL     1      33.345 -14.342 -22.623  0.00  0.00    -0.028 C 
ATOM      4  C   UNL     1      33.037 -13.262 -23.366  0.00  0.00    -0.003 C 
ATOM      5  C   UNL     1      32.663 -11.995 -22.681  0.00  0.00    +0.007 C 
ATOM      6  C   UNL     1      33.209 -13.328 -24.843  0.00  0.00    +0.006 C 
ATOM      7  C   UNL     1      33.092 -10.768 -23.221  0.00  0.00    +0.029 C 
ATOM      8  C   UNL     1      33.676 -12.193 -25.533  0.00  0.00    +0.029 C 
ATOM      9  C   UNL     1      31.852 -11.984 -21.534  0.00  0.00    +0.012 C 
ATOM     10  C   UNL     1      32.873 -14.477 -25.580  0.00  0.00    +0.000 C 
ATOM     11  C   UNL     1      32.742  -9.565 -22.588  0.00  0.00    +0.007 C 
ATOM     12  C   UNL     1      33.838 -12.239 -26.927  0.00  0.00    +0.006 C 
ATOM     13  C   UNL     1      31.503 -10.782 -20.916  0.00  0.00    +0.058 C 
ATOM     14  C   UNL     1      33.030 -14.511 -26.966  0.00  0.00    +0.000 C 
ATOM     15  C   UNL     1      31.953  -9.574 -21.439  0.00  0.00    +0.012 C 
ATOM     16  C   UNL     1      33.518 -13.395 -27.638  0.00  0.00    +0.001 C 
ENDROOT
BRANCH   3  17
ATOM     17  C   UNL     1      33.212 -14.391 -21.134  0.00  0.00    +0.003 C 
BRANCH  17  18
ATOM     18  C   UNL     1      32.558 -15.697 -20.685  0.00  0.00    -0.073 C 
BRANCH  18  19
ATOM     19  N   UNL     1      33.364 -16.839 -21.111  0.00  0.00    +0.384 N 
ATOM     20  N   UNL     1      35.013 -19.159 -20.603  0.00  0.00    +0.386 N 
ATOM     21  C   UNL     1      34.750 -16.703 -20.646  0.00  0.00    -0.101 C 
ATOM     22  C   UNL     1      32.783 -18.097 -20.627  0.00  0.00    -0.101 C 
ATOM     23  C   UNL     1      35.595 -17.903 -21.088  0.00  0.00    -0.101 C 
ATOM     24  C   UNL     1      33.628 -19.296 -21.070  0.00  0.00    -0.101 C 
ATOM     25  H   UNL     1      33.368 -16.860 -22.130  0.00  0.00    -0.080 HD
ATOM     26  H   UNL     1      35.008 -19.139 -19.583  0.00  0.00    -0.080 HD
BRANCH  20  27
ATOM     27  C   UNL     1      35.819 -20.302 -21.027  0.00  0.00    -0.045 C 
BRANCH  27  28
ATOM     28  C   UNL     1      36.287 -21.105 -19.824  0.00  0.00    +0.115 C 
BRANCH  28  29
ATOM     29  O   UNL     1      35.444 -22.240 -19.676  0.00  0.00    -0.384 OA
ATOM     30  H   UNL     1      35.825 -22.990 -20.159  0.00  0.00    +0.210 HD
ENDBRANCH  28  29
ENDBRANCH  27  28
ENDBRANCH  20  27
ENDBRANCH  18  19
ENDBRANCH  17  18
ENDBRANCH   3  17
TORSDOF 6
ENDMDL
MODEL 8
REMARK VINA RESULT:      -7.9      9.824     13.100
REMARK  Name = 5311507
REMARK  6 active torsions:
REMARK  status: ('A' for Active; 'I' for Inactive)
REMARK    1  A    between atoms: C_3  and  C_17
REMARK    2  A    between atoms: C_17  and  C_18
REMARK    3  A    between atoms: C_18  and  N_19
REMARK    4  A    between atoms: N_20  and  C_27
REMARK    5  A    between atoms: C_27  and  C_28
REMARK    6  A    between atoms: C_28  and  O_29
REMARK                            x       y       z     vdW  Elec       q    Type
REMARK                         _______ _______ _______ _____ _____    ______ ____
ROOT
ATOM      1 CL   UNL     1      30.365 -10.754 -19.345  0.00  0.00    -0.082 Cl
ATOM      2  S   UNL     1      34.035 -10.649 -24.476  0.00  0.00    -0.087 S 
ATOM      3  C   UNL     1      33.161 -14.328 -22.461  0.00  0.00    -0.028 C 
ATOM      4  C   UNL     1      32.891 -13.233 -23.196  0.00  0.00    -0.003 C 
ATOM      5  C   UNL     1      32.534 -11.966 -22.502  0.00  0.00    +0.007 C 
ATOM      6  C   UNL     1      33.086 -13.285 -24.670  0.00  0.00    +0.006 C 
ATOM      7  C   UNL     1      32.999 -10.743 -23.019  0.00  0.00    +0.029 C 
ATOM      8  C   UNL     1      33.591 -12.153 -25.339  0.00  0.00    +0.029 C 
ATOM      9  C   UNL     1      31.703 -11.949 -21.369  0.00  0.00    +0.012 C 
ATOM     10  C   UNL     1      32.737 -14.417 -25.427  0.00  0.00    +0.000 C 
ATOM     11  C   UNL     1      32.666  -9.540 -22.378  0.00  0.00    +0.007 C 
ATOM     12  C   UNL     1      33.776 -12.187 -26.730  0.00  0.00    +0.006 C 
ATOM     13  C   UNL     1      31.371 -10.747 -20.742  0.00  0.00    +0.058 C 
ATOM     14  C   UNL     1      32.918 -14.438 -26.811  0.00  0.00    +0.000 C 
ATOM     15  C   UNL     1      31.856  -9.544 -21.243  0.00  0.00    +0.012 C 
ATOM     16  C   UNL     1      33.442 -13.326 -27.460  0.00  0.00    +0.001 C 
ENDROOT
BRANCH   3  17
ATOM     17  C   UNL     1      33.002 -14.392 -20.975  0.00  0.00    +0.003 C 
BRANCH  17  18
ATOM     18  C   UNL     1      34.297 -14.846 -20.304  0.00  0.00    -0.073 C 
BRANCH  18  19
ATOM     19  N   UNL     1      34.683 -16.168 -20.792  0.00  0.00    +0.384 N 
ATOM     20  N   UNL     1      34.554 -18.354 -22.681  0.00  0.00    +0.386 N 
ATOM     21  C   UNL     1      33.522 -17.065 -20.842  0.00  0.00    -0.101 C 
ATOM     22  C   UNL     1      35.315 -16.072 -22.114  0.00  0.00    -0.101 C 
ATOM     23  C   UNL     1      33.924 -18.451 -21.359  0.00  0.00    -0.101 C 
ATOM     24  C   UNL     1      35.717 -17.458 -22.628  0.00  0.00    -0.101 C 
ATOM     25  H   UNL     1      35.362 -16.559 -20.140  0.00  0.00    -0.080 HD
ATOM     26  H   UNL     1      33.875 -17.961 -23.333  0.00  0.00    -0.080 HD
BRANCH  20  27
ATOM     27  C   UNL     1      34.938 -19.676 -23.170  0.00  0.00    -0.045 C 
BRANCH  27  28
ATOM     28  C   UNL     1      34.837 -19.738 -24.686  0.00  0.00    +0.115 C 
BRANCH  28  29
ATOM     29  O   UNL     1      33.901 -18.761 -25.121  0.00  0.00    -0.384 OA
ATOM     30  H   UNL     1      33.236 -19.181 -25.689  0.00  0.00    +0.210 HD
ENDBRANCH  28  29
ENDBRANCH  27  28
ENDBRANCH  20  27
ENDBRANCH  18  19
ENDBRANCH  17  18
ENDBRANCH   3  17
TORSDOF 6
ENDMDL
MODEL 9
REMARK VINA RESULT:      -7.7      2.415      4.702
REMARK  Name = 5311507
REMARK  6 active torsions:
REMARK  status: ('A' for Active; 'I' for Inactive)
REMARK    1  A    between atoms: C_3  and  C_17
REMARK    2  A    between atoms: C_17  and  C_18
REMARK    3  A    between atoms: C_18  and  N_19
REMARK    4  A    between atoms: N_20  and  C_27
REMARK    5  A    between atoms: C_27  and  C_28
REMARK    6  A    between atoms: C_28  and  O_29
REMARK                            x       y       z     vdW  Elec       q    Type
REMARK                         _______ _______ _______ _____ _____    ______ ____
ROOT
ATOM      1 CL   UNL     1      36.195 -23.207 -13.364  0.00  0.00    -0.082 Cl
ATOM      2  S   UNL     1      36.830 -21.516 -19.408  0.00  0.00    -0.087 S 
ATOM      3  C   UNL     1      33.228 -23.359 -17.997  0.00  0.00    -0.028 C 
ATOM      4  C   UNL     1      34.152 -22.385 -18.107  0.00  0.00    -0.003 C 
ATOM      5  C   UNL     1      35.334 -22.405 -17.204  0.00  0.00    +0.007 C 
ATOM      6  C   UNL     1      34.031 -21.395 -19.212  0.00  0.00    +0.006 C 
ATOM      7  C   UNL     1      36.590 -22.015 -17.706  0.00  0.00    +0.029 C 
ATOM      8  C   UNL     1      35.197 -20.935 -19.854  0.00  0.00    +0.029 C 
ATOM      9  C   UNL     1      35.227 -22.757 -15.848  0.00  0.00    +0.012 C 
ATOM     10  C   UNL     1      32.789 -20.867 -19.605  0.00  0.00    +0.000 C 
ATOM     11  C   UNL     1      37.713 -22.023 -16.864  0.00  0.00    +0.007 C 
ATOM     12  C   UNL     1      35.099 -19.997 -20.894  0.00  0.00    +0.006 C 
ATOM     13  C   UNL     1      36.349 -22.756 -15.017  0.00  0.00    +0.058 C 
ATOM     14  C   UNL     1      32.703 -19.930 -20.636  0.00  0.00    +0.000 C 
ATOM     15  C   UNL     1      37.592 -22.395 -15.526  0.00  0.00    +0.012 C 
ATOM     16  C   UNL     1      33.856 -19.500 -21.283  0.00  0.00    +0.001 C 
ENDROOT
BRANCH   3  17
ATOM     17  C   UNL     1      33.247 -24.405 -16.929  0.00  0.00    +0.003 C 
BRANCH  17  18
ATOM     18  C   UNL     1      32.472 -23.944 -15.696  0.00  0.00    -0.073 C 
BRANCH  18  19
ATOM     19  N   UNL     1      31.051 -23.815 -16.010  0.00  0.00    +0.384 N 
ATOM     20  N   UNL     1      28.417 -22.694 -15.604  0.00  0.00    +0.386 N 
ATOM     21  C   UNL     1      30.225 -24.205 -14.861  0.00  0.00    -0.101 C 
ATOM     22  C   UNL     1      30.732 -22.444 -16.428  0.00  0.00    -0.101 C 
ATOM     23  C   UNL     1      28.734 -24.064 -15.187  0.00  0.00    -0.101 C 
ATOM     24  C   UNL     1      29.242 -22.305 -16.755  0.00  0.00    -0.101 C 
ATOM     25  H   UNL     1      30.841 -24.443 -16.785  0.00  0.00    -0.080 HD
ATOM     26  H   UNL     1      28.629 -22.065 -14.830  0.00  0.00    -0.080 HD
BRANCH  20  27
ATOM     27  C   UNL     1      26.995 -22.563 -15.917  0.00  0.00    -0.045 C 
BRANCH  27  28
ATOM     28  C   UNL     1      26.798 -21.764 -17.195  0.00  0.00    +0.115 C 
BRANCH  28  29
ATOM     29  O   UNL     1      26.668 -22.669 -18.283  0.00  0.00    -0.384 OA
ATOM     30  H   UNL     1      25.779 -22.591 -18.665  0.00  0.00    +0.210 HD
ENDBRANCH  28  29
ENDBRANCH  27  28
ENDBRANCH  20  27
ENDBRANCH  18  19
ENDBRANCH  17  18
ENDBRANCH   3  17
TORSDOF 6
ENDMDL
