MODEL 1
REMARK VINA RESULT:      -7.9      0.000      0.000
REMARK  Name = 1667
REMARK  7 active torsions:
REMARK  status: ('A' for Active; 'I' for Inactive)
REMARK    1  A    between atoms: C_4  and  N_13
REMARK    2  A    between atoms: C_7  and  C_16
REMARK    3  A    between atoms: C_8  and  C_21
REMARK    4  A    between atoms: C_16  and  C_17
REMARK    5  A    between atoms: C_17  and  C_18
REMARK    6  A    between atoms: C_18  and  O_19
REMARK    7  A    between atoms: C_21  and  O_22
REMARK                            x       y       z     vdW  Elec       q    Type
REMARK                         _______ _______ _______ _____ _____    ______ ____
ROOT
ATOM      1  O   UNL     1      32.901 -24.684 -13.121  0.00  0.00    -0.285 OA
ATOM      2  O   UNL     1      35.314 -22.600 -17.484  0.00  0.00    -0.285 OA
ATOM      3  N   UNL     1      36.862 -23.553 -15.111  0.00  0.00    -0.326 N 
ATOM      4  C   UNL     1      32.694 -23.727 -15.309  0.00  0.00    +0.091 C 
ATOM      5  C   UNL     1      34.899 -24.078 -14.205  0.00  0.00    +0.059 A 
ATOM      6  C   UNL     1      35.510 -23.546 -15.320  0.00  0.00    +0.102 A 
ATOM      7  C   UNL     1      37.126 -24.084 -13.874  0.00  0.00    +0.036 A 
ATOM      8  C   UNL     1      35.924 -24.420 -13.288  0.00  0.00    +0.023 A 
ATOM      9  C   UNL     1      33.463 -24.213 -14.103  0.00  0.00    +0.210 C 
ATOM     10  C   UNL     1      33.319 -23.210 -16.386  0.00  0.00    +0.061 C 
ATOM     11  C   UNL     1      34.803 -23.078 -16.476  0.00  0.00    +0.213 C 
ATOM     12  C   UNL     1      37.867 -23.078 -16.038  0.00  0.00    +0.130 C 
ENDROOT
BRANCH   4  13
ATOM     13  N   UNL     1      31.336 -23.852 -15.217  0.00  0.00    -0.301 N 
ATOM     14  C   UNL     1      30.586 -22.699 -14.728  0.00  0.00    +0.112 C 
ATOM     15  C   UNL     1      30.525 -23.092 -16.165  0.00  0.00    +0.112 C 
ENDBRANCH   4  13
BRANCH   7  16
ATOM     16  C   UNL     1      38.506 -24.224 -13.359  0.00  0.00    +0.046 C 
BRANCH  16  17
ATOM     17  C   UNL     1      39.146 -25.571 -13.744  0.00  0.00    +0.038 C 
BRANCH  17  18
ATOM     18  C   UNL     1      40.450 -25.402 -14.509  0.00  0.00    +0.138 C 
BRANCH  18  19
ATOM     19  O   UNL     1      40.263 -25.853 -15.843  0.00  0.00    -0.382 OA
ATOM     20  H   UNL     1      40.536 -26.781 -15.912  0.00  0.00    +0.210 HD
ENDBRANCH  18  19
ENDBRANCH  17  18
ENDBRANCH  16  17
ENDBRANCH   7  16
BRANCH   8  21
ATOM     21  C   UNL     1      35.750 -25.024 -11.950  0.00  0.00    +0.165 C 
BRANCH  21  22
ATOM     22  O   UNL     1      35.082 -24.146 -11.040  0.00  0.00    -0.377 OA
ATOM     23  H   UNL     1      34.125 -24.296 -11.092  0.00  0.00    +0.211 HD
ENDBRANCH  21  22
ENDBRANCH   8  21
TORSDOF 7
ENDMDL
MODEL 2
REMARK VINA RESULT:      -7.8      2.111      4.153
REMARK  Name = 1667
REMARK  7 active torsions:
REMARK  status: ('A' for Active; 'I' for Inactive)
REMARK    1  A    between atoms: C_4  and  N_13
REMARK    2  A    between atoms: C_7  and  C_16
REMARK    3  A    between atoms: C_8  and  C_21
REMARK    4  A    between atoms: C_16  and  C_17
REMARK    5  A    between atoms: C_17  and  C_18
REMARK    6  A    between atoms: C_18  and  O_19
REMARK    7  A    between atoms: C_21  and  O_22
REMARK                            x       y       z     vdW  Elec       q    Type
REMARK                         _______ _______ _______ _____ _____    ______ ____
ROOT
ATOM      1  O   UNL     1      31.681 -22.428 -17.826  0.00  0.00    -0.285 OA
ATOM      2  O   UNL     1      31.196 -24.283 -12.774  0.00  0.00    -0.285 OA
ATOM      3  N   UNL     1      33.853 -23.979 -14.110  0.00  0.00    -0.326 N 
ATOM      4  C   UNL     1      30.253 -23.010 -15.991  0.00  0.00    +0.091 C 
ATOM      5  C   UNL     1      32.731 -23.233 -15.880  0.00  0.00    +0.059 A 
ATOM      6  C   UNL     1      32.602 -23.706 -14.592  0.00  0.00    +0.102 A 
ATOM      7  C   UNL     1      34.784 -23.686 -15.075  0.00  0.00    +0.036 A 
ATOM      8  C   UNL     1      34.115 -23.220 -16.186  0.00  0.00    +0.023 A 
ATOM      9  C   UNL     1      31.588 -22.850 -16.679  0.00  0.00    +0.210 C 
ATOM     10  C   UNL     1      30.157 -23.475 -14.730  0.00  0.00    +0.061 C 
ATOM     11  C   UNL     1      31.347 -23.866 -13.918  0.00  0.00    +0.213 C 
ATOM     12  C   UNL     1      34.161 -24.495 -12.794  0.00  0.00    +0.130 C 
ENDROOT
BRANCH   4  13
ATOM     13  N   UNL     1      29.169 -22.650 -16.743  0.00  0.00    -0.301 N 
ATOM     14  C   UNL     1      28.155 -23.671 -16.994  0.00  0.00    +0.112 C 
ATOM     15  C   UNL     1      27.883 -22.540 -16.059  0.00  0.00    +0.112 C 
ENDBRANCH   4  13
BRANCH   7  16
ATOM     16  C   UNL     1      36.233 -23.879 -14.849  0.00  0.00    +0.046 C 
BRANCH  16  17
ATOM     17  C   UNL     1      36.671 -25.342 -15.039  0.00  0.00    +0.038 C 
BRANCH  17  18
ATOM     18  C   UNL     1      37.512 -25.857 -13.880  0.00  0.00    +0.138 C 
BRANCH  18  19
ATOM     19  O   UNL     1      36.799 -26.893 -13.218  0.00  0.00    -0.382 OA
ATOM     20  H   UNL     1      36.226 -27.348 -13.854  0.00  0.00    +0.210 HD
ENDBRANCH  18  19
ENDBRANCH  17  18
ENDBRANCH  16  17
ENDBRANCH   7  16
BRANCH   8  21
ATOM     21  C   UNL     1      34.737 -22.791 -17.456  0.00  0.00    +0.165 C 
BRANCH  21  22
ATOM     22  O   UNL     1      34.205 -23.488 -18.586  0.00  0.00    -0.377 OA
ATOM     23  H   UNL     1      33.414 -23.982 -18.316  0.00  0.00    +0.211 HD
ENDBRANCH  21  22
ENDBRANCH   8  21
TORSDOF 7
ENDMDL
MODEL 3
REMARK VINA RESULT:      -7.7      2.076      6.305
REMARK  Name = 1667
REMARK  7 active torsions:
REMARK  status: ('A' for Active; 'I' for Inactive)
REMARK    1  A    between atoms: C_4  and  N_13
REMARK    2  A    between atoms: C_7  and  C_16
REMARK    3  A    between atoms: C_8  and  C_21
REMARK    4  A    between atoms: C_16  and  C_17
REMARK    5  A    between atoms: C_17  and  C_18
REMARK    6  A    between atoms: C_18  and  O_19
REMARK    7  A    between atoms: C_21  and  O_22
REMARK                            x       y       z     vdW  Elec       q    Type
REMARK                         _______ _______ _______ _____ _____    ______ ____
ROOT
ATOM      1  O   UNL     1      34.097 -24.343 -12.318  0.00  0.00    -0.285 OA
ATOM      2  O   UNL     1      35.912 -22.931 -17.208  0.00  0.00    -0.285 OA
ATOM      3  N   UNL     1      32.996 -23.002 -16.552  0.00  0.00    -0.326 N 
ATOM      4  C   UNL     1      35.963 -23.981 -13.780  0.00  0.00    +0.091 C 
ATOM      5  C   UNL     1      33.606 -23.651 -14.513  0.00  0.00    +0.059 A 
ATOM      6  C   UNL     1      34.074 -23.292 -15.758  0.00  0.00    +0.102 A 
ATOM      7  C   UNL     1      31.842 -23.172 -15.829  0.00  0.00    +0.036 A 
ATOM      8  C   UNL     1      32.191 -23.574 -14.558  0.00  0.00    +0.023 A 
ATOM      9  C   UNL     1      34.493 -24.020 -13.433  0.00  0.00    +0.210 C 
ATOM     10  C   UNL     1      36.392 -23.625 -15.007  0.00  0.00    +0.061 C 
ATOM     11  C   UNL     1      35.462 -23.246 -16.112  0.00  0.00    +0.213 C 
ATOM     12  C   UNL     1      33.051 -22.583 -17.936  0.00  0.00    +0.130 C 
ENDROOT
BRANCH   4  13
ATOM     13  N   UNL     1      36.806 -24.330 -12.762  0.00  0.00    -0.301 N 
ATOM     14  C   UNL     1      37.206 -25.731 -12.670  0.00  0.00    +0.112 C 
ATOM     15  C   UNL     1      38.176 -24.690 -13.118  0.00  0.00    +0.112 C 
ENDBRANCH   4  13
BRANCH   7  16
ATOM     16  C   UNL     1      30.507 -22.934 -16.419  0.00  0.00    +0.046 C 
BRANCH  16  17
ATOM     17  C   UNL     1      29.543 -24.113 -16.193  0.00  0.00    +0.038 C 
BRANCH  17  18
ATOM     18  C   UNL     1      28.083 -23.711 -16.337  0.00  0.00    +0.138 C 
BRANCH  18  19
ATOM     19  O   UNL     1      27.709 -23.816 -17.704  0.00  0.00    -0.382 OA
ATOM     20  H   UNL     1      27.144 -24.594 -17.826  0.00  0.00    +0.210 HD
ENDBRANCH  18  19
ENDBRANCH  17  18
ENDBRANCH  16  17
ENDBRANCH   7  16
BRANCH   8  21
ATOM     21  C   UNL     1      31.253 -23.869 -13.454  0.00  0.00    +0.165 C 
BRANCH  21  22
ATOM     22  O   UNL     1      31.232 -25.258 -13.114  0.00  0.00    -0.377 OA
ATOM     23  H   UNL     1      30.499 -25.430 -12.502  0.00  0.00    +0.211 HD
ENDBRANCH  21  22
ENDBRANCH   8  21
TORSDOF 7
ENDMDL
MODEL 4
REMARK VINA RESULT:      -7.6      2.527      6.278
REMARK  Name = 1667
REMARK  7 active torsions:
REMARK  status: ('A' for Active; 'I' for Inactive)
REMARK    1  A    between atoms: C_4  and  N_13
REMARK    2  A    between atoms: C_7  and  C_16
REMARK    3  A    between atoms: C_8  and  C_21
REMARK    4  A    between atoms: C_16  and  C_17
REMARK    5  A    between atoms: C_17  and  C_18
REMARK    6  A    between atoms: C_18  and  O_19
REMARK    7  A    between atoms: C_21  and  O_22
REMARK                            x       y       z     vdW  Elec       q    Type
REMARK                         _______ _______ _______ _____ _____    ______ ____
ROOT
ATOM      1  O   UNL     1      37.815 -22.373 -15.545  0.00  0.00    -0.285 OA
ATOM      2  O   UNL     1      32.871 -24.195 -14.346  0.00  0.00    -0.285 OA
ATOM      3  N   UNL     1      33.552 -23.093 -17.041  0.00  0.00    -0.326 N 
ATOM      4  C   UNL     1      36.329 -23.341 -13.932  0.00  0.00    +0.091 C 
ATOM      5  C   UNL     1      35.605 -22.772 -16.246  0.00  0.00    +0.059 A 
ATOM      6  C   UNL     1      34.345 -23.238 -15.935  0.00  0.00    +0.102 A 
ATOM      7  C   UNL     1      34.288 -22.540 -18.058  0.00  0.00    +0.036 A 
ATOM      8  C   UNL     1      35.568 -22.330 -17.592  0.00  0.00    +0.023 A 
ATOM      9  C   UNL     1      36.688 -22.783 -15.289  0.00  0.00    +0.210 C 
ATOM     10  C   UNL     1      35.088 -23.790 -13.656  0.00  0.00    +0.061 C 
ATOM     11  C   UNL     1      33.980 -23.773 -14.656  0.00  0.00    +0.213 C 
ATOM     12  C   UNL     1      32.155 -23.461 -17.137  0.00  0.00    +0.130 C 
ENDROOT
BRANCH   4  13
ATOM     13  N   UNL     1      37.351 -23.353 -13.023  0.00  0.00    -0.301 N 
ATOM     14  C   UNL     1      37.027 -23.005 -11.643  0.00  0.00    +0.112 C 
ATOM     15  C   UNL     1      37.345 -24.413 -12.019  0.00  0.00    +0.112 C 
ENDBRANCH   4  13
BRANCH   7  16
ATOM     16  C   UNL     1      33.702 -22.260 -19.386  0.00  0.00    +0.046 C 
BRANCH  16  17
ATOM     17  C   UNL     1      33.303 -20.782 -19.557  0.00  0.00    +0.038 C 
BRANCH  17  18
ATOM     18  C   UNL     1      33.987 -20.124 -20.746  0.00  0.00    +0.138 C 
BRANCH  18  19
ATOM     19  O   UNL     1      35.241 -19.604 -20.325  0.00  0.00    -0.382 OA
ATOM     20  H   UNL     1      35.251 -19.527 -19.359  0.00  0.00    +0.210 HD
ENDBRANCH  18  19
ENDBRANCH  17  18
ENDBRANCH  16  17
ENDBRANCH   7  16
BRANCH   8  21
ATOM     21  C   UNL     1      36.687 -21.749 -18.364  0.00  0.00    +0.165 C 
BRANCH  21  22
ATOM     22  O   UNL     1      37.096 -20.477 -17.855  0.00  0.00    -0.377 OA
ATOM     23  H   UNL     1      37.386 -19.914 -18.590  0.00  0.00    +0.211 HD
ENDBRANCH  21  22
ENDBRANCH   8  21
TORSDOF 7
ENDMDL
MODEL 5
REMARK VINA RESULT:      -7.6     10.522     13.093
REMARK  Name = 1667
REMARK  7 active torsions:
REMARK  status: ('A' for Active; 'I' for Inactive)
REMARK    1  A    between atoms: C_4  and  N_13
REMARK    2  A    between atoms: C_7  and  C_16
REMARK    3  A    between atoms: C_8  and  C_21
REMARK    4  A    between atoms: C_16  and  C_17
REMARK    5  A    between atoms: C_17  and  C_18
REMARK    6  A    between atoms: C_18  and  O_19
REMARK    7  A    between atoms: C_21  and  O_22
REMARK                            x       y       z     vdW  Elec       q    Type
REMARK                         _______ _______ _______ _____ _____    ______ ____
ROOT
ATOM      1  O   UNL     1      34.891 -16.009 -20.359  0.00  0.00    -0.285 OA
ATOM      2  O   UNL     1      34.636 -17.976 -25.385  0.00  0.00    -0.285 OA
ATOM      3  N   UNL     1      33.733 -15.207 -24.712  0.00  0.00    -0.326 N 
ATOM      4  C   UNL     1      35.278 -17.837 -21.860  0.00  0.00    +0.091 C 
ATOM      5  C   UNL     1      34.319 -15.667 -22.615  0.00  0.00    +0.059 A 
ATOM      6  C   UNL     1      34.256 -16.173 -23.896  0.00  0.00    +0.102 A 
ATOM      7  C   UNL     1      33.460 -14.086 -23.970  0.00  0.00    +0.036 A 
ATOM      8  C   UNL     1      33.815 -14.343 -22.662  0.00  0.00    +0.023 A 
ATOM      9  C   UNL     1      34.827 -16.440 -21.505  0.00  0.00    +0.210 C 
ATOM     10  C   UNL     1      35.205 -18.306 -23.121  0.00  0.00    +0.061 C 
ATOM     11  C   UNL     1      34.678 -17.495 -24.258  0.00  0.00    +0.213 C 
ATOM     12  C   UNL     1      33.499 -15.334 -26.135  0.00  0.00    +0.130 C 
ENDROOT
BRANCH   4  13
ATOM     13  N   UNL     1      35.759 -18.573 -20.812  0.00  0.00    -0.301 N 
ATOM     14  C   UNL     1      35.630 -20.025 -20.895  0.00  0.00    +0.112 C 
ATOM     15  C   UNL     1      36.962 -19.369 -21.046  0.00  0.00    +0.112 C 
ENDBRANCH   4  13
BRANCH   7  16
ATOM     16  C   UNL     1      32.883 -12.866 -24.576  0.00  0.00    +0.046 C 
BRANCH  16  17
ATOM     17  C   UNL     1      33.958 -11.838 -24.971  0.00  0.00    +0.038 C 
BRANCH  17  18
ATOM     18  C   UNL     1      33.961 -10.615 -24.066  0.00  0.00    +0.138 C 
BRANCH  18  19
ATOM     19  O   UNL     1      35.267 -10.057 -24.049  0.00  0.00    -0.382 OA
ATOM     20  H   UNL     1      35.403  -9.575 -23.219  0.00  0.00    +0.210 HD
ENDBRANCH  18  19
ENDBRANCH  17  18
ENDBRANCH  16  17
ENDBRANCH   7  16
BRANCH   8  21
ATOM     21  C   UNL     1      33.687 -13.403 -21.529  0.00  0.00    +0.165 C 
BRANCH  21  22
ATOM     22  O   UNL     1      32.687 -13.814 -20.592  0.00  0.00    -0.377 OA
ATOM     23  H   UNL     1      31.887 -14.082 -21.071  0.00  0.00    +0.211 HD
ENDBRANCH  21  22
ENDBRANCH   8  21
TORSDOF 7
ENDMDL
MODEL 6
REMARK VINA RESULT:      -7.6      2.896      5.981
REMARK  Name = 1667
REMARK  7 active torsions:
REMARK  status: ('A' for Active; 'I' for Inactive)
REMARK    1  A    between atoms: C_4  and  N_13
REMARK    2  A    between atoms: C_7  and  C_16
REMARK    3  A    between atoms: C_8  and  C_21
REMARK    4  A    between atoms: C_16  and  C_17
REMARK    5  A    between atoms: C_17  and  C_18
REMARK    6  A    between atoms: C_18  and  O_19
REMARK    7  A    between atoms: C_21  and  O_22
REMARK                            x       y       z     vdW  Elec       q    Type
REMARK                         _______ _______ _______ _____ _____    ______ ____
ROOT
ATOM      1  O   UNL     1      33.203 -22.286 -19.383  0.00  0.00    -0.285 OA
ATOM      2  O   UNL     1      37.601 -22.080 -16.250  0.00  0.00    -0.285 OA
ATOM      3  N   UNL     1      35.017 -23.240 -15.292  0.00  0.00    -0.326 N 
ATOM      4  C   UNL     1      35.504 -21.663 -19.129  0.00  0.00    +0.091 C 
ATOM      5  C   UNL     1      34.203 -22.748 -17.304  0.00  0.00    +0.059 A 
ATOM      6  C   UNL     1      35.327 -22.692 -16.508  0.00  0.00    +0.102 A 
ATOM      7  C   UNL     1      33.706 -23.646 -15.299  0.00  0.00    +0.036 A 
ATOM      8  C   UNL     1      33.175 -23.352 -16.537  0.00  0.00    +0.023 A 
ATOM      9  C   UNL     1      34.192 -22.247 -18.659  0.00  0.00    +0.210 C 
ATOM     10  C   UNL     1      36.588 -21.622 -18.328  0.00  0.00    +0.061 C 
ATOM     11  C   UNL     1      36.583 -22.144 -16.930  0.00  0.00    +0.213 C 
ATOM     12  C   UNL     1      35.919 -23.375 -14.169  0.00  0.00    +0.130 C 
ENDROOT
BRANCH   4  13
ATOM     13  N   UNL     1      35.499 -21.187 -20.411  0.00  0.00    -0.301 N 
ATOM     14  C   UNL     1      34.808 -19.926 -20.657  0.00  0.00    +0.112 C 
ATOM     15  C   UNL     1      36.297 -19.996 -20.689  0.00  0.00    +0.112 C 
ENDBRANCH   4  13
BRANCH   7  16
ATOM     16  C   UNL     1      33.077 -24.278 -14.120  0.00  0.00    +0.046 C 
BRANCH  16  17
ATOM     17  C   UNL     1      32.051 -23.358 -13.432  0.00  0.00    +0.038 C 
BRANCH  17  18
ATOM     18  C   UNL     1      30.624 -23.868 -13.565  0.00  0.00    +0.138 C 
BRANCH  18  19
ATOM     19  O   UNL     1      30.438 -24.954 -12.667  0.00  0.00    -0.382 OA
ATOM     20  H   UNL     1      31.215 -25.034 -12.092  0.00  0.00    +0.210 HD
ENDBRANCH  18  19
ENDBRANCH  17  18
ENDBRANCH  16  17
ENDBRANCH   7  16
BRANCH   8  21
ATOM     21  C   UNL     1      31.789 -23.623 -16.971  0.00  0.00    +0.165 C 
BRANCH  21  22
ATOM     22  O   UNL     1      31.038 -22.423 -17.173  0.00  0.00    -0.377 OA
ATOM     23  H   UNL     1      31.263 -22.044 -18.038  0.00  0.00    +0.211 HD
ENDBRANCH  21  22
ENDBRANCH   8  21
TORSDOF 7
ENDMDL
MODEL 7
REMARK VINA RESULT:      -7.6      1.620      2.114
REMARK  Name = 1667
REMARK  7 active torsions:
REMARK  status: ('A' for Active; 'I' for Inactive)
REMARK    1  A    between atoms: C_4  and  N_13
REMARK    2  A    between atoms: C_7  and  C_16
REMARK    3  A    between atoms: C_8  and  C_21
REMARK    4  A    between atoms: C_16  and  C_17
REMARK    5  A    between atoms: C_17  and  C_18
REMARK    6  A    between atoms: C_18  and  O_19
REMARK    7  A    between atoms: C_21  and  O_22
REMARK                            x       y       z     vdW  Elec       q    Type
REMARK                         _______ _______ _______ _____ _____    ______ ____
ROOT
ATOM      1  O   UNL     1      32.261 -24.295 -13.025  0.00  0.00    -0.285 OA
ATOM      2  O   UNL     1      32.747 -22.663 -18.154  0.00  0.00    -0.285 OA
ATOM      3  N   UNL     1      35.099 -22.871 -16.320  0.00  0.00    -0.326 N 
ATOM      4  C   UNL     1      31.209 -23.812 -15.125  0.00  0.00    +0.091 C 
ATOM      5  C   UNL     1      33.661 -23.558 -14.767  0.00  0.00    +0.059 A 
ATOM      6  C   UNL     1      33.779 -23.142 -16.076  0.00  0.00    +0.102 A 
ATOM      7  C   UNL     1      35.828 -23.109 -15.182  0.00  0.00    +0.036 A 
ATOM      8  C   UNL     1      34.960 -23.538 -14.201  0.00  0.00    +0.023 A 
ATOM      9  C   UNL     1      32.388 -23.923 -14.187  0.00  0.00    +0.210 C 
ATOM     10  C   UNL     1      31.355 -23.402 -16.400  0.00  0.00    +0.061 C 
ATOM     11  C   UNL     1      32.677 -23.029 -16.985  0.00  0.00    +0.213 C 
ATOM     12  C   UNL     1      35.651 -22.407 -17.574  0.00  0.00    +0.130 C 
ENDROOT
BRANCH   4  13
ATOM     13  N   UNL     1      30.003 -24.155 -14.580  0.00  0.00    -0.301 N 
ATOM     14  C   UNL     1      28.875 -24.318 -15.492  0.00  0.00    +0.112 C 
ATOM     15  C   UNL     1      29.506 -25.504 -14.843  0.00  0.00    +0.112 C 
ENDBRANCH   4  13
BRANCH   7  16
ATOM     16  C   UNL     1      37.292 -22.905 -15.134  0.00  0.00    +0.046 C 
BRANCH  16  17
ATOM     17  C   UNL     1      38.077 -24.218 -15.313  0.00  0.00    +0.038 C 
BRANCH  17  18
ATOM     18  C   UNL     1      38.547 -24.804 -13.990  0.00  0.00    +0.138 C 
BRANCH  18  19
ATOM     19  O   UNL     1      37.949 -26.081 -13.814  0.00  0.00    -0.382 OA
ATOM     20  H   UNL     1      37.055 -25.972 -13.453  0.00  0.00    +0.210 HD
ENDBRANCH  18  19
ENDBRANCH  17  18
ENDBRANCH  16  17
ENDBRANCH   7  16
BRANCH   8  21
ATOM     21  C   UNL     1      35.329 -23.904 -12.817  0.00  0.00    +0.165 C 
BRANCH  21  22
ATOM     22  O   UNL     1      35.291 -25.317 -12.601  0.00  0.00    -0.377 OA
ATOM     23  H   UNL     1      36.189 -25.678 -12.671  0.00  0.00    +0.211 HD
ENDBRANCH  21  22
ENDBRANCH   8  21
TORSDOF 7
ENDMDL
MODEL 8
REMARK VINA RESULT:      -7.6     10.272     12.478
REMARK  Name = 1667
REMARK  7 active torsions:
REMARK  status: ('A' for Active; 'I' for Inactive)
REMARK    1  A    between atoms: C_4  and  N_13
REMARK    2  A    between atoms: C_7  and  C_16
REMARK    3  A    between atoms: C_8  and  C_21
REMARK    4  A    between atoms: C_16  and  C_17
REMARK    5  A    between atoms: C_17  and  C_18
REMARK    6  A    between atoms: C_18  and  O_19
REMARK    7  A    between atoms: C_21  and  O_22
REMARK                            x       y       z     vdW  Elec       q    Type
REMARK                         _______ _______ _______ _____ _____    ______ ____
ROOT
ATOM      1  O   UNL     1      34.180 -16.729 -26.176  0.00  0.00    -0.285 OA
ATOM      2  O   UNL     1      33.057 -13.443 -22.035  0.00  0.00    -0.285 OA
ATOM      3  N   UNL     1      34.399 -16.087 -21.651  0.00  0.00    -0.326 N 
ATOM      4  C   UNL     1      33.253 -14.657 -25.404  0.00  0.00    +0.091 C 
ATOM      5  C   UNL     1      34.259 -16.331 -23.858  0.00  0.00    +0.059 A 
ATOM      6  C   UNL     1      33.970 -15.489 -22.805  0.00  0.00    +0.102 A 
ATOM      7  C   UNL     1      34.960 -17.302 -21.951  0.00  0.00    +0.036 A 
ATOM      8  C   UNL     1      34.887 -17.480 -23.316  0.00  0.00    +0.023 A 
ATOM      9  C   UNL     1      33.932 -15.995 -25.225  0.00  0.00    +0.210 C 
ATOM     10  C   UNL     1      32.983 -13.855 -24.355  0.00  0.00    +0.061 C 
ATOM     11  C   UNL     1      33.328 -14.216 -22.949  0.00  0.00    +0.213 C 
ATOM     12  C   UNL     1      34.286 -15.536 -20.318  0.00  0.00    +0.130 C 
ENDROOT
BRANCH   4  13
ATOM     13  N   UNL     1      32.941 -14.335 -26.696  0.00  0.00    -0.301 N 
ATOM     14  C   UNL     1      32.467 -12.979 -26.955  0.00  0.00    +0.112 C 
ATOM     15  C   UNL     1      33.829 -13.406 -27.390  0.00  0.00    +0.112 C 
ENDBRANCH   4  13
BRANCH   7  16
ATOM     16  C   UNL     1      35.518 -18.188 -20.906  0.00  0.00    +0.046 C 
BRANCH  16  17
ATOM     17  C   UNL     1      34.810 -19.554 -20.850  0.00  0.00    +0.038 C 
BRANCH  17  18
ATOM     18  C   UNL     1      33.294 -19.428 -20.812  0.00  0.00    +0.138 C 
BRANCH  18  19
ATOM     19  O   UNL     1      32.763 -20.497 -20.041  0.00  0.00    -0.382 OA
ATOM     20  H   UNL     1      33.229 -20.547 -19.192  0.00  0.00    +0.210 HD
ENDBRANCH  18  19
ENDBRANCH  17  18
ENDBRANCH  16  17
ENDBRANCH   7  16
BRANCH   8  21
ATOM     21  C   UNL     1      35.377 -18.658 -24.064  0.00  0.00    +0.165 C 
BRANCH  21  22
ATOM     22  O   UNL     1      34.328 -19.330 -24.766  0.00  0.00    -0.377 OA
ATOM     23  H   UNL     1      34.272 -20.249 -24.459  0.00  0.00    +0.211 HD
ENDBRANCH  21  22
ENDBRANCH   8  21
TORSDOF 7
ENDMDL
MODEL 9
REMARK VINA RESULT:      -7.4     10.003     12.008
REMARK  Name = 1667
REMARK  7 active torsions:
REMARK  status: ('A' for Active; 'I' for Inactive)
REMARK    1  A    between atoms: C_4  and  N_13
REMARK    2  A    between atoms: C_7  and  C_16
REMARK    3  A    between atoms: C_8  and  C_21
REMARK    4  A    between atoms: C_16  and  C_17
REMARK    5  A    between atoms: C_17  and  C_18
REMARK    6  A    between atoms: C_18  and  O_19
REMARK    7  A    between atoms: C_21  and  O_22
REMARK                            x       y       z     vdW  Elec       q    Type
REMARK                         _______ _______ _______ _____ _____    ______ ____
ROOT
ATOM      1  O   UNL     1      33.417 -13.607 -22.265  0.00  0.00    -0.285 OA
ATOM      2  O   UNL     1      34.379 -17.229 -26.158  0.00  0.00    -0.285 OA
ATOM      3  N   UNL     1      34.633 -17.904 -23.257  0.00  0.00    -0.326 N 
ATOM      4  C   UNL     1      33.516 -14.113 -24.606  0.00  0.00    +0.091 C 
ATOM      5  C   UNL     1      34.036 -15.800 -22.849  0.00  0.00    +0.059 A 
ATOM      6  C   UNL     1      34.280 -16.720 -23.846  0.00  0.00    +0.102 A 
ATOM      7  C   UNL     1      34.618 -17.754 -21.893  0.00  0.00    +0.036 A 
ATOM      8  C   UNL     1      34.249 -16.456 -21.611  0.00  0.00    +0.023 A 
ATOM      9  C   UNL     1      33.639 -14.440 -23.136  0.00  0.00    +0.210 C 
ATOM     10  C   UNL     1      33.762 -15.034 -25.559  0.00  0.00    +0.061 C 
ATOM     11  C   UNL     1      34.170 -16.435 -25.247  0.00  0.00    +0.213 C 
ATOM     12  C   UNL     1      34.972 -19.129 -23.950  0.00  0.00    +0.130 C 
ENDROOT
BRANCH   4  13
ATOM     13  N   UNL     1      33.142 -12.827 -24.883  0.00  0.00    -0.301 N 
ATOM     14  C   UNL     1      34.194 -11.816 -24.929  0.00  0.00    +0.112 C 
ATOM     15  C   UNL     1      33.528 -12.280 -26.181  0.00  0.00    +0.112 C 
ENDBRANCH   4  13
BRANCH   7  16
ATOM     16  C   UNL     1      34.957 -18.866 -20.979  0.00  0.00    +0.046 C 
BRANCH  16  17
ATOM     17  C   UNL     1      33.743 -19.756 -20.655  0.00  0.00    +0.038 C 
BRANCH  17  18
ATOM     18  C   UNL     1      34.126 -21.010 -19.883  0.00  0.00    +0.138 C 
BRANCH  18  19
ATOM     19  O   UNL     1      33.002 -21.878 -19.830  0.00  0.00    -0.382 OA
ATOM     20  H   UNL     1      32.261 -21.478 -20.310  0.00  0.00    +0.210 HD
ENDBRANCH  18  19
ENDBRANCH  17  18
ENDBRANCH  16  17
ENDBRANCH   7  16
BRANCH   8  21
ATOM     21  C   UNL     1      34.108 -15.869 -20.262  0.00  0.00    +0.165 C 
BRANCH  21  22
ATOM     22  O   UNL     1      35.030 -14.799 -20.035  0.00  0.00    -0.377 OA
ATOM     23  H   UNL     1      34.564 -13.951 -20.108  0.00  0.00    +0.211 HD
ENDBRANCH  21  22
ENDBRANCH   8  21
TORSDOF 7
ENDMDL
