MODEL 1
REMARK VINA RESULT:      -6.2      0.000      0.000
REMARK  Name = 3767
REMARK  2 active torsions:
REMARK  status: ('A' for Active; 'I' for Inactive)
REMARK    1  A    between atoms: N_2  and  N_11
REMARK    2  A    between atoms: C_3  and  C_6
REMARK                            x       y       z     vdW  Elec       q    Type
REMARK                         _______ _______ _______ _____ _____    ______ ____
ROOT
ATOM      1  O   UNL     1      27.639 -23.630 -17.774  0.00  0.00    -0.269 OA
ATOM      2  N   UNL     1      27.164 -22.232 -15.984  0.00  0.00    -0.250 N 
ATOM      3  C   UNL     1      27.943 -23.178 -16.655  0.00  0.00    +0.259 C 
ATOM      4  H   UNL     1      27.441 -21.902 -15.100  0.00  0.00    +0.169 HD
ENDROOT
BRANCH   3   6
ATOM      5  N   UNL     1      31.444 -24.537 -14.667  0.00  0.00    -0.242 NA
ATOM      6  C   UNL     1      29.141 -23.643 -15.975  0.00  0.00    +0.058 C 
ATOM      7  C   UNL     1      29.083 -24.753 -15.139  0.00  0.00    +0.025 C 
ATOM      8  C   UNL     1      30.349 -22.978 -16.155  0.00  0.00    +0.025 C 
ATOM      9  C   UNL     1      30.252 -25.157 -14.515  0.00  0.00    +0.099 C 
ATOM     10  C   UNL     1      31.461 -23.461 -15.485  0.00  0.00    +0.099 C 
ENDBRANCH   3   6
BRANCH   2  11
ATOM     11  N   UNL     1      26.001 -21.759 -16.564  0.00  0.00    -0.254 NA
ATOM     12  H   UNL     1      25.588 -22.491 -17.142  0.00  0.00    +0.140 HD
ATOM     13  H   UNL     1      26.215 -20.948 -17.144  0.00  0.00    +0.140 HD
ENDBRANCH   2  11
TORSDOF 2
ENDMDL
MODEL 2
REMARK VINA RESULT:      -6.0     11.191     11.857
REMARK  Name = 3767
REMARK  2 active torsions:
REMARK  status: ('A' for Active; 'I' for Inactive)
REMARK    1  A    between atoms: N_2  and  N_11
REMARK    2  A    between atoms: C_3  and  C_6
REMARK                            x       y       z     vdW  Elec       q    Type
REMARK                         _______ _______ _______ _____ _____    ______ ____
ROOT
ATOM      1  O   UNL     1      34.879 -17.427 -25.860  0.00  0.00    -0.269 OA
ATOM      2  N   UNL     1      33.686 -15.534 -25.245  0.00  0.00    -0.250 N 
ATOM      3  C   UNL     1      34.462 -16.663 -24.970  0.00  0.00    +0.259 C 
ATOM      4  H   UNL     1      33.377 -14.958 -24.510  0.00  0.00    +0.169 HD
ENDROOT
BRANCH   3   6
ATOM      5  N   UNL     1      35.319 -17.453 -20.884  0.00  0.00    -0.242 NA
ATOM      6  C   UNL     1      34.755 -16.933 -23.572  0.00  0.00    +0.058 C 
ATOM      7  C   UNL     1      34.462 -15.983 -22.601  0.00  0.00    +0.025 C 
ATOM      8  C   UNL     1      35.332 -18.143 -23.200  0.00  0.00    +0.025 C 
ATOM      9  C   UNL     1      34.759 -16.288 -21.282  0.00  0.00    +0.099 C 
ATOM     10  C   UNL     1      35.591 -18.351 -21.856  0.00  0.00    +0.099 C 
ENDBRANCH   3   6
BRANCH   2  11
ATOM     11  N   UNL     1      33.352 -15.227 -26.551  0.00  0.00    -0.254 NA
ATOM     12  H   UNL     1      34.186 -15.283 -27.136  0.00  0.00    +0.140 HD
ATOM     13  H   UNL     1      32.971 -14.282 -26.591  0.00  0.00    +0.140 HD
ENDBRANCH   2  11
TORSDOF 2
ENDMDL
MODEL 3
REMARK VINA RESULT:      -5.9     10.303     11.514
REMARK  Name = 3767
REMARK  2 active torsions:
REMARK  status: ('A' for Active; 'I' for Inactive)
REMARK    1  A    between atoms: N_2  and  N_11
REMARK    2  A    between atoms: C_3  and  C_6
REMARK                            x       y       z     vdW  Elec       q    Type
REMARK                         _______ _______ _______ _____ _____    ______ ____
ROOT
ATOM      1  O   UNL     1      35.371 -17.294 -20.598  0.00  0.00    -0.269 OA
ATOM      2  N   UNL     1      36.121 -19.402 -21.214  0.00  0.00    -0.250 N 
ATOM      3  C   UNL     1      35.538 -18.160 -21.477  0.00  0.00    +0.259 C 
ATOM      4  H   UNL     1      36.234 -20.057 -21.939  0.00  0.00    +0.169 HD
ENDROOT
BRANCH   3   6
ATOM      5  N   UNL     1      34.271 -17.445 -25.470  0.00  0.00    -0.242 NA
ATOM      6  C   UNL     1      35.104 -17.915 -22.843  0.00  0.00    +0.058 C 
ATOM      7  C   UNL     1      35.009 -16.614 -23.323  0.00  0.00    +0.025 C 
ATOM      8  C   UNL     1      34.781 -18.982 -23.675  0.00  0.00    +0.025 C 
ATOM      9  C   UNL     1      34.593 -16.434 -24.632  0.00  0.00    +0.099 C 
ATOM     10  C   UNL     1      34.374 -18.696 -24.967  0.00  0.00    +0.099 C 
ENDBRANCH   3   6
BRANCH   2  11
ATOM     11  N   UNL     1      36.541 -19.710 -19.933  0.00  0.00    -0.254 NA
ATOM     12  H   UNL     1      37.475 -19.330 -19.781  0.00  0.00    +0.140 HD
ATOM     13  H   UNL     1      36.562 -20.723 -19.816  0.00  0.00    +0.140 HD
ENDBRANCH   2  11
TORSDOF 2
ENDMDL
MODEL 4
REMARK VINA RESULT:      -5.9      8.078      8.910
REMARK  Name = 3767
REMARK  2 active torsions:
REMARK  status: ('A' for Active; 'I' for Inactive)
REMARK    1  A    between atoms: N_2  and  N_11
REMARK    2  A    between atoms: C_3  and  C_6
REMARK                            x       y       z     vdW  Elec       q    Type
REMARK                         _______ _______ _______ _____ _____    ______ ____
ROOT
ATOM      1  O   UNL     1      35.370 -17.684 -20.726  0.00  0.00    -0.269 OA
ATOM      2  N   UNL     1      35.366 -18.919 -22.690  0.00  0.00    -0.250 N 
ATOM      3  C   UNL     1      35.258 -18.781 -21.304  0.00  0.00    +0.259 C 
ATOM      4  H   UNL     1      35.272 -19.806 -23.106  0.00  0.00    +0.169 HD
ENDROOT
BRANCH   3   6
ATOM      5  N   UNL     1      34.571 -22.329 -19.069  0.00  0.00    -0.242 NA
ATOM      6  C   UNL     1      35.023 -19.995 -20.540  0.00  0.00    +0.058 C 
ATOM      7  C   UNL     1      36.096 -20.722 -20.038  0.00  0.00    +0.025 C 
ATOM      8  C   UNL     1      33.724 -20.435 -20.310  0.00  0.00    +0.025 C 
ATOM      9  C   UNL     1      35.820 -21.871 -19.314  0.00  0.00    +0.099 C 
ATOM     10  C   UNL     1      33.554 -21.597 -19.575  0.00  0.00    +0.099 C 
ENDBRANCH   3   6
BRANCH   2  11
ATOM     11  N   UNL     1      35.608 -17.809 -23.478  0.00  0.00    -0.254 NA
ATOM     12  H   UNL     1      35.337 -16.967 -22.970  0.00  0.00    +0.140 HD
ATOM     13  H   UNL     1      35.065 -17.878 -24.338  0.00  0.00    +0.140 HD
ENDBRANCH   2  11
TORSDOF 2
ENDMDL
MODEL 5
REMARK VINA RESULT:      -5.9      7.181      8.277
REMARK  Name = 3767
REMARK  2 active torsions:
REMARK  status: ('A' for Active; 'I' for Inactive)
REMARK    1  A    between atoms: N_2  and  N_11
REMARK    2  A    between atoms: C_3  and  C_6
REMARK                            x       y       z     vdW  Elec       q    Type
REMARK                         _______ _______ _______ _____ _____    ______ ____
ROOT
ATOM      1  O   UNL     1      35.241 -22.487 -18.954  0.00  0.00    -0.269 OA
ATOM      2  N   UNL     1      33.024 -21.809 -19.036  0.00  0.00    -0.250 N 
ATOM      3  C   UNL     1      34.379 -21.683 -19.353  0.00  0.00    +0.259 C 
ATOM      4  H   UNL     1      32.376 -21.150 -19.373  0.00  0.00    +0.169 HD
ENDROOT
BRANCH   3   6
ATOM      5  N   UNL     1      35.490 -18.345 -21.736  0.00  0.00    -0.242 NA
ATOM      6  C   UNL     1      34.759 -20.542 -20.168  0.00  0.00    +0.058 C 
ATOM      7  C   UNL     1      33.783 -19.783 -20.805  0.00  0.00    +0.025 C 
ATOM      8  C   UNL     1      36.100 -20.204 -20.316  0.00  0.00    +0.025 C 
ATOM      9  C   UNL     1      34.196 -18.704 -21.570  0.00  0.00    +0.099 C 
ATOM     10  C   UNL     1      36.409 -19.107 -21.103  0.00  0.00    +0.099 C 
ENDBRANCH   3   6
BRANCH   2  11
ATOM     11  N   UNL     1      32.594 -22.860 -18.248  0.00  0.00    -0.254 NA
ATOM     12  H   UNL     1      32.163 -22.494 -17.399  0.00  0.00    +0.140 HD
ATOM     13  H   UNL     1      33.389 -23.448 -18.001  0.00  0.00    +0.140 HD
ENDBRANCH   2  11
TORSDOF 2
ENDMDL
MODEL 6
REMARK VINA RESULT:      -5.9      7.210      8.412
REMARK  Name = 3767
REMARK  2 active torsions:
REMARK  status: ('A' for Active; 'I' for Inactive)
REMARK    1  A    between atoms: N_2  and  N_11
REMARK    2  A    between atoms: C_3  and  C_6
REMARK                            x       y       z     vdW  Elec       q    Type
REMARK                         _______ _______ _______ _____ _____    ______ ____
ROOT
ATOM      1  O   UNL     1      34.635 -23.040 -18.415  0.00  0.00    -0.269 OA
ATOM      2  N   UNL     1      36.511 -21.709 -18.111  0.00  0.00    -0.250 N 
ATOM      3  C   UNL     1      35.284 -22.018 -18.705  0.00  0.00    +0.259 C 
ATOM      4  H   UNL     1      36.991 -20.890 -18.370  0.00  0.00    +0.169 HD
ENDROOT
BRANCH   3   6
ATOM      5  N   UNL     1      33.840 -19.311 -21.644  0.00  0.00    -0.242 NA
ATOM      6  C   UNL     1      34.791 -21.093 -19.710  0.00  0.00    +0.058 C 
ATOM      7  C   UNL     1      33.422 -20.920 -19.889  0.00  0.00    +0.025 C 
ATOM      8  C   UNL     1      35.684 -20.377 -20.500  0.00  0.00    +0.025 C 
ATOM      9  C   UNL     1      33.002 -20.025 -20.859  0.00  0.00    +0.099 C 
ATOM     10  C   UNL     1      35.162 -19.507 -21.443  0.00  0.00    +0.099 C 
ENDBRANCH   3   6
BRANCH   2  11
ATOM     11  N   UNL     1      37.050 -22.554 -17.159  0.00  0.00    -0.254 NA
ATOM     12  H   UNL     1      37.865 -23.028 -17.549  0.00  0.00    +0.140 HD
ATOM     13  H   UNL     1      36.353 -23.246 -16.884  0.00  0.00    +0.140 HD
ENDBRANCH   2  11
TORSDOF 2
ENDMDL
MODEL 7
REMARK VINA RESULT:      -5.9      9.034      9.941
REMARK  Name = 3767
REMARK  2 active torsions:
REMARK  status: ('A' for Active; 'I' for Inactive)
REMARK    1  A    between atoms: N_2  and  N_11
REMARK    2  A    between atoms: C_3  and  C_6
REMARK                            x       y       z     vdW  Elec       q    Type
REMARK                         _______ _______ _______ _____ _____    ______ ____
ROOT
ATOM      1  O   UNL     1      35.328 -20.161 -20.125  0.00  0.00    -0.269 OA
ATOM      2  N   UNL     1      33.047 -20.046 -20.532  0.00  0.00    -0.250 N 
ATOM      3  C   UNL     1      34.375 -19.686 -20.770  0.00  0.00    +0.259 C 
ATOM      4  H   UNL     1      32.324 -19.645 -21.067  0.00  0.00    +0.169 HD
ENDROOT
BRANCH   3   6
ATOM      5  N   UNL     1      35.063 -16.796 -23.809  0.00  0.00    -0.242 NA
ATOM      6  C   UNL     1      34.611 -18.698 -21.809  0.00  0.00    +0.058 C 
ATOM      7  C   UNL     1      34.734 -19.095 -23.136  0.00  0.00    +0.025 C 
ATOM      8  C   UNL     1      34.717 -17.350 -21.481  0.00  0.00    +0.025 C 
ATOM      9  C   UNL     1      34.956 -18.115 -24.090  0.00  0.00    +0.099 C 
ATOM     10  C   UNL     1      34.940 -16.448 -22.509  0.00  0.00    +0.099 C 
ENDBRANCH   3   6
BRANCH   2  11
ATOM     11  N   UNL     1      32.747 -20.967 -19.546  0.00  0.00    -0.254 NA
ATOM     12  H   UNL     1      32.312 -21.787 -19.968  0.00  0.00    +0.140 HD
ATOM     13  H   UNL     1      32.104 -20.549 -18.874  0.00  0.00    +0.140 HD
ENDBRANCH   2  11
TORSDOF 2
ENDMDL
MODEL 8
REMARK VINA RESULT:      -5.8      7.296      9.343
REMARK  Name = 3767
REMARK  2 active torsions:
REMARK  status: ('A' for Active; 'I' for Inactive)
REMARK    1  A    between atoms: N_2  and  N_11
REMARK    2  A    between atoms: C_3  and  C_6
REMARK                            x       y       z     vdW  Elec       q    Type
REMARK                         _______ _______ _______ _____ _____    ______ ____
ROOT
ATOM      1  O   UNL     1      38.227 -27.308 -14.717  0.00  0.00    -0.269 OA
ATOM      2  N   UNL     1      39.097 -25.203 -15.157  0.00  0.00    -0.250 N 
ATOM      3  C   UNL     1      38.155 -26.071 -14.599  0.00  0.00    +0.259 C 
ATOM      4  H   UNL     1      39.002 -24.230 -15.040  0.00  0.00    +0.169 HD
ENDROOT
BRANCH   3   6
ATOM      5  N   UNL     1      34.929 -24.293 -12.481  0.00  0.00    -0.242 NA
ATOM      6  C   UNL     1      37.052 -25.463 -13.874  0.00  0.00    +0.058 C 
ATOM      7  C   UNL     1      37.070 -25.417 -12.484  0.00  0.00    +0.025 C 
ATOM      8  C   UNL     1      35.972 -24.926 -14.567  0.00  0.00    +0.025 C 
ATOM      9  C   UNL     1      35.995 -24.826 -11.841  0.00  0.00    +0.099 C 
ATOM     10  C   UNL     1      34.946 -24.357 -13.830  0.00  0.00    +0.099 C 
ENDBRANCH   3   6
BRANCH   2  11
ATOM     11  N   UNL     1      40.163 -25.710 -15.876  0.00  0.00    -0.254 NA
ATOM     12  H   UNL     1      40.307 -25.146 -16.713  0.00  0.00    +0.140 HD
ATOM     13  H   UNL     1      39.965 -26.674 -16.145  0.00  0.00    +0.140 HD
ENDBRANCH   2  11
TORSDOF 2
ENDMDL
MODEL 9
REMARK VINA RESULT:      -5.8      9.034      9.732
REMARK  Name = 3767
REMARK  2 active torsions:
REMARK  status: ('A' for Active; 'I' for Inactive)
REMARK    1  A    between atoms: N_2  and  N_11
REMARK    2  A    between atoms: C_3  and  C_6
REMARK                            x       y       z     vdW  Elec       q    Type
REMARK                         _______ _______ _______ _____ _____    ______ ____
ROOT
ATOM      1  O   UNL     1      34.982 -16.472 -20.988  0.00  0.00    -0.269 OA
ATOM      2  N   UNL     1      35.592 -17.454 -23.000  0.00  0.00    -0.250 N 
ATOM      3  C   UNL     1      35.220 -17.497 -21.654  0.00  0.00    +0.259 C 
ATOM      4  H   UNL     1      35.771 -18.289 -23.489  0.00  0.00    +0.169 HD
ENDROOT
BRANCH   3   6
ATOM      5  N   UNL     1      34.984 -21.337 -19.851  0.00  0.00    -0.242 NA
ATOM      6  C   UNL     1      35.139 -18.810 -21.037  0.00  0.00    +0.058 C 
ATOM      7  C   UNL     1      33.902 -19.413 -20.837  0.00  0.00    +0.025 C 
ATOM      8  C   UNL     1      36.299 -19.469 -20.642  0.00  0.00    +0.025 C 
ATOM      9  C   UNL     1      33.879 -20.666 -20.246  0.00  0.00    +0.099 C 
ATOM     10  C   UNL     1      36.167 -20.719 -20.060  0.00  0.00    +0.099 C 
ENDBRANCH   3   6
BRANCH   2  11
ATOM     11  N   UNL     1      35.707 -16.237 -23.647  0.00  0.00    -0.254 NA
ATOM     12  H   UNL     1      34.891 -16.091 -24.241  0.00  0.00    +0.140 HD
ATOM     13  H   UNL     1      36.550 -16.235 -24.219  0.00  0.00    +0.140 HD
ENDBRANCH   2  11
TORSDOF 2
ENDMDL
