MODEL 1
REMARK VINA RESULT:      -9.5      0.000      0.000
REMARK  Name = 11963551
REMARK  2 active torsions:
REMARK  status: ('A' for Active; 'I' for Inactive)
REMARK    1  A    between atoms: C_15  and  O_21
REMARK    2  A    between atoms: C_19  and  O_23
REMARK                            x       y       z     vdW  Elec       q    Type
REMARK                         _______ _______ _______ _____ _____    ______ ____
ROOT
ATOM      1 CL   UNL     1      32.824 -11.555 -22.350  0.00  0.00    -0.079 Cl
ATOM      2  O   UNL     1      34.079 -16.252 -24.997  0.00  0.00    -0.445 OA
ATOM      3  O   UNL     1      34.938 -14.468 -22.280  0.00  0.00    -0.296 OA
ATOM      4  O   UNL     1      32.589 -15.950 -26.740  0.00  0.00    -0.245 OA
ATOM      5  C   UNL     1      34.674 -16.533 -20.342  0.00  0.00    +0.012 C 
ATOM      6  C   UNL     1      33.462 -15.818 -20.940  0.00  0.00    +0.065 C 
ATOM      7  C   UNL     1      32.633 -14.518 -22.996  0.00  0.00    +0.092 C 
ATOM      8  C   UNL     1      33.031 -13.631 -24.148  0.00  0.00    +0.008 C 
ATOM      9  C   UNL     1      35.403 -17.486 -21.302  0.00  0.00    +0.026 C 
ATOM     10  C   UNL     1      33.800 -14.901 -22.103  0.00  0.00    +0.155 C 
ATOM     11  C   UNL     1      33.324 -14.112 -25.436  0.00  0.00    +0.107 C 
ATOM     12  C   UNL     1      34.500 -18.527 -21.895  0.00  0.00    -0.031 C 
ATOM     13  C   UNL     1      33.124 -12.246 -23.919  0.00  0.00    +0.088 C 
ATOM     14  C   UNL     1      35.147 -18.334 -24.364  0.00  0.00    +0.073 C 
ATOM     15  C   UNL     1      33.668 -13.227 -26.467  0.00  0.00    +0.143 C 
ATOM     16  C   UNL     1      34.376 -18.863 -23.187  0.00  0.00    -0.027 C 
ATOM     17  C   UNL     1      34.245 -17.631 -25.375  0.00  0.00    +0.213 C 
ATOM     18  C   UNL     1      33.254 -15.537 -25.803  0.00  0.00    +0.344 C 
ATOM     19  C   UNL     1      33.480 -11.368 -24.944  0.00  0.00    +0.147 C 
ATOM     20  C   UNL     1      33.749 -11.858 -26.219  0.00  0.00    +0.074 C 
ENDROOT
BRANCH  15  21
ATOM     21  O   UNL     1      33.958 -13.669 -27.726  0.00  0.00    -0.505 OA
ATOM     22  H   UNL     1      34.486 -13.145 -28.295  0.00  0.00    +0.292 HD
ENDBRANCH  15  21
BRANCH  19  23
ATOM     23  O   UNL     1      33.576 -10.023 -24.737  0.00  0.00    -0.505 OA
ATOM     24  H   UNL     1      32.944  -9.445 -25.118  0.00  0.00    +0.292 HD
ENDBRANCH  19  23
TORSDOF 2
ENDMDL
MODEL 2
REMARK VINA RESULT:      -8.5     11.071     13.895
REMARK  Name = 11963551
REMARK  2 active torsions:
REMARK  status: ('A' for Active; 'I' for Inactive)
REMARK    1  A    between atoms: C_15  and  O_21
REMARK    2  A    between atoms: C_19  and  O_23
REMARK                            x       y       z     vdW  Elec       q    Type
REMARK                         _______ _______ _______ _____ _____    ______ ____
ROOT
ATOM      1 CL   UNL     1      35.422 -24.898 -11.149  0.00  0.00    -0.079 Cl
ATOM      2  O   UNL     1      35.171 -23.180 -16.406  0.00  0.00    -0.445 OA
ATOM      3  O   UNL     1      33.612 -25.228 -14.244  0.00  0.00    -0.296 OA
ATOM      4  O   UNL     1      37.026 -21.802 -16.296  0.00  0.00    -0.245 OA
ATOM      5  C   UNL     1      30.964 -24.255 -14.606  0.00  0.00    +0.012 C 
ATOM      6  C   UNL     1      32.004 -23.497 -13.780  0.00  0.00    +0.065 C 
ATOM      7  C   UNL     1      34.528 -23.137 -13.459  0.00  0.00    +0.092 C 
ATOM      8  C   UNL     1      35.898 -23.748 -13.606  0.00  0.00    +0.008 C 
ATOM      9  C   UNL     1      31.208 -24.244 -16.123  0.00  0.00    +0.026 C 
ATOM     10  C   UNL     1      33.407 -24.070 -13.882  0.00  0.00    +0.155 C 
ATOM     11  C   UNL     1      36.719 -23.556 -14.731  0.00  0.00    +0.107 C 
ATOM     12  C   UNL     1      31.325 -22.860 -16.690  0.00  0.00    -0.031 C 
ATOM     13  C   UNL     1      36.378 -24.563 -12.565  0.00  0.00    +0.088 C 
ATOM     14  C   UNL     1      33.443 -23.130 -18.104  0.00  0.00    +0.073 C 
ATOM     15  C   UNL     1      37.993 -24.138 -14.793  0.00  0.00    +0.143 C 
ATOM     16  C   UNL     1      32.282 -22.387 -17.502  0.00  0.00    -0.027 C 
ATOM     17  C   UNL     1      34.786 -22.565 -17.649  0.00  0.00    +0.213 C 
ATOM     18  C   UNL     1      36.335 -22.719 -15.880  0.00  0.00    +0.344 C 
ATOM     19  C   UNL     1      37.641 -25.152 -12.634  0.00  0.00    +0.147 C 
ATOM     20  C   UNL     1      38.450 -24.938 -13.746  0.00  0.00    +0.074 C 
ENDROOT
BRANCH  15  21
ATOM     21  O   UNL     1      38.809 -23.968 -15.873  0.00  0.00    -0.505 OA
ATOM     22  H   UNL     1      39.630 -24.417 -15.915  0.00  0.00    +0.292 HD
ENDBRANCH  15  21
BRANCH  19  23
ATOM     23  O   UNL     1      38.119 -25.947 -11.633  0.00  0.00    -0.505 OA
ATOM     24  H   UNL     1      38.957 -25.768 -11.254  0.00  0.00    +0.292 HD
ENDBRANCH  19  23
TORSDOF 2
ENDMDL
MODEL 3
REMARK VINA RESULT:      -8.4      4.723      7.640
REMARK  Name = 11963551
REMARK  2 active torsions:
REMARK  status: ('A' for Active; 'I' for Inactive)
REMARK    1  A    between atoms: C_15  and  O_21
REMARK    2  A    between atoms: C_19  and  O_23
REMARK                            x       y       z     vdW  Elec       q    Type
REMARK                         _______ _______ _______ _____ _____    ______ ____
ROOT
ATOM      1 CL   UNL     1      34.073  -6.807 -25.401  0.00  0.00    -0.079 Cl
ATOM      2  O   UNL     1      31.751  -9.064 -20.912  0.00  0.00    -0.445 OA
ATOM      3  O   UNL     1      32.170  -9.618 -24.201  0.00  0.00    -0.296 OA
ATOM      4  O   UNL     1      32.341  -7.365 -19.458  0.00  0.00    -0.245 OA
ATOM      5  C   UNL     1      33.229 -12.252 -24.034  0.00  0.00    +0.012 C 
ATOM      6  C   UNL     1      34.069 -11.015 -23.713  0.00  0.00    +0.065 C 
ATOM      7  C   UNL     1      33.937  -8.571 -22.931  0.00  0.00    +0.092 C 
ATOM      8  C   UNL     1      33.087  -7.327 -22.882  0.00  0.00    +0.008 C 
ATOM      9  C   UNL     1      32.147 -12.589 -22.997  0.00  0.00    +0.026 C 
ATOM     10  C   UNL     1      33.268  -9.726 -23.657  0.00  0.00    +0.155 C 
ATOM     11  C   UNL     1      32.260  -6.991 -21.797  0.00  0.00    +0.107 C 
ATOM     12  C   UNL     1      32.694 -12.752 -21.609  0.00  0.00    -0.031 C 
ATOM     13  C   UNL     1      33.116  -6.459 -23.990  0.00  0.00    +0.088 C 
ATOM     14  C   UNL     1      31.043 -11.299 -20.299  0.00  0.00    +0.073 C 
ATOM     15  C   UNL     1      31.512  -5.806 -21.810  0.00  0.00    +0.143 C 
ATOM     16  C   UNL     1      32.243 -12.186 -20.480  0.00  0.00    -0.027 C 
ATOM     17  C   UNL     1      31.424  -9.910 -19.794  0.00  0.00    +0.213 C 
ATOM     18  C   UNL     1      32.151  -7.811 -20.578  0.00  0.00    +0.344 C 
ATOM     19  C   UNL     1      32.359  -5.286 -24.006  0.00  0.00    +0.147 C 
ATOM     20  C   UNL     1      31.559  -4.958 -22.915  0.00  0.00    +0.074 C 
ENDROOT
BRANCH  15  21
ATOM     21  O   UNL     1      30.701  -5.457 -20.768  0.00  0.00    -0.505 OA
ATOM     22  H   UNL     1      30.983  -5.601 -19.887  0.00  0.00    +0.292 HD
ENDBRANCH  15  21
BRANCH  19  23
ATOM     23  O   UNL     1      32.375  -4.436 -25.073  0.00  0.00    -0.505 OA
ATOM     24  H   UNL     1      31.667  -3.836 -25.203  0.00  0.00    +0.292 HD
ENDBRANCH  19  23
TORSDOF 2
ENDMDL
MODEL 4
REMARK VINA RESULT:      -7.6      2.604      5.492
REMARK  Name = 11963551
REMARK  2 active torsions:
REMARK  status: ('A' for Active; 'I' for Inactive)
REMARK    1  A    between atoms: C_15  and  O_21
REMARK    2  A    between atoms: C_19  and  O_23
REMARK                            x       y       z     vdW  Elec       q    Type
REMARK                         _______ _______ _______ _____ _____    ______ ____
ROOT
ATOM      1 CL   UNL     1      33.779 -16.375 -22.990  0.00  0.00    -0.079 Cl
ATOM      2  O   UNL     1      32.891 -11.027 -24.112  0.00  0.00    -0.445 OA
ATOM      3  O   UNL     1      31.644 -13.562 -22.288  0.00  0.00    -0.296 OA
ATOM      4  O   UNL     1      34.635 -10.806 -25.614  0.00  0.00    -0.245 OA
ATOM      5  C   UNL     1      31.582 -12.250 -19.766  0.00  0.00    +0.012 C 
ATOM      6  C   UNL     1      32.880 -12.780 -20.376  0.00  0.00    +0.065 C 
ATOM      7  C   UNL     1      34.032 -13.373 -22.595  0.00  0.00    +0.092 C 
ATOM      8  C   UNL     1      33.826 -13.821 -24.020  0.00  0.00    +0.008 C 
ATOM      9  C   UNL     1      30.998 -11.010 -20.459  0.00  0.00    +0.026 C 
ATOM     10  C   UNL     1      32.736 -13.255 -21.812  0.00  0.00    +0.155 C 
ATOM     11  C   UNL     1      33.729 -12.937 -25.108  0.00  0.00    +0.107 C 
ATOM     12  C   UNL     1      31.969  -9.868 -20.537  0.00  0.00    -0.031 C 
ATOM     13  C   UNL     1      33.716 -15.200 -24.273  0.00  0.00    +0.088 C 
ATOM     14  C   UNL     1      31.713  -9.224 -23.001  0.00  0.00    +0.073 C 
ATOM     15  C   UNL     1      33.559 -13.424 -26.411  0.00  0.00    +0.143 C 
ATOM     16  C   UNL     1      32.287  -9.137 -21.614  0.00  0.00    -0.027 C 
ATOM     17  C   UNL     1      32.769  -9.595 -24.039  0.00  0.00    +0.213 C 
ATOM     18  C   UNL     1      33.839 -11.474 -24.975  0.00  0.00    +0.344 C 
ATOM     19  C   UNL     1      33.533 -15.683 -25.570  0.00  0.00    +0.147 C 
ATOM     20  C   UNL     1      33.458 -14.796 -26.639  0.00  0.00    +0.074 C 
ENDROOT
BRANCH  15  21
ATOM     21  O   UNL     1      33.462 -12.587 -27.485  0.00  0.00    -0.505 OA
ATOM     22  H   UNL     1      32.924 -11.822 -27.434  0.00  0.00    +0.292 HD
ENDBRANCH  15  21
BRANCH  19  23
ATOM     23  O   UNL     1      33.422 -17.018 -25.830  0.00  0.00    -0.505 OA
ATOM     24  H   UNL     1      32.846 -17.316 -26.507  0.00  0.00    +0.292 HD
ENDBRANCH  19  23
TORSDOF 2
ENDMDL
MODEL 5
REMARK VINA RESULT:      -7.3     11.146     13.022
REMARK  Name = 11963551
REMARK  2 active torsions:
REMARK  status: ('A' for Active; 'I' for Inactive)
REMARK    1  A    between atoms: C_15  and  O_21
REMARK    2  A    between atoms: C_19  and  O_23
REMARK                            x       y       z     vdW  Elec       q    Type
REMARK                         _______ _______ _______ _____ _____    ______ ____
ROOT
ATOM      1 CL   UNL     1      30.524 -24.923 -13.153  0.00  0.00    -0.079 Cl
ATOM      2  O   UNL     1      34.831 -22.915 -15.993  0.00  0.00    -0.445 OA
ATOM      3  O   UNL     1      33.589 -23.054 -12.872  0.00  0.00    -0.296 OA
ATOM      4  O   UNL     1      34.121 -23.663 -18.063  0.00  0.00    -0.245 OA
ATOM      5  C   UNL     1      35.905 -24.057 -11.561  0.00  0.00    +0.012 C 
ATOM      6  C   UNL     1      34.997 -24.950 -12.407  0.00  0.00    +0.065 C 
ATOM      7  C   UNL     1      33.317 -24.943 -14.351  0.00  0.00    +0.092 C 
ATOM      8  C   UNL     1      32.296 -24.131 -15.108  0.00  0.00    +0.008 C 
ATOM      9  C   UNL     1      36.753 -23.054 -12.358  0.00  0.00    +0.026 C 
ATOM     10  C   UNL     1      33.941 -24.189 -13.190  0.00  0.00    +0.155 C 
ATOM     11  C   UNL     1      32.590 -23.403 -16.274  0.00  0.00    +0.107 C 
ATOM     12  C   UNL     1      37.601 -23.707 -13.410  0.00  0.00    -0.031 C 
ATOM     13  C   UNL     1      30.980 -24.091 -14.613  0.00  0.00    +0.088 C 
ATOM     14  C   UNL     1      37.074 -22.203 -15.414  0.00  0.00    +0.073 C 
ATOM     15  C   UNL     1      31.585 -22.686 -16.939  0.00  0.00    +0.143 C 
ATOM     16  C   UNL     1      37.713 -23.362 -14.701  0.00  0.00    -0.027 C 
ATOM     17  C   UNL     1      36.141 -22.659 -16.532  0.00  0.00    +0.213 C 
ATOM     18  C   UNL     1      33.925 -23.372 -16.894  0.00  0.00    +0.344 C 
ATOM     19  C   UNL     1      29.984 -23.366 -15.269  0.00  0.00    +0.147 C 
ATOM     20  C   UNL     1      30.286 -22.665 -16.433  0.00  0.00    +0.074 C 
ENDROOT
BRANCH  15  21
ATOM     21  O   UNL     1      31.844 -21.971 -18.072  0.00  0.00    -0.505 OA
ATOM     22  H   UNL     1      31.146 -21.756 -18.660  0.00  0.00    +0.292 HD
ENDBRANCH  15  21
BRANCH  19  23
ATOM     23  O   UNL     1      28.704 -23.316 -14.801  0.00  0.00    -0.505 OA
ATOM     24  H   UNL     1      27.993 -23.182 -15.397  0.00  0.00    +0.292 HD
ENDBRANCH  19  23
TORSDOF 2
ENDMDL
MODEL 6
REMARK VINA RESULT:      -6.9     11.577     14.032
REMARK  Name = 11963551
REMARK  2 active torsions:
REMARK  status: ('A' for Active; 'I' for Inactive)
REMARK    1  A    between atoms: C_15  and  O_21
REMARK    2  A    between atoms: C_19  and  O_23
REMARK                            x       y       z     vdW  Elec       q    Type
REMARK                         _______ _______ _______ _____ _____    ______ ____
ROOT
ATOM      1 CL   UNL     1      34.202 -22.505 -17.817  0.00  0.00    -0.079 Cl
ATOM      2  O   UNL     1      35.238 -24.598 -12.797  0.00  0.00    -0.445 OA
ATOM      3  O   UNL     1      36.205 -24.886 -16.005  0.00  0.00    -0.296 OA
ATOM      4  O   UNL     1      33.654 -23.336 -11.681  0.00  0.00    -0.245 OA
ATOM      5  C   UNL     1      39.004 -24.579 -15.610  0.00  0.00    +0.012 C 
ATOM      6  C   UNL     1      38.042 -23.391 -15.574  0.00  0.00    +0.065 C 
ATOM      7  C   UNL     1      35.603 -22.718 -15.129  0.00  0.00    +0.092 C 
ATOM      8  C   UNL     1      34.166 -23.174 -15.145  0.00  0.00    +0.008 C 
ATOM      9  C   UNL     1      38.908 -25.529 -14.406  0.00  0.00    +0.026 C 
ATOM     10  C   UNL     1      36.576 -23.787 -15.595  0.00  0.00    +0.155 C 
ATOM     11  C   UNL     1      33.500 -23.689 -14.020  0.00  0.00    +0.107 C 
ATOM     12  C   UNL     1      39.090 -24.830 -13.090  0.00  0.00    -0.031 C 
ATOM     13  C   UNL     1      33.456 -23.088 -16.356  0.00  0.00    +0.088 C 
ATOM     14  C   UNL     1      37.098 -25.784 -11.794  0.00  0.00    +0.073 C 
ATOM     15  C   UNL     1      32.155 -24.075 -14.101  0.00  0.00    +0.143 C 
ATOM     16  C   UNL     1      38.311 -24.919 -12.003  0.00  0.00    -0.027 C 
ATOM     17  C   UNL     1      35.840 -24.959 -11.541  0.00  0.00    +0.213 C 
ATOM     18  C   UNL     1      34.130 -23.820 -12.695  0.00  0.00    +0.344 C 
ATOM     19  C   UNL     1      32.120 -23.486 -16.439  0.00  0.00    +0.147 C 
ATOM     20  C   UNL     1      31.469 -23.976 -15.311  0.00  0.00    +0.074 C 
ENDROOT
BRANCH  15  21
ATOM     21  O   UNL     1      31.485 -24.578 -13.024  0.00  0.00    -0.505 OA
ATOM     22  H   UNL     1      30.801 -24.079 -12.622  0.00  0.00    +0.292 HD
ENDBRANCH  15  21
BRANCH  19  23
ATOM     23  O   UNL     1      31.419 -23.410 -17.607  0.00  0.00    -0.505 OA
ATOM     24  H   UNL     1      31.818 -23.039 -18.369  0.00  0.00    +0.292 HD
ENDBRANCH  19  23
TORSDOF 2
ENDMDL
MODEL 7
REMARK VINA RESULT:      -6.9      3.427      7.318
REMARK  Name = 11963551
REMARK  2 active torsions:
REMARK  status: ('A' for Active; 'I' for Inactive)
REMARK    1  A    between atoms: C_15  and  O_21
REMARK    2  A    between atoms: C_19  and  O_23
REMARK                            x       y       z     vdW  Elec       q    Type
REMARK                         _______ _______ _______ _____ _____    ______ ____
ROOT
ATOM      1 CL   UNL     1      33.821 -13.099 -25.714  0.00  0.00    -0.079 Cl
ATOM      2  O   UNL     1      32.306 -10.423 -21.111  0.00  0.00    -0.445 OA
ATOM      3  O   UNL     1      34.639 -10.356 -23.532  0.00  0.00    -0.296 OA
ATOM      4  O   UNL     1      30.512 -11.796 -20.615  0.00  0.00    -0.245 OA
ATOM      5  C   UNL     1      34.353  -7.629 -24.290  0.00  0.00    +0.012 C 
ATOM      6  C   UNL     1      33.349  -8.701 -24.713  0.00  0.00    +0.065 C 
ATOM      7  C   UNL     1      32.373 -10.990 -24.073  0.00  0.00    +0.092 C 
ATOM      8  C   UNL     1      32.630 -12.296 -23.364  0.00  0.00    +0.008 C 
ATOM      9  C   UNL     1      34.309  -7.251 -22.801  0.00  0.00    +0.026 C 
ATOM     10  C   UNL     1      33.561 -10.045 -24.037  0.00  0.00    +0.155 C 
ATOM     11  C   UNL     1      32.261 -12.543 -22.030  0.00  0.00    +0.107 C 
ATOM     12  C   UNL     1      32.948  -6.812 -22.346  0.00  0.00    -0.031 C 
ATOM     13  C   UNL     1      33.284 -13.320 -24.073  0.00  0.00    +0.088 C 
ATOM     14  C   UNL     1      32.712  -8.208 -20.214  0.00  0.00    +0.073 C 
ATOM     15  C   UNL     1      32.513 -13.789 -21.439  0.00  0.00    +0.143 C 
ATOM     16  C   UNL     1      32.268  -7.237 -21.272  0.00  0.00    -0.027 C 
ATOM     17  C   UNL     1      31.826  -9.451 -20.165  0.00  0.00    +0.213 C 
ATOM     18  C   UNL     1      31.564 -11.557 -21.187  0.00  0.00    +0.344 C 
ATOM     19  C   UNL     1      33.546 -14.555 -23.478  0.00  0.00    +0.147 C 
ATOM     20  C   UNL     1      33.158 -14.791 -22.163  0.00  0.00    +0.074 C 
ENDROOT
BRANCH  15  21
ATOM     21  O   UNL     1      32.165 -14.054 -20.146  0.00  0.00    -0.505 OA
ATOM     22  H   UNL     1      31.699 -13.414 -19.646  0.00  0.00    +0.292 HD
ENDBRANCH  15  21
BRANCH  19  23
ATOM     23  O   UNL     1      34.181 -15.557 -24.152  0.00  0.00    -0.505 OA
ATOM     24  H   UNL     1      33.791 -15.924 -24.921  0.00  0.00    +0.292 HD
ENDBRANCH  19  23
TORSDOF 2
ENDMDL
MODEL 8
REMARK VINA RESULT:      -6.5      8.888     12.004
REMARK  Name = 11963551
REMARK  2 active torsions:
REMARK  status: ('A' for Active; 'I' for Inactive)
REMARK    1  A    between atoms: C_15  and  O_21
REMARK    2  A    between atoms: C_19  and  O_23
REMARK                            x       y       z     vdW  Elec       q    Type
REMARK                         _______ _______ _______ _____ _____    ______ ____
ROOT
ATOM      1 CL   UNL     1      33.476 -21.870 -19.935  0.00  0.00    -0.079 Cl
ATOM      2  O   UNL     1      34.418 -23.748 -14.813  0.00  0.00    -0.445 OA
ATOM      3  O   UNL     1      32.190 -21.948 -16.574  0.00  0.00    -0.296 OA
ATOM      4  O   UNL     1      36.432 -24.774 -15.302  0.00  0.00    -0.245 OA
ATOM      5  C   UNL     1      29.846 -23.382 -15.841  0.00  0.00    +0.012 C 
ATOM      6  C   UNL     1      30.843 -23.922 -16.866  0.00  0.00    +0.065 C 
ATOM      7  C   UNL     1      33.299 -23.824 -17.614  0.00  0.00    +0.092 C 
ATOM      8  C   UNL     1      34.552 -22.985 -17.658  0.00  0.00    +0.008 C 
ATOM      9  C   UNL     1      30.342 -23.391 -14.387  0.00  0.00    +0.026 C 
ATOM     10  C   UNL     1      32.125 -23.114 -16.962  0.00  0.00    +0.155 C 
ATOM     11  C   UNL     1      35.572 -23.060 -16.694  0.00  0.00    +0.107 C 
ATOM     12  C   UNL     1      30.787 -24.747 -13.926  0.00  0.00    -0.031 C 
ATOM     13  C   UNL     1      34.702 -22.070 -18.716  0.00  0.00    +0.088 C 
ATOM     14  C   UNL     1      33.037 -24.148 -12.863  0.00  0.00    +0.073 C 
ATOM     15  C   UNL     1      36.721 -22.264 -16.808  0.00  0.00    +0.143 C 
ATOM     16  C   UNL     1      31.934 -25.066 -13.308  0.00  0.00    -0.027 C 
ATOM     17  C   UNL     1      34.359 -24.454 -13.561  0.00  0.00    +0.213 C 
ATOM     18  C   UNL     1      35.536 -23.982 -15.547  0.00  0.00    +0.344 C 
ATOM     19  C   UNL     1      35.841 -21.270 -18.820  0.00  0.00    +0.147 C 
ATOM     20  C   UNL     1      36.851 -21.368 -17.868  0.00  0.00    +0.074 C 
ENDROOT
BRANCH  15  21
ATOM     21  O   UNL     1      37.726 -22.317 -15.886  0.00  0.00    -0.505 OA
ATOM     22  H   UNL     1      38.456 -22.888 -16.022  0.00  0.00    +0.292 HD
ENDBRANCH  15  21
BRANCH  19  23
ATOM     23  O   UNL     1      36.000 -20.377 -19.839  0.00  0.00    -0.505 OA
ATOM     24  H   UNL     1      36.836 -20.282 -20.251  0.00  0.00    +0.292 HD
ENDBRANCH  19  23
TORSDOF 2
ENDMDL
