MODEL 1
REMARK VINA RESULT:      -9.8      0.000      0.000
REMARK  Name = 40854
REMARK  4 active torsions:
REMARK  status: ('A' for Active; 'I' for Inactive)
REMARK    1  A    between atoms: N_4  and  C_11
REMARK    2  A    between atoms: C_7  and  S_16
REMARK    3  A    between atoms: C_12  and  O_24
REMARK    4  A    between atoms: S_16  and  C_18
REMARK                            x       y       z     vdW  Elec       q    Type
REMARK                         _______ _______ _______ _____ _____    ______ ____
ROOT
ATOM      1  N   UNL     1      35.103 -21.994 -18.772  0.00  0.00    -0.302 N 
ATOM      2  N   UNL     1      32.882 -21.927 -18.830  0.00  0.00    -0.302 N 
ATOM      3  C   UNL     1      34.789 -21.101 -19.764  0.00  0.00    +0.061 C 
ATOM      4  C   UNL     1      33.398 -21.076 -19.781  0.00  0.00    +0.060 C 
ATOM      5  C   UNL     1      34.907 -19.513 -21.532  0.00  0.00    +0.062 C 
ATOM      6  C   UNL     1      35.580 -20.335 -20.622  0.00  0.00    +0.025 C 
ATOM      7  C   UNL     1      32.738 -20.244 -20.701  0.00  0.00    +0.016 C 
ATOM      8  C   UNL     1      33.512 -19.467 -21.573  0.00  0.00    +0.010 C 
ATOM      9  C   UNL     1      33.930 -22.459 -18.245  0.00  0.00    +0.229 C 
ATOM     10  H   UNL     1      36.009 -22.254 -18.490  0.00  0.00    +0.150 HD
ATOM     11  H   UNL     1      31.933 -22.098 -18.632  0.00  0.00    +0.150 HD
ENDROOT
BRANCH   9  13
ATOM     12  O   UNL     1      35.595 -22.531 -15.782  0.00  0.00    -0.226 OA
ATOM     13  N   UNL     1      33.944 -23.376 -17.225  0.00  0.00    -0.240 N 
ATOM     14  C   UNL     1      34.749 -23.363 -16.086  0.00  0.00    +0.404 C 
ATOM     15  H   UNL     1      33.314 -24.128 -17.307  0.00  0.00    +0.156 HD
BRANCH  14  16
ATOM     16  O   UNL     1      34.458 -24.456 -15.312  0.00  0.00    -0.431 OA
ATOM     17  C   UNL     1      35.579 -25.220 -14.852  0.00  0.00    +0.257 C 
ENDBRANCH  14  16
ENDBRANCH   9  13
BRANCH   5  18
ATOM     18  S   UNL     1      35.859 -18.500 -22.669  0.00  0.00    +0.088 S 
ATOM     19  O   UNL     1      37.246 -18.413 -22.096  0.00  0.00    -0.247 OA
BRANCH  18  20
ATOM     20  C   UNL     1      35.036 -16.962 -22.190  0.00  0.00    +0.060 C 
ATOM     21  C   UNL     1      34.467 -16.159 -23.168  0.00  0.00    +0.009 C 
ATOM     22  C   UNL     1      34.985 -16.605 -20.851  0.00  0.00    +0.009 C 
ATOM     23  C   UNL     1      33.833 -14.974 -22.799  0.00  0.00    +0.001 C 
ATOM     24  C   UNL     1      34.351 -15.419 -20.481  0.00  0.00    +0.001 C 
ATOM     25  C   UNL     1      33.775 -14.603 -21.456  0.00  0.00    +0.000 C 
ENDBRANCH  18  20
ENDBRANCH   5  18
TORSDOF 4
ENDMDL
MODEL 2
REMARK VINA RESULT:      -9.8      4.942      8.859
REMARK  Name = 40854
REMARK  4 active torsions:
REMARK  status: ('A' for Active; 'I' for Inactive)
REMARK    1  A    between atoms: N_4  and  C_11
REMARK    2  A    between atoms: C_7  and  S_16
REMARK    3  A    between atoms: C_12  and  O_24
REMARK    4  A    between atoms: S_16  and  C_18
REMARK                            x       y       z     vdW  Elec       q    Type
REMARK                         _______ _______ _______ _____ _____    ______ ____
ROOT
ATOM      1  N   UNL     1      32.930 -14.132 -23.221  0.00  0.00    -0.302 N 
ATOM      2  N   UNL     1      32.967 -13.576 -21.070  0.00  0.00    -0.302 N 
ATOM      3  C   UNL     1      33.646 -15.122 -22.600  0.00  0.00    +0.061 C 
ATOM      4  C   UNL     1      33.655 -14.753 -21.258  0.00  0.00    +0.060 C 
ATOM      5  C   UNL     1      34.923 -17.076 -22.142  0.00  0.00    +0.062 C 
ATOM      6  C   UNL     1      34.267 -16.276 -23.082  0.00  0.00    +0.025 C 
ATOM      7  C   UNL     1      34.319 -15.570 -20.327  0.00  0.00    +0.016 C 
ATOM      8  C   UNL     1      34.950 -16.733 -20.788  0.00  0.00    +0.010 C 
ATOM      9  C   UNL     1      32.547 -13.233 -22.266  0.00  0.00    +0.229 C 
ATOM     10  H   UNL     1      32.729 -14.078 -24.183  0.00  0.00    +0.150 HD
ATOM     11  H   UNL     1      32.822 -13.096 -20.223  0.00  0.00    +0.150 HD
ENDROOT
BRANCH   9  13
ATOM     12  O   UNL     1      31.218 -11.224 -20.521  0.00  0.00    -0.226 OA
ATOM     13  N   UNL     1      31.810 -12.128 -22.608  0.00  0.00    -0.240 N 
ATOM     14  C   UNL     1      31.205 -11.213 -21.746  0.00  0.00    +0.404 C 
ATOM     15  H   UNL     1      31.695 -11.963 -23.572  0.00  0.00    +0.156 HD
BRANCH  14  16
ATOM     16  O   UNL     1      30.562 -10.253 -22.482  0.00  0.00    -0.431 OA
ATOM     17  C   UNL     1      31.372  -9.171 -22.954  0.00  0.00    +0.257 C 
ENDBRANCH  14  16
ENDBRANCH   9  13
BRANCH   5  18
ATOM     18  S   UNL     1      35.747 -18.576 -22.689  0.00  0.00    +0.088 S 
ATOM     19  O   UNL     1      35.122 -18.943 -24.006  0.00  0.00    -0.247 OA
BRANCH  18  20
ATOM     20  C   UNL     1      34.937 -19.624 -21.457  0.00  0.00    +0.060 C 
ATOM     21  C   UNL     1      35.710 -20.411 -20.616  0.00  0.00    +0.009 C 
ATOM     22  C   UNL     1      33.552 -19.627 -21.369  0.00  0.00    +0.009 C 
ATOM     23  C   UNL     1      35.086 -21.219 -19.667  0.00  0.00    +0.001 C 
ATOM     24  C   UNL     1      32.928 -20.435 -20.419  0.00  0.00    +0.001 C 
ATOM     25  C   UNL     1      33.695 -21.232 -19.569  0.00  0.00    +0.000 C 
ENDBRANCH  18  20
ENDBRANCH   5  18
TORSDOF 4
ENDMDL
MODEL 3
REMARK VINA RESULT:      -9.3      4.736      8.347
REMARK  Name = 40854
REMARK  4 active torsions:
REMARK  status: ('A' for Active; 'I' for Inactive)
REMARK    1  A    between atoms: N_4  and  C_11
REMARK    2  A    between atoms: C_7  and  S_16
REMARK    3  A    between atoms: C_12  and  O_24
REMARK    4  A    between atoms: S_16  and  C_18
REMARK                            x       y       z     vdW  Elec       q    Type
REMARK                         _______ _______ _______ _____ _____    ______ ____
ROOT
ATOM      1  N   UNL     1      33.307 -14.379 -20.433  0.00  0.00    -0.302 N 
ATOM      2  N   UNL     1      32.505 -13.697 -22.390  0.00  0.00    -0.302 N 
ATOM      3  C   UNL     1      33.836 -15.236 -21.363  0.00  0.00    +0.061 C 
ATOM      4  C   UNL     1      33.320 -14.790 -22.577  0.00  0.00    +0.060 C 
ATOM      5  C   UNL     1      35.034 -16.988 -22.438  0.00  0.00    +0.062 C 
ATOM      6  C   UNL     1      34.695 -16.331 -21.252  0.00  0.00    +0.025 C 
ATOM      7  C   UNL     1      33.672 -15.463 -23.760  0.00  0.00    +0.016 C 
ATOM      8  C   UNL     1      34.532 -16.565 -23.671  0.00  0.00    +0.010 C 
ATOM      9  C   UNL     1      32.520 -13.479 -21.095  0.00  0.00    +0.229 C 
ATOM     10  H   UNL     1      33.466 -14.408 -19.462  0.00  0.00    +0.150 HD
ATOM     11  H   UNL     1      32.017 -13.190 -23.078  0.00  0.00    +0.150 HD
ENDROOT
BRANCH   9  13
ATOM     12  O   UNL     1      30.911 -11.197 -22.118  0.00  0.00    -0.226 OA
ATOM     13  N   UNL     1      31.860 -12.495 -20.404  0.00  0.00    -0.240 N 
ATOM     14  C   UNL     1      31.115 -11.442 -20.935  0.00  0.00    +0.404 C 
ATOM     15  H   UNL     1      31.919 -12.538 -19.422  0.00  0.00    +0.156 HD
BRANCH  14  16
ATOM     16  O   UNL     1      30.617 -10.677 -19.913  0.00  0.00    -0.431 OA
ATOM     17  C   UNL     1      31.577  -9.922 -19.166  0.00  0.00    +0.257 C 
ENDBRANCH  14  16
ENDBRANCH   9  13
BRANCH   5  18
ATOM     18  S   UNL     1      36.134 -18.406 -22.373  0.00  0.00    +0.088 S 
ATOM     19  O   UNL     1      36.100 -19.029 -23.741  0.00  0.00    -0.247 OA
BRANCH  18  20
ATOM     20  C   UNL     1      35.010 -19.395 -21.359  0.00  0.00    +0.060 C 
ATOM     21  C   UNL     1      33.640 -19.205 -21.475  0.00  0.00    +0.009 C 
ATOM     22  C   UNL     1      35.531 -20.332 -20.479  0.00  0.00    +0.009 C 
ATOM     23  C   UNL     1      32.773 -19.967 -20.694  0.00  0.00    +0.001 C 
ATOM     24  C   UNL     1      34.663 -21.095 -19.697  0.00  0.00    +0.001 C 
ATOM     25  C   UNL     1      33.285 -20.912 -19.804  0.00  0.00    +0.000 C 
ENDBRANCH  18  20
ENDBRANCH   5  18
TORSDOF 4
ENDMDL
MODEL 4
REMARK VINA RESULT:      -9.2      2.085      2.618
REMARK  Name = 40854
REMARK  4 active torsions:
REMARK  status: ('A' for Active; 'I' for Inactive)
REMARK    1  A    between atoms: N_4  and  C_11
REMARK    2  A    between atoms: C_7  and  S_16
REMARK    3  A    between atoms: C_12  and  O_24
REMARK    4  A    between atoms: S_16  and  C_18
REMARK                            x       y       z     vdW  Elec       q    Type
REMARK                         _______ _______ _______ _____ _____    ______ ____
ROOT
ATOM      1  N   UNL     1      32.703 -21.847 -18.957  0.00  0.00    -0.302 N 
ATOM      2  N   UNL     1      34.662 -22.415 -18.074  0.00  0.00    -0.302 N 
ATOM      3  C   UNL     1      33.644 -21.174 -19.692  0.00  0.00    +0.061 C 
ATOM      4  C   UNL     1      34.859 -21.544 -19.122  0.00  0.00    +0.060 C 
ATOM      5  C   UNL     1      34.738 -19.788 -21.286  0.00  0.00    +0.062 C 
ATOM      6  C   UNL     1      33.541 -20.299 -20.775  0.00  0.00    +0.025 C 
ATOM      7  C   UNL     1      36.052 -21.022 -19.649  0.00  0.00    +0.016 C 
ATOM      8  C   UNL     1      35.972 -20.141 -20.736  0.00  0.00    +0.010 C 
ATOM      9  C   UNL     1      33.360 -22.574 -18.004  0.00  0.00    +0.229 C 
ATOM     10  H   UNL     1      31.728 -21.813 -19.092  0.00  0.00    +0.150 HD
ATOM     11  H   UNL     1      35.348 -22.828 -17.502  0.00  0.00    +0.150 HD
ENDROOT
BRANCH   9  13
ATOM     12  O   UNL     1      30.552 -22.310 -17.060  0.00  0.00    -0.226 OA
ATOM     13  N   UNL     1      32.658 -23.351 -17.118  0.00  0.00    -0.240 N 
ATOM     14  C   UNL     1      31.336 -23.183 -16.707  0.00  0.00    +0.404 C 
ATOM     15  H   UNL     1      33.144 -24.113 -16.728  0.00  0.00    +0.156 HD
BRANCH  14  16
ATOM     16  O   UNL     1      31.009 -24.168 -15.812  0.00  0.00    -0.431 OA
ATOM     17  C   UNL     1      29.638 -24.577 -15.797  0.00  0.00    +0.257 C 
ENDBRANCH  14  16
ENDBRANCH   9  13
BRANCH   5  18
ATOM     18  S   UNL     1      34.684 -18.654 -22.679  0.00  0.00    +0.088 S 
ATOM     19  O   UNL     1      36.114 -18.338 -23.020  0.00  0.00    -0.247 OA
BRANCH  18  20
ATOM     20  C   UNL     1      34.099 -17.260 -21.687  0.00  0.00    +0.060 C 
ATOM     21  C   UNL     1      32.746 -17.144 -21.403  0.00  0.00    +0.009 C 
ATOM     22  C   UNL     1      35.012 -16.324 -21.223  0.00  0.00    +0.009 C 
ATOM     23  C   UNL     1      32.296 -16.069 -20.638  0.00  0.00    +0.001 C 
ATOM     24  C   UNL     1      34.561 -15.248 -20.458  0.00  0.00    +0.001 C 
ATOM     25  C   UNL     1      33.202 -15.120 -20.167  0.00  0.00    +0.000 C 
ENDBRANCH  18  20
ENDBRANCH   5  18
TORSDOF 4
ENDMDL
MODEL 5
REMARK VINA RESULT:      -9.2      1.694      2.611
REMARK  Name = 40854
REMARK  4 active torsions:
REMARK  status: ('A' for Active; 'I' for Inactive)
REMARK    1  A    between atoms: N_4  and  C_11
REMARK    2  A    between atoms: C_7  and  S_16
REMARK    3  A    between atoms: C_12  and  O_24
REMARK    4  A    between atoms: S_16  and  C_18
REMARK                            x       y       z     vdW  Elec       q    Type
REMARK                         _______ _______ _______ _____ _____    ______ ____
ROOT
ATOM      1  N   UNL     1      32.846 -20.559 -20.267  0.00  0.00    -0.302 N 
ATOM      2  N   UNL     1      34.850 -21.160 -19.518  0.00  0.00    -0.302 N 
ATOM      3  C   UNL     1      33.740 -19.765 -20.937  0.00  0.00    +0.061 C 
ATOM      4  C   UNL     1      34.984 -20.158 -20.452  0.00  0.00    +0.060 C 
ATOM      5  C   UNL     1      34.735 -18.150 -22.374  0.00  0.00    +0.062 C 
ATOM      6  C   UNL     1      33.573 -18.765 -21.898  0.00  0.00    +0.025 C 
ATOM      7  C   UNL     1      36.141 -19.529 -20.942  0.00  0.00    +0.016 C 
ATOM      8  C   UNL     1      35.997 -18.523 -21.906  0.00  0.00    +0.010 C 
ATOM      9  C   UNL     1      33.557 -21.375 -19.432  0.00  0.00    +0.229 C 
ATOM     10  H   UNL     1      31.867 -20.545 -20.370  0.00  0.00    +0.150 HD
ATOM     11  H   UNL     1      35.568 -21.615 -19.022  0.00  0.00    +0.150 HD
ENDROOT
BRANCH   9  13
ATOM     12  O   UNL     1      34.629 -23.066 -17.234  0.00  0.00    -0.226 OA
ATOM     13  N   UNL     1      32.911 -22.282 -18.632  0.00  0.00    -0.240 N 
ATOM     14  C   UNL     1      33.463 -23.054 -17.610  0.00  0.00    +0.404 C 
ATOM     15  H   UNL     1      31.948 -22.402 -18.800  0.00  0.00    +0.156 HD
BRANCH  14  16
ATOM     16  O   UNL     1      32.486 -23.836 -17.053  0.00  0.00    -0.431 OA
ATOM     17  C   UNL     1      31.456 -23.145 -16.338  0.00  0.00    +0.257 C 
ENDBRANCH  14  16
ENDBRANCH   9  13
BRANCH   5  18
ATOM     18  S   UNL     1      34.598 -16.854 -23.610  0.00  0.00    +0.088 S 
ATOM     19  O   UNL     1      35.991 -16.333 -23.830  0.00  0.00    -0.247 OA
BRANCH  18  20
ATOM     20  C   UNL     1      33.811 -15.681 -22.481  0.00  0.00    +0.060 C 
ATOM     21  C   UNL     1      34.069 -15.766 -21.120  0.00  0.00    +0.009 C 
ATOM     22  C   UNL     1      32.960 -14.711 -22.989  0.00  0.00    +0.009 C 
ATOM     23  C   UNL     1      33.463 -14.862 -20.249  0.00  0.00    +0.001 C 
ATOM     24  C   UNL     1      32.353 -13.806 -22.118  0.00  0.00    +0.001 C 
ATOM     25  C   UNL     1      32.604 -13.882 -20.748  0.00  0.00    +0.000 C 
ENDBRANCH  18  20
ENDBRANCH   5  18
TORSDOF 4
ENDMDL
MODEL 6
REMARK VINA RESULT:      -8.8      7.450     10.694
REMARK  Name = 40854
REMARK  4 active torsions:
REMARK  status: ('A' for Active; 'I' for Inactive)
REMARK    1  A    between atoms: N_4  and  C_11
REMARK    2  A    between atoms: C_7  and  S_16
REMARK    3  A    between atoms: C_12  and  O_24
REMARK    4  A    between atoms: S_16  and  C_18
REMARK                            x       y       z     vdW  Elec       q    Type
REMARK                         _______ _______ _______ _____ _____    ______ ____
ROOT
ATOM      1  N   UNL     1      34.151 -12.934 -24.578  0.00  0.00    -0.302 N 
ATOM      2  N   UNL     1      32.476 -13.351 -23.177  0.00  0.00    -0.302 N 
ATOM      3  C   UNL     1      33.756 -11.710 -24.105  0.00  0.00    +0.061 C 
ATOM      4  C   UNL     1      32.709 -11.996 -23.232  0.00  0.00    +0.060 C 
ATOM      5  C   UNL     1      33.559  -9.376 -23.683  0.00  0.00    +0.062 C 
ATOM      6  C   UNL     1      34.210 -10.414 -24.357  0.00  0.00    +0.025 C 
ATOM      7  C   UNL     1      32.067 -10.941 -22.563  0.00  0.00    +0.016 C 
ATOM      8  C   UNL     1      32.506  -9.632 -22.802  0.00  0.00    +0.010 C 
ATOM      9  C   UNL     1      33.357 -13.882 -23.994  0.00  0.00    +0.229 C 
ATOM     10  H   UNL     1      34.876 -13.101 -25.222  0.00  0.00    +0.150 HD
ATOM     11  H   UNL     1      31.797 -13.820 -22.641  0.00  0.00    +0.150 HD
ENDROOT
BRANCH   9  13
ATOM     12  O   UNL     1      33.590 -15.224 -26.638  0.00  0.00    -0.226 OA
ATOM     13  N   UNL     1      33.532 -15.210 -24.288  0.00  0.00    -0.240 N 
ATOM     14  C   UNL     1      33.635 -15.790 -25.552  0.00  0.00    +0.404 C 
ATOM     15  H   UNL     1      33.590 -15.822 -23.520  0.00  0.00    +0.156 HD
BRANCH  14  16
ATOM     16  O   UNL     1      33.801 -17.144 -25.418  0.00  0.00    -0.431 OA
ATOM     17  C   UNL     1      34.855 -17.567 -24.545  0.00  0.00    +0.257 C 
ENDBRANCH  14  16
ENDBRANCH   9  13
BRANCH   5  18
ATOM     18  S   UNL     1      34.088  -7.682 -23.959  0.00  0.00    +0.088 S 
ATOM     19  O   UNL     1      35.387  -7.522 -23.220  0.00  0.00    -0.247 OA
BRANCH  18  20
ATOM     20  C   UNL     1      32.822  -6.974 -22.879  0.00  0.00    +0.060 C 
ATOM     21  C   UNL     1      32.951  -7.100 -21.503  0.00  0.00    +0.009 C 
ATOM     22  C   UNL     1      31.738  -6.315 -23.440  0.00  0.00    +0.009 C 
ATOM     23  C   UNL     1      31.975  -6.554 -20.671  0.00  0.00    +0.001 C 
ATOM     24  C   UNL     1      30.762  -5.768 -22.607  0.00  0.00    +0.001 C 
ATOM     25  C   UNL     1      30.880  -5.889 -21.223  0.00  0.00    +0.000 C 
ENDBRANCH  18  20
ENDBRANCH   5  18
TORSDOF 4
ENDMDL
MODEL 7
REMARK VINA RESULT:      -8.8      2.971      8.923
REMARK  Name = 40854
REMARK  4 active torsions:
REMARK  status: ('A' for Active; 'I' for Inactive)
REMARK    1  A    between atoms: N_4  and  C_11
REMARK    2  A    between atoms: C_7  and  S_16
REMARK    3  A    between atoms: C_12  and  O_24
REMARK    4  A    between atoms: S_16  and  C_18
REMARK                            x       y       z     vdW  Elec       q    Type
REMARK                         _______ _______ _______ _____ _____    ______ ____
ROOT
ATOM      1  N   UNL     1      34.479 -21.827 -19.240  0.00  0.00    -0.302 N 
ATOM      2  N   UNL     1      36.473 -20.862 -19.061  0.00  0.00    -0.302 N 
ATOM      3  C   UNL     1      34.996 -22.274 -18.052  0.00  0.00    +0.061 C 
ATOM      4  C   UNL     1      36.241 -21.658 -17.962  0.00  0.00    +0.060 C 
ATOM      5  C   UNL     1      35.315 -23.375 -15.967  0.00  0.00    +0.062 C 
ATOM      6  C   UNL     1      34.497 -23.138 -17.076  0.00  0.00    +0.025 C 
ATOM      7  C   UNL     1      37.050 -21.907 -16.840  0.00  0.00    +0.016 C 
ATOM      8  C   UNL     1      36.569 -22.772 -15.849  0.00  0.00    +0.010 C 
ATOM      9  C   UNL     1      35.398 -20.987 -19.805  0.00  0.00    +0.229 C 
ATOM     10  H   UNL     1      33.603 -22.068 -19.619  0.00  0.00    +0.150 HD
ATOM     11  H   UNL     1      37.271 -20.318 -19.248  0.00  0.00    +0.150 HD
ENDROOT
BRANCH   9  13
ATOM     12  O   UNL     1      35.800 -18.163 -20.644  0.00  0.00    -0.226 OA
ATOM     13  N   UNL     1      35.141 -20.389 -21.011  0.00  0.00    -0.240 N 
ATOM     14  C   UNL     1      35.349 -19.053 -21.355  0.00  0.00    +0.404 C 
ATOM     15  H   UNL     1      34.767 -20.968 -21.714  0.00  0.00    +0.156 HD
BRANCH  14  16
ATOM     16  O   UNL     1      34.964 -18.853 -22.655  0.00  0.00    -0.431 OA
ATOM     17  C   UNL     1      35.138 -17.528 -23.168  0.00  0.00    +0.257 C 
ENDBRANCH  14  16
ENDBRANCH   9  13
BRANCH   5  18
ATOM     18  S   UNL     1      34.739 -24.478 -14.671  0.00  0.00    +0.088 S 
ATOM     19  O   UNL     1      34.182 -23.598 -13.587  0.00  0.00    -0.247 OA
BRANCH  18  20
ATOM     20  C   UNL     1      36.407 -24.922 -14.130  0.00  0.00    +0.060 C 
ATOM     21  C   UNL     1      37.171 -25.780 -14.907  0.00  0.00    +0.009 C 
ATOM     22  C   UNL     1      36.900 -24.397 -12.944  0.00  0.00    +0.009 C 
ATOM     23  C   UNL     1      38.456 -26.122 -14.489  0.00  0.00    +0.001 C 
ATOM     24  C   UNL     1      38.186 -24.740 -12.526  0.00  0.00    +0.001 C 
ATOM     25  C   UNL     1      38.964 -25.603 -13.299  0.00  0.00    +0.000 C 
ENDBRANCH  18  20
ENDBRANCH   5  18
TORSDOF 4
ENDMDL
MODEL 8
REMARK VINA RESULT:      -8.7      3.403      4.954
REMARK  Name = 40854
REMARK  4 active torsions:
REMARK  status: ('A' for Active; 'I' for Inactive)
REMARK    1  A    between atoms: N_4  and  C_11
REMARK    2  A    between atoms: C_7  and  S_16
REMARK    3  A    between atoms: C_12  and  O_24
REMARK    4  A    between atoms: S_16  and  C_18
REMARK                            x       y       z     vdW  Elec       q    Type
REMARK                         _______ _______ _______ _____ _____    ______ ____
ROOT
ATOM      1  N   UNL     1      34.060 -18.346 -20.637  0.00  0.00    -0.302 N 
ATOM      2  N   UNL     1      35.321 -19.093 -22.308  0.00  0.00    -0.302 N 
ATOM      3  C   UNL     1      34.198 -17.285 -21.493  0.00  0.00    +0.061 C 
ATOM      4  C   UNL     1      34.989 -17.775 -22.529  0.00  0.00    +0.060 C 
ATOM      5  C   UNL     1      34.060 -15.144 -22.522  0.00  0.00    +0.062 C 
ATOM      6  C   UNL     1      33.714 -15.976 -21.453  0.00  0.00    +0.025 C 
ATOM      7  C   UNL     1      35.327 -16.925 -23.595  0.00  0.00    +0.016 C 
ATOM      8  C   UNL     1      34.852 -15.607 -23.575  0.00  0.00    +0.010 C 
ATOM      9  C   UNL     1      34.748 -19.402 -21.168  0.00  0.00    +0.229 C 
ATOM     10  H   UNL     1      33.556 -18.348 -19.792  0.00  0.00    +0.150 HD
ATOM     11  H   UNL     1      35.868 -19.676 -22.881  0.00  0.00    +0.150 HD
ENDROOT
BRANCH   9  13
ATOM     12  O   UNL     1      32.625 -20.764 -19.592  0.00  0.00    -0.226 OA
ATOM     13  N   UNL     1      34.781 -20.607 -20.514  0.00  0.00    -0.240 N 
ATOM     14  C   UNL     1      33.752 -21.204 -19.785  0.00  0.00    +0.404 C 
ATOM     15  H   UNL     1      35.628 -21.106 -20.564  0.00  0.00    +0.156 HD
BRANCH  14  16
ATOM     16  O   UNL     1      34.186 -22.404 -19.287  0.00  0.00    -0.431 OA
ATOM     17  C   UNL     1      33.679 -22.773 -18.000  0.00  0.00    +0.257 C 
ENDBRANCH  14  16
ENDBRANCH   9  13
BRANCH   5  18
ATOM     18  S   UNL     1      33.474 -13.446 -22.538  0.00  0.00    +0.088 S 
ATOM     19  O   UNL     1      32.045 -13.490 -22.075  0.00  0.00    -0.247 OA
BRANCH  18  20
ATOM     20  C   UNL     1      33.398 -13.353 -24.343  0.00  0.00    +0.060 C 
ATOM     21  C   UNL     1      33.885 -12.226 -24.989  0.00  0.00    +0.009 C 
ATOM     22  C   UNL     1      32.855 -14.411 -25.057  0.00  0.00    +0.009 C 
ATOM     23  C   UNL     1      33.826 -12.155 -26.380  0.00  0.00    +0.001 C 
ATOM     24  C   UNL     1      32.796 -14.340 -26.449  0.00  0.00    +0.001 C 
ATOM     25  C   UNL     1      33.281 -13.211 -27.110  0.00  0.00    +0.000 C 
ENDBRANCH  18  20
ENDBRANCH   5  18
TORSDOF 4
ENDMDL
MODEL 9
REMARK VINA RESULT:      -8.7      5.278      9.316
REMARK  Name = 40854
REMARK  4 active torsions:
REMARK  status: ('A' for Active; 'I' for Inactive)
REMARK    1  A    between atoms: N_4  and  C_11
REMARK    2  A    between atoms: C_7  and  S_16
REMARK    3  A    between atoms: C_12  and  O_24
REMARK    4  A    between atoms: S_16  and  C_18
REMARK                            x       y       z     vdW  Elec       q    Type
REMARK                         _______ _______ _______ _____ _____    ______ ____
ROOT
ATOM      1  N   UNL     1      33.120 -13.053 -23.281  0.00  0.00    -0.302 N 
ATOM      2  N   UNL     1      32.412 -13.233 -21.182  0.00  0.00    -0.302 N 
ATOM      3  C   UNL     1      33.503 -14.304 -22.872  0.00  0.00    +0.061 C 
ATOM      4  C   UNL     1      33.050 -14.394 -21.559  0.00  0.00    +0.060 C 
ATOM      5  C   UNL     1      34.412 -16.501 -22.779  0.00  0.00    +0.062 C 
ATOM      6  C   UNL     1      34.187 -15.336 -23.518  0.00  0.00    +0.025 C 
ATOM      7  C   UNL     1      33.284 -15.572 -20.831  0.00  0.00    +0.016 C 
ATOM      8  C   UNL     1      33.970 -16.621 -21.460  0.00  0.00    +0.010 C 
ATOM      9  C   UNL     1      32.472 -12.454 -22.238  0.00  0.00    +0.229 C 
ATOM     10  H   UNL     1      33.282 -12.658 -24.168  0.00  0.00    +0.150 HD
ATOM     11  H   UNL     1      32.000 -13.033 -20.311  0.00  0.00    +0.150 HD
ENDROOT
BRANCH   9  13
ATOM     12  O   UNL     1      33.460 -10.193 -23.897  0.00  0.00    -0.226 OA
ATOM     13  N   UNL     1      31.975 -11.183 -22.368  0.00  0.00    -0.240 N 
ATOM     14  C   UNL     1      32.479 -10.154 -23.164  0.00  0.00    +0.404 C 
ATOM     15  H   UNL     1      31.172 -10.972 -21.838  0.00  0.00    +0.156 HD
BRANCH  14  16
ATOM     16  O   UNL     1      31.698  -9.039 -23.014  0.00  0.00    -0.431 OA
ATOM     17  C   UNL     1      31.857  -8.318 -21.787  0.00  0.00    +0.257 C 
ENDBRANCH  14  16
ENDBRANCH   9  13
BRANCH   5  18
ATOM     18  S   UNL     1      35.287 -17.871 -23.544  0.00  0.00    +0.088 S 
ATOM     19  O   UNL     1      34.372 -18.414 -24.606  0.00  0.00    -0.247 OA
BRANCH  18  20
ATOM     20  C   UNL     1      35.084 -18.966 -22.119  0.00  0.00    +0.060 C 
ATOM     21  C   UNL     1      33.816 -19.415 -21.779  0.00  0.00    +0.009 C 
ATOM     22  C   UNL     1      36.199 -19.343 -21.385  0.00  0.00    +0.009 C 
ATOM     23  C   UNL     1      33.660 -20.259 -20.680  0.00  0.00    +0.001 C 
ATOM     24  C   UNL     1      36.042 -20.187 -20.286  0.00  0.00    +0.001 C 
ATOM     25  C   UNL     1      34.772 -20.644 -19.933  0.00  0.00    +0.000 C 
ENDBRANCH  18  20
ENDBRANCH   5  18
TORSDOF 4
ENDMDL
