MODEL 1
REMARK VINA RESULT:      -4.3      0.000      0.000
REMARK  Name = 79088
REMARK  1 active torsions:
REMARK  status: ('A' for Active; 'I' for Inactive)
REMARK    1  A    between atoms: C_3  and  C_7
REMARK                            x       y       z     vdW  Elec       q    Type
REMARK                         _______ _______ _______ _____ _____    ______ ____
ROOT
ATOM      1  O   UNL     1      36.698 -27.311 -16.211  0.00  0.00    -0.267 OA
ATOM      2  N   UNL     1      35.551 -25.764 -14.911  0.00  0.00    -0.323 N 
ATOM      3  C   UNL     1      36.607 -26.572 -15.244  0.00  0.00    +0.278 C 
ATOM      4  H   UNL     1      34.762 -25.719 -15.498  0.00  0.00    +0.145 HD
ATOM      5  H   UNL     1      35.583 -25.228 -14.086  0.00  0.00    +0.145 HD
ENDROOT
BRANCH   3   7
ATOM      6  O   UNL     1      38.846 -26.881 -14.648  0.00  0.00    -0.287 OA
ATOM      7  C   UNL     1      37.738 -26.539 -14.257  0.00  0.00    +0.226 C 
ATOM      8  C   UNL     1      37.426 -26.102 -12.857  0.00  0.00    +0.082 C 
ENDBRANCH   3   7
TORSDOF 1
ENDMDL
MODEL 2
REMARK VINA RESULT:      -4.2      1.601      1.980
REMARK  Name = 79088
REMARK  1 active torsions:
REMARK  status: ('A' for Active; 'I' for Inactive)
REMARK    1  A    between atoms: C_3  and  C_7
REMARK                            x       y       z     vdW  Elec       q    Type
REMARK                         _______ _______ _______ _____ _____    ______ ____
ROOT
ATOM      1  O   UNL     1      38.386 -27.233 -14.738  0.00  0.00    -0.267 OA
ATOM      2  N   UNL     1      36.119 -26.724 -14.777  0.00  0.00    -0.323 N 
ATOM      3  C   UNL     1      37.390 -26.711 -14.264  0.00  0.00    +0.278 C 
ATOM      4  H   UNL     1      35.940 -27.170 -15.636  0.00  0.00    +0.145 HD
ATOM      5  H   UNL     1      35.386 -26.285 -14.288  0.00  0.00    +0.145 HD
ENDROOT
BRANCH   3   7
ATOM      6  O   UNL     1      36.934 -26.472 -11.984  0.00  0.00    -0.287 OA
ATOM      7  C   UNL     1      37.512 -25.995 -12.950  0.00  0.00    +0.226 C 
ATOM      8  C   UNL     1      38.325 -24.735 -12.920  0.00  0.00    +0.082 C 
ENDBRANCH   3   7
TORSDOF 1
ENDMDL
MODEL 3
REMARK VINA RESULT:      -4.2      4.183      4.415
REMARK  Name = 79088
REMARK  1 active torsions:
REMARK  status: ('A' for Active; 'I' for Inactive)
REMARK    1  A    between atoms: C_3  and  C_7
REMARK                            x       y       z     vdW  Elec       q    Type
REMARK                         _______ _______ _______ _____ _____    ______ ____
ROOT
ATOM      1  O   UNL     1      35.335 -24.980 -10.338  0.00  0.00    -0.267 OA
ATOM      2  N   UNL     1      35.045 -24.729 -12.629  0.00  0.00    -0.323 N 
ATOM      3  C   UNL     1      35.718 -24.622 -11.440  0.00  0.00    +0.278 C 
ATOM      4  H   UNL     1      34.159 -25.157 -12.657  0.00  0.00    +0.145 HD
ATOM      5  H   UNL     1      35.449 -24.379 -13.457  0.00  0.00    +0.145 HD
ENDROOT
BRANCH   3   7
ATOM      6  O   UNL     1      37.205 -22.882 -10.971  0.00  0.00    -0.287 OA
ATOM      7  C   UNL     1      37.054 -23.948 -11.551  0.00  0.00    +0.226 C 
ATOM      8  C   UNL     1      38.107 -24.625 -12.377  0.00  0.00    +0.082 C 
ENDBRANCH   3   7
TORSDOF 1
ENDMDL
MODEL 4
REMARK VINA RESULT:      -4.1      7.322      8.158
REMARK  Name = 79088
REMARK  1 active torsions:
REMARK  status: ('A' for Active; 'I' for Inactive)
REMARK    1  A    between atoms: C_3  and  C_7
REMARK                            x       y       z     vdW  Elec       q    Type
REMARK                         _______ _______ _______ _____ _____    ______ ____
ROOT
ATOM      1  O   UNL     1      35.358 -22.444 -18.842  0.00  0.00    -0.267 OA
ATOM      2  N   UNL     1      35.673 -20.454 -19.999  0.00  0.00    -0.323 N 
ATOM      3  C   UNL     1      34.937 -21.457 -19.425  0.00  0.00    +0.278 C 
ATOM      4  H   UNL     1      36.655 -20.469 -19.942  0.00  0.00    +0.145 HD
ATOM      5  H   UNL     1      35.218 -19.717 -20.469  0.00  0.00    +0.145 HD
ENDROOT
BRANCH   3   7
ATOM      6  O   UNL     1      32.729 -22.110 -19.029  0.00  0.00    -0.287 OA
ATOM      7  C   UNL     1      33.454 -21.302 -19.592  0.00  0.00    +0.226 C 
ATOM      8  C   UNL     1      32.966 -20.174 -20.452  0.00  0.00    +0.082 C 
ENDBRANCH   3   7
TORSDOF 1
ENDMDL
MODEL 5
REMARK VINA RESULT:      -4.0     11.780     12.069
REMARK  Name = 79088
REMARK  1 active torsions:
REMARK  status: ('A' for Active; 'I' for Inactive)
REMARK    1  A    between atoms: C_3  and  C_7
REMARK                            x       y       z     vdW  Elec       q    Type
REMARK                         _______ _______ _______ _____ _____    ______ ____
ROOT
ATOM      1  O   UNL     1      42.550 -16.703 -15.625  0.00  0.00    -0.267 OA
ATOM      2  N   UNL     1      40.644 -15.386 -15.449  0.00  0.00    -0.323 N 
ATOM      3  C   UNL     1      41.679 -15.997 -16.107  0.00  0.00    +0.278 C 
ATOM      4  H   UNL     1      40.530 -15.519 -14.480  0.00  0.00    +0.145 HD
ATOM      5  H   UNL     1      40.014 -14.814 -15.945  0.00  0.00    +0.145 HD
ENDROOT
BRANCH   3   7
ATOM      6  O   UNL     1      42.134 -16.584 -18.323  0.00  0.00    -0.287 OA
ATOM      7  C   UNL     1      41.727 -15.703 -17.579  0.00  0.00    +0.226 C 
ATOM      8  C   UNL     1      41.286 -14.342 -18.029  0.00  0.00    +0.082 C 
ENDBRANCH   3   7
TORSDOF 1
ENDMDL
MODEL 6
REMARK VINA RESULT:      -4.0      7.418      8.152
REMARK  Name = 79088
REMARK  1 active torsions:
REMARK  status: ('A' for Active; 'I' for Inactive)
REMARK    1  A    between atoms: C_3  and  C_7
REMARK                            x       y       z     vdW  Elec       q    Type
REMARK                         _______ _______ _______ _____ _____    ______ ____
ROOT
ATOM      1  O   UNL     1      34.995 -22.672 -19.178  0.00  0.00    -0.267 OA
ATOM      2  N   UNL     1      32.758 -22.198 -18.766  0.00  0.00    -0.323 N 
ATOM      3  C   UNL     1      34.005 -21.967 -19.286  0.00  0.00    +0.278 C 
ATOM      4  H   UNL     1      32.581 -23.023 -18.260  0.00  0.00    +0.145 HD
ATOM      5  H   UNL     1      32.039 -21.538 -18.900  0.00  0.00    +0.145 HD
ENDROOT
BRANCH   3   7
ATOM      6  O   UNL     1      35.241 -20.178 -20.144  0.00  0.00    -0.287 OA
ATOM      7  C   UNL     1      34.127 -20.669 -20.032  0.00  0.00    +0.226 C 
ATOM      8  C   UNL     1      32.869 -20.061 -20.576  0.00  0.00    +0.082 C 
ENDBRANCH   3   7
TORSDOF 1
ENDMDL
MODEL 7
REMARK VINA RESULT:      -4.0      3.294      4.114
REMARK  Name = 79088
REMARK  1 active torsions:
REMARK  status: ('A' for Active; 'I' for Inactive)
REMARK    1  A    between atoms: C_3  and  C_7
REMARK                            x       y       z     vdW  Elec       q    Type
REMARK                         _______ _______ _______ _____ _____    ______ ____
ROOT
ATOM      1  O   UNL     1      38.793 -23.260 -11.738  0.00  0.00    -0.267 OA
ATOM      2  N   UNL     1      36.656 -23.758 -10.973  0.00  0.00    -0.323 N 
ATOM      3  C   UNL     1      37.832 -24.005 -11.632  0.00  0.00    +0.278 C 
ATOM      4  H   UNL     1      36.531 -22.907 -10.493  0.00  0.00    +0.145 HD
ATOM      5  H   UNL     1      35.937 -24.431 -10.978  0.00  0.00    +0.145 HD
ENDROOT
BRANCH   3   7
ATOM      6  O   UNL     1      37.086 -26.196 -11.956  0.00  0.00    -0.287 OA
ATOM      7  C   UNL     1      37.880 -25.340 -12.318  0.00  0.00    +0.226 C 
ATOM      8  C   UNL     1      38.911 -25.532 -13.390  0.00  0.00    +0.082 C 
ENDBRANCH   3   7
TORSDOF 1
ENDMDL
MODEL 8
REMARK VINA RESULT:      -4.0      6.599      6.883
REMARK  Name = 79088
REMARK  1 active torsions:
REMARK  status: ('A' for Active; 'I' for Inactive)
REMARK    1  A    between atoms: C_3  and  C_7
REMARK                            x       y       z     vdW  Elec       q    Type
REMARK                         _______ _______ _______ _____ _____    ______ ____
ROOT
ATOM      1  O   UNL     1      33.926 -23.819 -19.357  0.00  0.00    -0.267 OA
ATOM      2  N   UNL     1      32.913 -21.729 -19.421  0.00  0.00    -0.323 N 
ATOM      3  C   UNL     1      33.963 -22.600 -19.294  0.00  0.00    +0.278 C 
ATOM      4  H   UNL     1      32.010 -22.071 -19.610  0.00  0.00    +0.145 HD
ATOM      5  H   UNL     1      33.063 -20.760 -19.325  0.00  0.00    +0.145 HD
ENDROOT
BRANCH   3   7
ATOM      6  O   UNL     1      35.872 -22.261 -17.989  0.00  0.00    -0.287 OA
ATOM      7  C   UNL     1      35.279 -21.937 -19.008  0.00  0.00    +0.226 C 
ATOM      8  C   UNL     1      35.767 -20.912 -19.988  0.00  0.00    +0.082 C 
ENDBRANCH   3   7
TORSDOF 1
ENDMDL
MODEL 9
REMARK VINA RESULT:      -4.0      2.297      3.023
REMARK  Name = 79088
REMARK  1 active torsions:
REMARK  status: ('A' for Active; 'I' for Inactive)
REMARK    1  A    between atoms: C_3  and  C_7
REMARK                            x       y       z     vdW  Elec       q    Type
REMARK                         _______ _______ _______ _____ _____    ______ ____
ROOT
ATOM      1  O   UNL     1      40.885 -25.040 -14.652  0.00  0.00    -0.267 OA
ATOM      2  N   UNL     1      39.006 -24.157 -15.694  0.00  0.00    -0.323 N 
ATOM      3  C   UNL     1      39.682 -25.001 -14.852  0.00  0.00    +0.278 C 
ATOM      4  H   UNL     1      39.496 -23.469 -16.199  0.00  0.00    +0.145 HD
ATOM      5  H   UNL     1      38.029 -24.238 -15.792  0.00  0.00    +0.145 HD
ENDROOT
BRANCH   3   7
ATOM      6  O   UNL     1      38.575 -27.055 -14.719  0.00  0.00    -0.287 OA
ATOM      7  C   UNL     1      38.805 -25.997 -14.150  0.00  0.00    +0.226 C 
ATOM      8  C   UNL     1      38.263 -25.617 -12.805  0.00  0.00    +0.082 C 
ENDBRANCH   3   7
TORSDOF 1
ENDMDL
