MODEL 1
REMARK VINA RESULT:      -8.8      0.000      0.000
REMARK  Name = 5284550
REMARK  3 active torsions:
REMARK  status: ('A' for Active; 'I' for Inactive)
REMARK    1  A    between atoms: C_6  and  C_17
REMARK    2  A    between atoms: C_17  and  C_18
REMARK    3  A    between atoms: C_18  and  N_19
REMARK                            x       y       z     vdW  Elec       q    Type
REMARK                         _______ _______ _______ _____ _____    ______ ____
ROOT
ATOM      1  S   UNL     1      33.822 -15.836 -25.128  0.00  0.00    -0.109 S 
ATOM      2  C   UNL     1      33.238 -13.438 -22.810  0.00  0.00    -0.004 C 
ATOM      3  C   UNL     1      33.658 -12.640 -23.978  0.00  0.00    -0.003 C 
ATOM      4  C   UNL     1      33.837 -14.747 -22.437  0.00  0.00    +0.005 C 
ATOM      5  C   UNL     1      33.392 -13.119 -25.272  0.00  0.00    -0.011 C 
ATOM      6  C   UNL     1      32.193 -12.962 -22.107  0.00  0.00    -0.028 C 
ATOM      7  C   UNL     1      32.704 -14.443 -25.458  0.00  0.00    +0.088 C 
ATOM      8  C   UNL     1      34.114 -15.789 -23.350  0.00  0.00    +0.026 C 
ATOM      9  C   UNL     1      34.317 -11.413 -23.808  0.00  0.00    -0.000 C 
ATOM     10  C   UNL     1      33.798 -12.362 -26.380  0.00  0.00    -0.003 C 
ATOM     11  C   UNL     1      34.196 -14.923 -21.081  0.00  0.00    +0.000 C 
ATOM     12  C   UNL     1      34.720 -16.970 -22.863  0.00  0.00    +0.006 C 
ATOM     13  C   UNL     1      34.710 -10.668 -24.920  0.00  0.00    -0.000 C 
ATOM     14  C   UNL     1      34.451 -11.142 -26.204  0.00  0.00    -0.000 C 
ATOM     15  C   UNL     1      34.790 -16.099 -20.625  0.00  0.00    +0.000 C 
ATOM     16  C   UNL     1      35.049 -17.126 -21.517  0.00  0.00    +0.001 C 
ENDROOT
BRANCH   6  17
ATOM     17  C   UNL     1      31.466 -11.701 -22.452  0.00  0.00    +0.003 C 
BRANCH  17  18
ATOM     18  C   UNL     1      31.503 -10.712 -21.287  0.00  0.00    -0.073 C 
BRANCH  18  19
ATOM     19  N   UNL     1      32.185  -9.486 -21.687  0.00  0.00    +0.384 N 
ATOM     20  C   UNL     1      32.240  -8.541 -20.571  0.00  0.00    -0.101 C 
ATOM     21  C   UNL     1      31.518  -8.876 -22.838  0.00  0.00    -0.101 C 
ATOM     22  H   UNL     1      33.140  -9.725 -21.956  0.00  0.00    -0.080 HD
ENDBRANCH  18  19
ENDBRANCH  17  18
ENDBRANCH   6  17
TORSDOF 3
ENDMDL
MODEL 2
REMARK VINA RESULT:      -8.6     10.334     14.091
REMARK  Name = 5284550
REMARK  3 active torsions:
REMARK  status: ('A' for Active; 'I' for Inactive)
REMARK    1  A    between atoms: C_6  and  C_17
REMARK    2  A    between atoms: C_17  and  C_18
REMARK    3  A    between atoms: C_18  and  N_19
REMARK                            x       y       z     vdW  Elec       q    Type
REMARK                         _______ _______ _______ _____ _____    ______ ____
ROOT
ATOM      1  S   UNL     1      37.512 -21.829 -16.672  0.00  0.00    -0.109 S 
ATOM      2  C   UNL     1      34.756 -23.632 -15.886  0.00  0.00    -0.004 C 
ATOM      3  C   UNL     1      35.840 -24.484 -15.360  0.00  0.00    -0.003 C 
ATOM      4  C   UNL     1      34.842 -22.862 -17.155  0.00  0.00    +0.005 C 
ATOM      5  C   UNL     1      37.027 -23.886 -14.907  0.00  0.00    -0.011 C 
ATOM      6  C   UNL     1      33.667 -23.502 -15.104  0.00  0.00    -0.028 C 
ATOM      7  C   UNL     1      37.194 -22.394 -14.976  0.00  0.00    +0.088 C 
ATOM      8  C   UNL     1      35.960 -22.095 -17.552  0.00  0.00    +0.026 C 
ATOM      9  C   UNL     1      35.695 -25.878 -15.311  0.00  0.00    -0.000 C 
ATOM     10  C   UNL     1      38.059 -24.699 -14.413  0.00  0.00    -0.003 C 
ATOM     11  C   UNL     1      33.742 -22.960 -18.039  0.00  0.00    +0.000 C 
ATOM     12  C   UNL     1      35.922 -21.443 -18.804  0.00  0.00    +0.006 C 
ATOM     13  C   UNL     1      36.727 -26.674 -14.814  0.00  0.00    -0.000 C 
ATOM     14  C   UNL     1      37.907 -26.084 -14.365  0.00  0.00    -0.000 C 
ATOM     15  C   UNL     1      33.727 -22.303 -19.268  0.00  0.00    +0.000 C 
ATOM     16  C   UNL     1      34.818 -21.540 -19.651  0.00  0.00    +0.001 C 
ENDROOT
BRANCH   6  17
ATOM     17  C   UNL     1      33.519 -24.164 -13.770  0.00  0.00    +0.003 C 
BRANCH  17  18
ATOM     18  C   UNL     1      32.317 -25.107 -13.758  0.00  0.00    -0.073 C 
BRANCH  18  19
ATOM     19  N   UNL     1      31.144 -24.437 -14.309  0.00  0.00    +0.384 N 
ATOM     20  C   UNL     1      30.526 -23.572 -13.303  0.00  0.00    -0.101 C 
ATOM     21  C   UNL     1      30.174 -25.417 -14.802  0.00  0.00    -0.101 C 
ATOM     22  H   UNL     1      31.446 -23.858 -15.093  0.00  0.00    -0.080 HD
ENDBRANCH  18  19
ENDBRANCH  17  18
ENDBRANCH   6  17
TORSDOF 3
ENDMDL
MODEL 3
REMARK VINA RESULT:      -8.6      2.577      5.615
REMARK  Name = 5284550
REMARK  3 active torsions:
REMARK  status: ('A' for Active; 'I' for Inactive)
REMARK    1  A    between atoms: C_6  and  C_17
REMARK    2  A    between atoms: C_17  and  C_18
REMARK    3  A    between atoms: C_18  and  N_19
REMARK                            x       y       z     vdW  Elec       q    Type
REMARK                         _______ _______ _______ _____ _____    ______ ____
ROOT
ATOM      1  S   UNL     1      33.363  -9.953 -23.934  0.00  0.00    -0.109 S 
ATOM      2  C   UNL     1      33.313 -13.243 -23.139  0.00  0.00    -0.004 C 
ATOM      3  C   UNL     1      33.276 -13.284 -24.613  0.00  0.00    -0.003 C 
ATOM      4  C   UNL     1      32.593 -12.236 -22.315  0.00  0.00    +0.005 C 
ATOM      5  C   UNL     1      33.894 -12.257 -25.346  0.00  0.00    -0.011 C 
ATOM      6  C   UNL     1      34.120 -14.138 -22.538  0.00  0.00    -0.028 C 
ATOM      7  C   UNL     1      34.567 -11.120 -24.629  0.00  0.00    +0.088 C 
ATOM      8  C   UNL     1      32.564 -10.851 -22.590  0.00  0.00    +0.026 C 
ATOM      9  C   UNL     1      32.632 -14.334 -25.285  0.00  0.00    -0.000 C 
ATOM     10  C   UNL     1      33.852 -12.295 -26.747  0.00  0.00    -0.003 C 
ATOM     11  C   UNL     1      31.849 -12.723 -21.215  0.00  0.00    +0.000 C 
ATOM     12  C   UNL     1      31.809 -10.010 -21.742  0.00  0.00    +0.006 C 
ATOM     13  C   UNL     1      32.603 -14.361 -26.679  0.00  0.00    -0.000 C 
ATOM     14  C   UNL     1      33.212 -13.342 -27.409  0.00  0.00    -0.000 C 
ATOM     15  C   UNL     1      31.114 -11.871 -20.392  0.00  0.00    +0.000 C 
ATOM     16  C   UNL     1      31.097 -10.511 -20.653  0.00  0.00    +0.001 C 
ENDROOT
BRANCH   6  17
ATOM     17  C   UNL     1      34.953 -15.135 -23.280  0.00  0.00    +0.003 C 
BRANCH  17  18
ATOM     18  C   UNL     1      34.793 -16.533 -22.683  0.00  0.00    -0.073 C 
BRANCH  18  19
ATOM     19  N   UNL     1      35.314 -17.538 -23.605  0.00  0.00    +0.384 N 
ATOM     20  C   UNL     1      34.745 -17.353 -24.940  0.00  0.00    -0.101 C 
ATOM     21  C   UNL     1      35.029 -18.886 -23.112  0.00  0.00    -0.101 C 
ATOM     22  H   UNL     1      36.325 -17.421 -23.665  0.00  0.00    -0.080 HD
ENDBRANCH  18  19
ENDBRANCH  17  18
ENDBRANCH   6  17
TORSDOF 3
ENDMDL
MODEL 4
REMARK VINA RESULT:      -8.0     10.666     14.486
REMARK  Name = 5284550
REMARK  3 active torsions:
REMARK  status: ('A' for Active; 'I' for Inactive)
REMARK    1  A    between atoms: C_6  and  C_17
REMARK    2  A    between atoms: C_17  and  C_18
REMARK    3  A    between atoms: C_18  and  N_19
REMARK                            x       y       z     vdW  Elec       q    Type
REMARK                         _______ _______ _______ _____ _____    ______ ____
ROOT
ATOM      1  S   UNL     1      37.441 -21.952 -16.856  0.00  0.00    -0.109 S 
ATOM      2  C   UNL     1      34.924 -23.835 -15.597  0.00  0.00    -0.004 C 
ATOM      3  C   UNL     1      36.110 -24.647 -15.265  0.00  0.00    -0.003 C 
ATOM      4  C   UNL     1      34.763 -23.074 -16.865  0.00  0.00    +0.005 C 
ATOM      5  C   UNL     1      37.337 -24.008 -15.026  0.00  0.00    -0.011 C 
ATOM      6  C   UNL     1      33.983 -23.733 -14.639  0.00  0.00    -0.028 C 
ATOM      7  C   UNL     1      37.440 -22.511 -15.128  0.00  0.00    +0.088 C 
ATOM      8  C   UNL     1      35.770 -22.275 -17.452  0.00  0.00    +0.026 C 
ATOM      9  C   UNL     1      36.022 -26.045 -15.187  0.00  0.00    -0.000 C 
ATOM     10  C   UNL     1      38.465 -24.782 -14.716  0.00  0.00    -0.003 C 
ATOM     11  C   UNL     1      33.531 -23.214 -17.544  0.00  0.00    +0.000 C 
ATOM     12  C   UNL     1      35.494 -21.636 -18.681  0.00  0.00    +0.006 C 
ATOM     13  C   UNL     1      37.150 -26.802 -14.873  0.00  0.00    -0.000 C 
ATOM     14  C   UNL     1      38.370 -26.172 -14.638  0.00  0.00    -0.000 C 
ATOM     15  C   UNL     1      33.281 -22.569 -18.754  0.00  0.00    +0.000 C 
ATOM     16  C   UNL     1      34.263 -21.775 -19.323  0.00  0.00    +0.001 C 
ENDROOT
BRANCH   6  17
ATOM     17  C   UNL     1      34.090 -24.386 -13.298  0.00  0.00    +0.003 C 
BRANCH  17  18
ATOM     18  C   UNL     1      34.740 -23.447 -12.282  0.00  0.00    -0.073 C 
BRANCH  18  19
ATOM     19  N   UNL     1      35.905 -24.086 -11.678  0.00  0.00    +0.384 N 
ATOM     20  C   UNL     1      35.566 -24.635 -10.364  0.00  0.00    -0.101 C 
ATOM     21  C   UNL     1      37.011 -23.135 -11.561  0.00  0.00    -0.101 C 
ATOM     22  H   UNL     1      36.199 -24.852 -12.283  0.00  0.00    -0.080 HD
ENDBRANCH  18  19
ENDBRANCH  17  18
ENDBRANCH   6  17
TORSDOF 3
ENDMDL
MODEL 5
REMARK VINA RESULT:      -8.0      2.648      6.321
REMARK  Name = 5284550
REMARK  3 active torsions:
REMARK  status: ('A' for Active; 'I' for Inactive)
REMARK    1  A    between atoms: C_6  and  C_17
REMARK    2  A    between atoms: C_17  and  C_18
REMARK    3  A    between atoms: C_18  and  N_19
REMARK                            x       y       z     vdW  Elec       q    Type
REMARK                         _______ _______ _______ _____ _____    ______ ____
ROOT
ATOM      1  S   UNL     1      31.897 -10.314 -22.083  0.00  0.00    -0.109 S 
ATOM      2  C   UNL     1      33.540 -12.621 -23.938  0.00  0.00    -0.004 C 
ATOM      3  C   UNL     1      33.366 -13.327 -22.654  0.00  0.00    -0.003 C 
ATOM      4  C   UNL     1      33.846 -11.171 -24.057  0.00  0.00    +0.005 C 
ATOM      5  C   UNL     1      32.250 -13.036 -21.853  0.00  0.00    -0.011 C 
ATOM      6  C   UNL     1      33.322 -13.347 -25.052  0.00  0.00    -0.028 C 
ATOM      7  C   UNL     1      31.255 -11.999 -22.296  0.00  0.00    +0.088 C 
ATOM      8  C   UNL     1      33.207 -10.154 -23.311  0.00  0.00    +0.026 C 
ATOM      9  C   UNL     1      34.303 -14.282 -22.229  0.00  0.00    -0.000 C 
ATOM     10  C   UNL     1      32.090 -13.704 -20.630  0.00  0.00    -0.003 C 
ATOM     11  C   UNL     1      34.887 -10.807 -24.941  0.00  0.00    +0.000 C 
ATOM     12  C   UNL     1      33.623  -8.817 -23.498  0.00  0.00    +0.006 C 
ATOM     13  C   UNL     1      34.129 -14.942 -21.013  0.00  0.00    -0.000 C 
ATOM     14  C   UNL     1      33.024 -14.653 -20.215  0.00  0.00    -0.000 C 
ATOM     15  C   UNL     1      35.277  -9.479 -25.110  0.00  0.00    +0.000 C 
ATOM     16  C   UNL     1      34.642  -8.481 -24.390  0.00  0.00    +0.001 C 
ENDROOT
BRANCH   6  17
ATOM     17  C   UNL     1      32.924 -14.789 -25.039  0.00  0.00    +0.003 C 
BRANCH  17  18
ATOM     18  C   UNL     1      34.085 -15.680 -25.479  0.00  0.00    -0.073 C 
BRANCH  18  19
ATOM     19  N   UNL     1      34.184 -16.847 -24.610  0.00  0.00    +0.384 N 
ATOM     20  C   UNL     1      35.456 -16.842 -23.886  0.00  0.00    -0.101 C 
ATOM     21  C   UNL     1      34.044 -18.081 -25.384  0.00  0.00    -0.101 C 
ATOM     22  H   UNL     1      33.424 -16.803 -23.930  0.00  0.00    -0.080 HD
ENDBRANCH  18  19
ENDBRANCH  17  18
ENDBRANCH   6  17
TORSDOF 3
ENDMDL
MODEL 6
REMARK VINA RESULT:      -7.3      1.327      1.834
REMARK  Name = 5284550
REMARK  3 active torsions:
REMARK  status: ('A' for Active; 'I' for Inactive)
REMARK    1  A    between atoms: C_6  and  C_17
REMARK    2  A    between atoms: C_17  and  C_18
REMARK    3  A    between atoms: C_18  and  N_19
REMARK                            x       y       z     vdW  Elec       q    Type
REMARK                         _______ _______ _______ _____ _____    ______ ____
ROOT
ATOM      1  S   UNL     1      33.299 -14.599 -24.910  0.00  0.00    -0.109 S 
ATOM      2  C   UNL     1      32.762 -11.825 -23.045  0.00  0.00    -0.004 C 
ATOM      3  C   UNL     1      33.714 -11.333 -24.060  0.00  0.00    -0.003 C 
ATOM      4  C   UNL     1      32.829 -13.174 -22.424  0.00  0.00    +0.005 C 
ATOM      5  C   UNL     1      33.716 -11.911 -25.340  0.00  0.00    -0.011 C 
ATOM      6  C   UNL     1      31.735 -11.007 -22.744  0.00  0.00    -0.028 C 
ATOM      7  C   UNL     1      32.769 -13.033 -25.661  0.00  0.00    +0.088 C 
ATOM      8  C   UNL     1      33.057 -14.373 -23.138  0.00  0.00    +0.026 C 
ATOM      9  C   UNL     1      34.612 -10.298 -23.757  0.00  0.00    -0.000 C 
ATOM     10  C   UNL     1      34.626 -11.446 -26.300  0.00  0.00    -0.003 C 
ATOM     11  C   UNL     1      32.709 -13.239 -21.017  0.00  0.00    +0.000 C 
ATOM     12  C   UNL     1      33.133 -15.584 -22.416  0.00  0.00    +0.006 C 
ATOM     13  C   UNL     1      35.508  -9.842 -24.723  0.00  0.00    -0.000 C 
ATOM     14  C   UNL     1      35.515 -10.415 -25.993  0.00  0.00    -0.000 C 
ATOM     15  C   UNL     1      32.785 -14.448 -20.328  0.00  0.00    +0.000 C 
ATOM     16  C   UNL     1      32.994 -15.624 -21.028  0.00  0.00    +0.001 C 
ENDROOT
BRANCH   6  17
ATOM     17  C   UNL     1      31.529  -9.667 -23.377  0.00  0.00    +0.003 C 
BRANCH  17  18
ATOM     18  C   UNL     1      31.429  -8.571 -22.316  0.00  0.00    -0.073 C 
BRANCH  18  19
ATOM     19  N   UNL     1      32.759  -8.092 -21.957  0.00  0.00    +0.384 N 
ATOM     20  C   UNL     1      32.790  -7.660 -20.559  0.00  0.00    -0.101 C 
ATOM     21  C   UNL     1      33.168  -6.997 -22.837  0.00  0.00    -0.101 C 
ATOM     22  H   UNL     1      33.417  -8.864 -22.072  0.00  0.00    -0.080 HD
ENDBRANCH  18  19
ENDBRANCH  17  18
ENDBRANCH   6  17
TORSDOF 3
ENDMDL
MODEL 7
REMARK VINA RESULT:      -7.2      3.328      4.776
REMARK  Name = 5284550
REMARK  3 active torsions:
REMARK  status: ('A' for Active; 'I' for Inactive)
REMARK    1  A    between atoms: C_6  and  C_17
REMARK    2  A    between atoms: C_17  and  C_18
REMARK    3  A    between atoms: C_18  and  N_19
REMARK                            x       y       z     vdW  Elec       q    Type
REMARK                         _______ _______ _______ _____ _____    ______ ____
ROOT
ATOM      1  S   UNL     1      32.214 -12.703 -22.394  0.00  0.00    -0.109 S 
ATOM      2  C   UNL     1      32.178  -9.327 -22.649  0.00  0.00    -0.004 C 
ATOM      3  C   UNL     1      33.263  -9.693 -23.579  0.00  0.00    -0.003 C 
ATOM      4  C   UNL     1      31.926 -10.009 -21.352  0.00  0.00    +0.005 C 
ATOM      5  C   UNL     1      33.211 -10.927 -24.248  0.00  0.00    -0.011 C 
ATOM      6  C   UNL     1      31.332  -8.366 -23.069  0.00  0.00    -0.028 C 
ATOM      7  C   UNL     1      32.066 -11.870 -24.001  0.00  0.00    +0.088 C 
ATOM      8  C   UNL     1      31.933 -11.410 -21.170  0.00  0.00    +0.026 C 
ATOM      9  C   UNL     1      34.343  -8.824 -23.798  0.00  0.00    -0.000 C 
ATOM     10  C   UNL     1      34.247 -11.275 -25.127  0.00  0.00    -0.003 C 
ATOM     11  C   UNL     1      31.722  -9.182 -20.223  0.00  0.00    +0.000 C 
ATOM     12  C   UNL     1      31.714 -11.923 -19.872  0.00  0.00    +0.006 C 
ATOM     13  C   UNL     1      35.364  -9.181 -24.678  0.00  0.00    -0.000 C 
ATOM     14  C   UNL     1      35.316 -10.405 -25.341  0.00  0.00    -0.000 C 
ATOM     15  C   UNL     1      31.505  -9.713 -18.953  0.00  0.00    +0.000 C 
ATOM     16  C   UNL     1      31.498 -11.087 -18.777  0.00  0.00    +0.001 C 
ENDROOT
BRANCH   6  17
ATOM     17  C   UNL     1      31.446  -7.680 -24.393  0.00  0.00    +0.003 C 
BRANCH  17  18
ATOM     18  C   UNL     1      32.011  -6.269 -24.232  0.00  0.00    -0.073 C 
BRANCH  18  19
ATOM     19  N   UNL     1      30.929  -5.315 -24.009  0.00  0.00    +0.384 N 
ATOM     20  C   UNL     1      31.001  -4.222 -24.979  0.00  0.00    -0.101 C 
ATOM     21  C   UNL     1      30.979  -4.789 -22.645  0.00  0.00    -0.101 C 
ATOM     22  H   UNL     1      30.043  -5.804 -24.136  0.00  0.00    -0.080 HD
ENDBRANCH  18  19
ENDBRANCH  17  18
ENDBRANCH   6  17
TORSDOF 3
ENDMDL
MODEL 8
REMARK VINA RESULT:      -7.2      4.033      7.457
REMARK  Name = 5284550
REMARK  3 active torsions:
REMARK  status: ('A' for Active; 'I' for Inactive)
REMARK    1  A    between atoms: C_6  and  C_17
REMARK    2  A    between atoms: C_17  and  C_18
REMARK    3  A    between atoms: C_18  and  N_19
REMARK                            x       y       z     vdW  Elec       q    Type
REMARK                         _______ _______ _______ _____ _____    ______ ____
ROOT
ATOM      1  S   UNL     1      34.691  -6.305 -25.399  0.00  0.00    -0.109 S 
ATOM      2  C   UNL     1      32.576  -7.303 -22.951  0.00  0.00    -0.004 C 
ATOM      3  C   UNL     1      33.133  -8.587 -23.417  0.00  0.00    -0.003 C 
ATOM      4  C   UNL     1      32.241  -6.165 -23.847  0.00  0.00    +0.005 C 
ATOM      5  C   UNL     1      34.438  -8.625 -23.936  0.00  0.00    -0.011 C 
ATOM      6  C   UNL     1      32.451  -7.156 -21.618  0.00  0.00    -0.028 C 
ATOM      7  C   UNL     1      35.247  -7.362 -24.031  0.00  0.00    +0.088 C 
ATOM      8  C   UNL     1      33.070  -5.699 -24.892  0.00  0.00    +0.026 C 
ATOM      9  C   UNL     1      32.374  -9.765 -23.347  0.00  0.00    -0.000 C 
ATOM     10  C   UNL     1      34.962  -9.846 -24.384  0.00  0.00    -0.003 C 
ATOM     11  C   UNL     1      30.980  -5.554 -23.662  0.00  0.00    +0.000 C 
ATOM     12  C   UNL     1      32.611  -4.630 -25.693  0.00  0.00    +0.006 C 
ATOM     13  C   UNL     1      32.910 -10.973 -23.793  0.00  0.00    -0.000 C 
ATOM     14  C   UNL     1      34.202 -11.013 -24.310  0.00  0.00    -0.000 C 
ATOM     15  C   UNL     1      30.550  -4.498 -24.464  0.00  0.00    +0.000 C 
ATOM     16  C   UNL     1      31.369  -4.032 -25.479  0.00  0.00    +0.001 C 
ENDROOT
BRANCH   6  17
ATOM     17  C   UNL     1      32.841  -8.207 -20.627  0.00  0.00    +0.003 C 
BRANCH  17  18
ATOM     18  C   UNL     1      31.609  -8.806 -19.950  0.00  0.00    -0.073 C 
BRANCH  18  19
ATOM     19  N   UNL     1      31.764 -10.249 -19.803  0.00  0.00    +0.384 N 
ATOM     20  C   UNL     1      30.832 -10.957 -20.682  0.00  0.00    -0.101 C 
ATOM     21  C   UNL     1      31.557 -10.651 -18.412  0.00  0.00    -0.101 C 
ATOM     22  H   UNL     1      32.716 -10.496 -20.074  0.00  0.00    -0.080 HD
ENDBRANCH  18  19
ENDBRANCH  17  18
ENDBRANCH   6  17
TORSDOF 3
ENDMDL
MODEL 9
REMARK VINA RESULT:      -7.1      3.683      6.504
REMARK  Name = 5284550
REMARK  3 active torsions:
REMARK  status: ('A' for Active; 'I' for Inactive)
REMARK    1  A    between atoms: C_6  and  C_17
REMARK    2  A    between atoms: C_17  and  C_18
REMARK    3  A    between atoms: C_18  and  N_19
REMARK                            x       y       z     vdW  Elec       q    Type
REMARK                         _______ _______ _______ _____ _____    ______ ____
ROOT
ATOM      1  S   UNL     1      31.846  -9.190 -19.799  0.00  0.00    -0.109 S 
ATOM      2  C   UNL     1      32.961  -8.631 -22.947  0.00  0.00    -0.004 C 
ATOM      3  C   UNL     1      32.134  -7.435 -22.697  0.00  0.00    -0.003 C 
ATOM      4  C   UNL     1      32.610  -9.999 -22.481  0.00  0.00    +0.005 C 
ATOM      5  C   UNL     1      32.007  -6.945 -21.387  0.00  0.00    -0.011 C 
ATOM      6  C   UNL     1      34.138  -8.423 -23.567  0.00  0.00    -0.028 C 
ATOM      7  C   UNL     1      32.695  -7.649 -20.250  0.00  0.00    +0.088 C 
ATOM      8  C   UNL     1      32.133 -10.305 -21.186  0.00  0.00    +0.026 C 
ATOM      9  C   UNL     1      31.476  -6.786 -23.753  0.00  0.00    -0.000 C 
ATOM     10  C   UNL     1      31.215  -5.812 -21.152  0.00  0.00    -0.003 C 
ATOM     11  C   UNL     1      32.716 -11.044 -23.426  0.00  0.00    +0.000 C 
ATOM     12  C   UNL     1      31.802 -11.646 -20.888  0.00  0.00    +0.006 C 
ATOM     13  C   UNL     1      30.695  -5.657 -23.506  0.00  0.00    -0.000 C 
ATOM     14  C   UNL     1      30.565  -5.171 -22.207  0.00  0.00    -0.000 C 
ATOM     15  C   UNL     1      32.386 -12.360 -23.107  0.00  0.00    +0.000 C 
ATOM     16  C   UNL     1      31.932 -12.663 -21.834  0.00  0.00    +0.001 C 
ENDROOT
BRANCH   6  17
ATOM     17  C   UNL     1      34.623  -7.075 -23.998  0.00  0.00    +0.003 C 
BRANCH  17  18
ATOM     18  C   UNL     1      34.576  -6.937 -25.519  0.00  0.00    -0.073 C 
BRANCH  18  19
ATOM     19  N   UNL     1      34.523  -5.528 -25.897  0.00  0.00    +0.384 N 
ATOM     20  C   UNL     1      33.151  -5.135 -26.224  0.00  0.00    -0.101 C 
ATOM     21  C   UNL     1      35.411  -5.264 -27.029  0.00  0.00    -0.101 C 
ATOM     22  H   UNL     1      34.838  -4.973 -25.101  0.00  0.00    -0.080 HD
ENDBRANCH  18  19
ENDBRANCH  17  18
ENDBRANCH   6  17
TORSDOF 3
ENDMDL
