MODEL 1
REMARK VINA RESULT:     -10.6      0.000      0.000
REMARK  Name = 3506204
REMARK  10 active torsions:
REMARK  status: ('A' for Active; 'I' for Inactive)
REMARK    1  A    between atoms: N_1  and  C_6
REMARK    2  A    between atoms: N_1  and  O_15
REMARK    3  A    between atoms: C_11  and  O_17
REMARK    4  A    between atoms: C_12  and  O_23
REMARK    5  A    between atoms: O_17  and  C_18
REMARK    6  A    between atoms: C_18  and  C_20
REMARK    7  A    between atoms: C_20  and  O_21
REMARK    8  A    between atoms: O_23  and  C_24
REMARK    9  A    between atoms: C_24  and  C_26
REMARK   10  A    between atoms: C_26  and  O_27
REMARK                            x       y       z     vdW  Elec       q    Type
REMARK                         _______ _______ _______ _____ _____    ______ ____
ROOT
ATOM      1  C   UNL     1      34.016 -23.614 -14.576  0.00  0.00    -0.012 C 
ATOM      2  C   UNL     1      32.640 -23.373 -14.956  0.00  0.00    -0.002 C 
ATOM      3  C   UNL     1      34.839 -23.461 -15.706  0.00  0.00    +0.090 C 
ATOM      4  C   UNL     1      32.585 -23.067 -16.327  0.00  0.00    +0.019 C 
ATOM      5  C   UNL     1      33.965 -23.113 -16.838  0.00  0.00    +0.093 C 
ATOM      6  C   UNL     1      34.581 -23.946 -13.358  0.00  0.00    -0.000 C 
ATOM      7  C   UNL     1      31.474 -23.403 -14.210  0.00  0.00    +0.003 C 
ATOM      8  C   UNL     1      36.209 -23.626 -15.670  0.00  0.00    +0.021 C 
ATOM      9  C   UNL     1      31.403 -22.786 -16.987  0.00  0.00    +0.038 C 
ATOM     10  C   UNL     1      36.774 -23.960 -14.439  0.00  0.00    +0.136 C 
ATOM     11  C   UNL     1      30.231 -22.817 -16.232  0.00  0.00    +0.139 C 
ATOM     12  C   UNL     1      35.968 -24.119 -13.295  0.00  0.00    +0.036 C 
ATOM     13  C   UNL     1      30.265 -23.122 -14.857  0.00  0.00    +0.037 C 
ENDROOT
BRANCH   5  14
ATOM     14  N   UNL     1      34.312 -22.885 -18.056  0.00  0.00    -0.138 NA
BRANCH  14  15
ATOM     15  O   UNL     1      33.843 -23.933 -18.854  0.00  0.00    -0.266 OA
ATOM     16  H   UNL     1      33.779 -24.798 -18.501  0.00  0.00    +0.247 HD
ENDBRANCH  14  15
ENDBRANCH   5  14
BRANCH  10  17
ATOM     17  O   UNL     1      38.122 -24.136 -14.339  0.00  0.00    -0.464 OA
BRANCH  17  18
ATOM     18  C   UNL     1      38.627 -25.439 -14.621  0.00  0.00    +0.314 C 
BRANCH  18  20
ATOM     19  O   UNL     1      40.946 -24.866 -14.170  0.00  0.00    -0.246 OA
ATOM     20  C   UNL     1      40.103 -25.363 -14.902  0.00  0.00    +0.359 C 
BRANCH  20  21
ATOM     21  O   UNL     1      40.380 -25.931 -16.103  0.00  0.00    -0.478 OA
ATOM     22  H   UNL     1      40.778 -26.778 -16.139  0.00  0.00    +0.295 HD
ENDBRANCH  20  21
ENDBRANCH  18  20
ENDBRANCH  17  18
ENDBRANCH  10  17
BRANCH  11  23
ATOM     23  O   UNL     1      29.036 -22.547 -16.828  0.00  0.00    -0.464 OA
BRANCH  23  24
ATOM     24  C   UNL     1      27.861 -22.985 -16.149  0.00  0.00    +0.314 C 
BRANCH  24  26
ATOM     25  O   UNL     1      25.640 -22.035 -15.887  0.00  0.00    -0.246 OA
ATOM     26  C   UNL     1      26.718 -22.058 -16.461  0.00  0.00    +0.359 C 
BRANCH  26  27
ATOM     27  O   UNL     1      27.050 -21.232 -17.485  0.00  0.00    -0.478 OA
ATOM     28  H   UNL     1      27.437 -21.582 -18.263  0.00  0.00    +0.295 HD
ENDBRANCH  26  27
ENDBRANCH  24  26
ENDBRANCH  23  24
ENDBRANCH  11  23
TORSDOF 10
ENDMDL
MODEL 2
REMARK VINA RESULT:     -10.6      0.168      8.879
REMARK  Name = 3506204
REMARK  10 active torsions:
REMARK  status: ('A' for Active; 'I' for Inactive)
REMARK    1  A    between atoms: N_1  and  C_6
REMARK    2  A    between atoms: N_1  and  O_15
REMARK    3  A    between atoms: C_11  and  O_17
REMARK    4  A    between atoms: C_12  and  O_23
REMARK    5  A    between atoms: O_17  and  C_18
REMARK    6  A    between atoms: C_18  and  C_20
REMARK    7  A    between atoms: C_20  and  O_21
REMARK    8  A    between atoms: O_23  and  C_24
REMARK    9  A    between atoms: C_24  and  C_26
REMARK   10  A    between atoms: C_26  and  O_27
REMARK                            x       y       z     vdW  Elec       q    Type
REMARK                         _______ _______ _______ _____ _____    ______ ____
ROOT
ATOM      1  C   UNL     1      32.677 -23.475 -14.826  0.00  0.00    -0.012 C 
ATOM      2  C   UNL     1      34.058 -23.696 -14.451  0.00  0.00    -0.002 C 
ATOM      3  C   UNL     1      32.616 -23.153 -16.193  0.00  0.00    +0.090 C 
ATOM      4  C   UNL     1      34.878 -23.516 -15.579  0.00  0.00    +0.019 C 
ATOM      5  C   UNL     1      33.995 -23.170 -16.707  0.00  0.00    +0.093 C 
ATOM      6  C   UNL     1      31.511 -23.532 -14.083  0.00  0.00    -0.000 C 
ATOM      7  C   UNL     1      34.626 -24.033 -13.235  0.00  0.00    +0.003 C 
ATOM      8  C   UNL     1      31.434 -22.886 -16.854  0.00  0.00    +0.021 C 
ATOM      9  C   UNL     1      36.252 -23.660 -15.540  0.00  0.00    +0.038 C 
ATOM     10  C   UNL     1      30.261 -22.945 -16.101  0.00  0.00    +0.136 C 
ATOM     11  C   UNL     1      36.820 -24.000 -14.311  0.00  0.00    +0.139 C 
ATOM     12  C   UNL     1      30.299 -23.264 -14.730  0.00  0.00    +0.036 C 
ATOM     13  C   UNL     1      36.016 -24.183 -13.170  0.00  0.00    +0.037 C 
ENDROOT
BRANCH   5  14
ATOM     14  N   UNL     1      34.388 -22.932 -17.908  0.00  0.00    -0.138 NA
BRANCH  14  15
ATOM     15  O   UNL     1      33.838 -23.899 -18.754  0.00  0.00    -0.266 OA
ATOM     16  H   UNL     1      32.910 -23.941 -18.877  0.00  0.00    +0.247 HD
ENDBRANCH  14  15
ENDBRANCH   5  14
BRANCH  10  17
ATOM     17  O   UNL     1      29.062 -22.690 -16.698  0.00  0.00    -0.464 OA
BRANCH  17  18
ATOM     18  C   UNL     1      27.892 -22.879 -15.906  0.00  0.00    +0.314 C 
BRANCH  18  20
ATOM     19  O   UNL     1      26.847 -21.261 -17.389  0.00  0.00    -0.246 OA
ATOM     20  C   UNL     1      26.790 -21.986 -16.407  0.00  0.00    +0.359 C 
BRANCH  20  21
ATOM     21  O   UNL     1      25.699 -22.095 -15.606  0.00  0.00    -0.478 OA
ATOM     22  H   UNL     1      25.003 -22.676 -15.840  0.00  0.00    +0.295 HD
ENDBRANCH  20  21
ENDBRANCH  18  20
ENDBRANCH  17  18
ENDBRANCH  10  17
BRANCH  11  23
ATOM     23  O   UNL     1      38.170 -24.156 -14.212  0.00  0.00    -0.464 OA
BRANCH  23  24
ATOM     24  C   UNL     1      38.694 -25.450 -14.502  0.00  0.00    +0.314 C 
BRANCH  24  26
ATOM     25  O   UNL     1      41.028 -24.823 -14.251  0.00  0.00    -0.246 OA
ATOM     26  C   UNL     1      40.137 -25.335 -14.911  0.00  0.00    +0.359 C 
BRANCH  26  27
ATOM     27  O   UNL     1      40.322 -25.891 -16.135  0.00  0.00    -0.478 OA
ATOM     28  H   UNL     1      40.856 -26.655 -16.226  0.00  0.00    +0.295 HD
ENDBRANCH  26  27
ENDBRANCH  24  26
ENDBRANCH  23  24
ENDBRANCH  11  23
TORSDOF 10
ENDMDL
MODEL 3
REMARK VINA RESULT:      -9.8      4.270      6.181
REMARK  Name = 3506204
REMARK  10 active torsions:
REMARK  status: ('A' for Active; 'I' for Inactive)
REMARK    1  A    between atoms: N_1  and  C_6
REMARK    2  A    between atoms: N_1  and  O_15
REMARK    3  A    between atoms: C_11  and  O_17
REMARK    4  A    between atoms: C_12  and  O_23
REMARK    5  A    between atoms: O_17  and  C_18
REMARK    6  A    between atoms: C_18  and  C_20
REMARK    7  A    between atoms: C_20  and  O_21
REMARK    8  A    between atoms: O_23  and  C_24
REMARK    9  A    between atoms: C_24  and  C_26
REMARK   10  A    between atoms: C_26  and  O_27
REMARK                            x       y       z     vdW  Elec       q    Type
REMARK                         _______ _______ _______ _____ _____    ______ ____
ROOT
ATOM      1  C   UNL     1      34.336 -23.096 -16.202  0.00  0.00    -0.012 C 
ATOM      2  C   UNL     1      34.547 -22.503 -17.506  0.00  0.00    -0.002 C 
ATOM      3  C   UNL     1      35.534 -23.034 -15.468  0.00  0.00    +0.090 C 
ATOM      4  C   UNL     1      35.880 -22.062 -17.604  0.00  0.00    +0.019 C 
ATOM      5  C   UNL     1      36.537 -22.383 -16.325  0.00  0.00    +0.093 C 
ATOM      6  C   UNL     1      33.212 -23.667 -15.632  0.00  0.00    -0.000 C 
ATOM      7  C   UNL     1      33.685 -22.328 -18.575  0.00  0.00    +0.003 C 
ATOM      8  C   UNL     1      35.657 -23.519 -14.182  0.00  0.00    +0.021 C 
ATOM      9  C   UNL     1      36.387 -21.449 -18.734  0.00  0.00    +0.038 C 
ATOM     10  C   UNL     1      34.520 -24.094 -13.611  0.00  0.00    +0.136 C 
ATOM     11  C   UNL     1      35.514 -21.275 -19.808  0.00  0.00    +0.139 C 
ATOM     12  C   UNL     1      33.311 -24.167 -14.329  0.00  0.00    +0.036 C 
ATOM     13  C   UNL     1      34.177 -21.710 -19.730  0.00  0.00    +0.037 C 
ENDROOT
BRANCH   5  14
ATOM     14  N   UNL     1      37.766 -22.128 -16.041  0.00  0.00    -0.138 NA
BRANCH  14  15
ATOM     15  O   UNL     1      38.473 -23.333 -16.010  0.00  0.00    -0.266 OA
ATOM     16  H   UNL     1      38.318 -23.984 -16.665  0.00  0.00    +0.247 HD
ENDBRANCH  14  15
ENDBRANCH   5  14
BRANCH  10  17
ATOM     17  O   UNL     1      34.579 -24.591 -12.343  0.00  0.00    -0.464 OA
BRANCH  17  18
ATOM     18  C   UNL     1      35.870 -24.920 -11.837  0.00  0.00    +0.314 C 
BRANCH  18  20
ATOM     19  O   UNL     1      37.000 -23.186 -10.562  0.00  0.00    -0.246 OA
ATOM     20  C   UNL     1      36.170 -24.081 -10.625  0.00  0.00    +0.359 C 
BRANCH  20  21
ATOM     21  O   UNL     1      35.380 -24.457  -9.588  0.00  0.00    -0.478 OA
ATOM     22  H   UNL     1      35.121 -25.352  -9.496  0.00  0.00    +0.295 HD
ENDBRANCH  20  21
ENDBRANCH  18  20
ENDBRANCH  17  18
ENDBRANCH  10  17
BRANCH  11  23
ATOM     23  O   UNL     1      35.958 -20.676 -20.949  0.00  0.00    -0.464 OA
BRANCH  23  24
ATOM     24  C   UNL     1      35.069 -19.763 -21.588  0.00  0.00    +0.314 C 
BRANCH  24  26
ATOM     25  O   UNL     1      35.510 -17.578 -20.621  0.00  0.00    -0.246 OA
ATOM     26  C   UNL     1      35.643 -18.374 -21.538  0.00  0.00    +0.359 C 
BRANCH  26  27
ATOM     27  O   UNL     1      36.345 -18.116 -22.670  0.00  0.00    -0.478 OA
ATOM     28  H   UNL     1      36.686 -17.257 -22.825  0.00  0.00    +0.295 HD
ENDBRANCH  26  27
ENDBRANCH  24  26
ENDBRANCH  23  24
ENDBRANCH  11  23
TORSDOF 10
ENDMDL
MODEL 4
REMARK VINA RESULT:      -9.8      4.269      7.399
REMARK  Name = 3506204
REMARK  10 active torsions:
REMARK  status: ('A' for Active; 'I' for Inactive)
REMARK    1  A    between atoms: N_1  and  C_6
REMARK    2  A    between atoms: N_1  and  O_15
REMARK    3  A    between atoms: C_11  and  O_17
REMARK    4  A    between atoms: C_12  and  O_23
REMARK    5  A    between atoms: O_17  and  C_18
REMARK    6  A    between atoms: C_18  and  C_20
REMARK    7  A    between atoms: C_20  and  O_21
REMARK    8  A    between atoms: O_23  and  C_24
REMARK    9  A    between atoms: C_24  and  C_26
REMARK   10  A    between atoms: C_26  and  O_27
REMARK                            x       y       z     vdW  Elec       q    Type
REMARK                         _______ _______ _______ _____ _____    ______ ____
ROOT
ATOM      1  C   UNL     1      34.527 -22.508 -17.497  0.00  0.00    -0.012 C 
ATOM      2  C   UNL     1      34.332 -23.110 -16.194  0.00  0.00    -0.002 C 
ATOM      3  C   UNL     1      35.856 -22.063 -17.605  0.00  0.00    +0.090 C 
ATOM      4  C   UNL     1      35.538 -23.048 -15.472  0.00  0.00    +0.019 C 
ATOM      5  C   UNL     1      36.530 -22.389 -16.338  0.00  0.00    +0.093 C 
ATOM      6  C   UNL     1      33.656 -22.328 -18.557  0.00  0.00    -0.000 C 
ATOM      7  C   UNL     1      33.214 -23.686 -15.618  0.00  0.00    +0.003 C 
ATOM      8  C   UNL     1      36.355 -21.443 -18.733  0.00  0.00    +0.021 C 
ATOM      9  C   UNL     1      35.670 -23.544 -14.188  0.00  0.00    +0.038 C 
ATOM     10  C   UNL     1      35.473 -21.264 -19.800  0.00  0.00    +0.136 C 
ATOM     11  C   UNL     1      34.540 -24.125 -13.612  0.00  0.00    +0.139 C 
ATOM     12  C   UNL     1      34.137 -21.701 -19.712  0.00  0.00    +0.036 C 
ATOM     13  C   UNL     1      33.324 -24.195 -14.319  0.00  0.00    +0.037 C 
ENDROOT
BRANCH   5  14
ATOM     14  N   UNL     1      37.754 -22.155 -16.017  0.00  0.00    -0.138 NA
BRANCH  14  15
ATOM     15  O   UNL     1      38.434 -23.374 -15.945  0.00  0.00    -0.266 OA
ATOM     16  H   UNL     1      37.980 -24.148 -15.678  0.00  0.00    +0.247 HD
ENDBRANCH  14  15
ENDBRANCH   5  14
BRANCH  10  17
ATOM     17  O   UNL     1      35.907 -20.658 -20.941  0.00  0.00    -0.464 OA
BRANCH  17  18
ATOM     18  C   UNL     1      35.022 -19.725 -21.555  0.00  0.00    +0.314 C 
BRANCH  18  20
ATOM     19  O   UNL     1      35.392 -17.484 -20.692  0.00  0.00    -0.246 OA
ATOM     20  C   UNL     1      35.629 -18.350 -21.521  0.00  0.00    +0.359 C 
BRANCH  20  21
ATOM     21  O   UNL     1      36.494 -18.193 -22.555  0.00  0.00    -0.478 OA
ATOM     22  H   UNL     1      36.557 -17.368 -22.992  0.00  0.00    +0.295 HD
ENDBRANCH  20  21
ENDBRANCH  18  20
ENDBRANCH  17  18
ENDBRANCH  10  17
BRANCH  11  23
ATOM     23  O   UNL     1      34.611 -24.631 -12.349  0.00  0.00    -0.464 OA
BRANCH  23  24
ATOM     24  C   UNL     1      35.912 -24.905 -11.834  0.00  0.00    +0.314 C 
BRANCH  24  26
ATOM     25  O   UNL     1      36.953 -23.095 -10.593  0.00  0.00    -0.246 OA
ATOM     26  C   UNL     1      36.178 -24.038 -10.635  0.00  0.00    +0.359 C 
BRANCH  26  27
ATOM     27  O   UNL     1      35.426 -24.449  -9.584  0.00  0.00    -0.478 OA
ATOM     28  H   UNL     1      35.092 -23.822  -8.973  0.00  0.00    +0.295 HD
ENDBRANCH  26  27
ENDBRANCH  24  26
ENDBRANCH  23  24
ENDBRANCH  11  23
TORSDOF 10
ENDMDL
MODEL 5
REMARK VINA RESULT:      -9.8      1.840      2.575
REMARK  Name = 3506204
REMARK  10 active torsions:
REMARK  status: ('A' for Active; 'I' for Inactive)
REMARK    1  A    between atoms: N_1  and  C_6
REMARK    2  A    between atoms: N_1  and  O_15
REMARK    3  A    between atoms: C_11  and  O_17
REMARK    4  A    between atoms: C_12  and  O_23
REMARK    5  A    between atoms: O_17  and  C_18
REMARK    6  A    between atoms: C_18  and  C_20
REMARK    7  A    between atoms: C_20  and  O_21
REMARK    8  A    between atoms: O_23  and  C_24
REMARK    9  A    between atoms: C_24  and  C_26
REMARK   10  A    between atoms: C_26  and  O_27
REMARK                            x       y       z     vdW  Elec       q    Type
REMARK                         _______ _______ _______ _____ _____    ______ ____
ROOT
ATOM      1  C   UNL     1      35.330 -23.309 -15.653  0.00  0.00    -0.012 C 
ATOM      2  C   UNL     1      34.014 -23.086 -16.213  0.00  0.00    -0.002 C 
ATOM      3  C   UNL     1      35.196 -23.766 -14.329  0.00  0.00    +0.090 C 
ATOM      4  C   UNL     1      33.040 -23.400 -15.247  0.00  0.00    +0.019 C 
ATOM      5  C   UNL     1      33.756 -23.836 -14.036  0.00  0.00    +0.093 C 
ATOM      6  C   UNL     1      36.592 -23.147 -16.197  0.00  0.00    -0.000 C 
ATOM      7  C   UNL     1      33.623 -22.643 -17.465  0.00  0.00    +0.003 C 
ATOM      8  C   UNL     1      36.275 -24.069 -13.523  0.00  0.00    +0.021 C 
ATOM      9  C   UNL     1      31.684 -23.288 -15.485  0.00  0.00    +0.038 C 
ATOM     10  C   UNL     1      37.545 -23.905 -14.077  0.00  0.00    +0.136 C 
ATOM     11  C   UNL     1      31.294 -22.842 -16.748  0.00  0.00    +0.139 C 
ATOM     12  C   UNL     1      37.702 -23.448 -15.399  0.00  0.00    +0.036 C 
ATOM     13  C   UNL     1      32.254 -22.521 -17.728  0.00  0.00    +0.037 C 
ENDROOT
BRANCH   5  14
ATOM     14  N   UNL     1      33.196 -24.206 -12.938  0.00  0.00    -0.138 NA
BRANCH  14  15
ATOM     15  O   UNL     1      32.431 -25.347 -13.194  0.00  0.00    -0.266 OA
ATOM     16  H   UNL     1      32.603 -26.141 -12.727  0.00  0.00    +0.247 HD
ENDBRANCH  14  15
ENDBRANCH   5  14
BRANCH  10  17
ATOM     17  O   UNL     1      38.649 -24.189 -13.329  0.00  0.00    -0.464 OA
BRANCH  17  18
ATOM     18  C   UNL     1      39.089 -25.544 -13.314  0.00  0.00    +0.314 C 
BRANCH  18  20
ATOM     19  O   UNL     1      40.541 -26.719 -14.870  0.00  0.00    -0.246 OA
ATOM     20  C   UNL     1      40.262 -25.708 -14.241  0.00  0.00    +0.359 C 
BRANCH  20  21
ATOM     21  O   UNL     1      40.986 -24.561 -14.290  0.00  0.00    -0.478 OA
ATOM     22  H   UNL     1      41.797 -24.539 -14.756  0.00  0.00    +0.295 HD
ENDBRANCH  20  21
ENDBRANCH  18  20
ENDBRANCH  17  18
ENDBRANCH  10  17
BRANCH  11  23
ATOM     23  O   UNL     1      29.970 -22.713 -17.040  0.00  0.00    -0.464 OA
BRANCH  23  24
ATOM     24  C   UNL     1      29.060 -22.740 -15.943  0.00  0.00    +0.314 C 
BRANCH  24  26
ATOM     25  O   UNL     1      26.654 -22.412 -15.868  0.00  0.00    -0.246 OA
ATOM     26  C   UNL     1      27.648 -22.814 -16.454  0.00  0.00    +0.359 C 
BRANCH  26  27
ATOM     27  O   UNL     1      27.622 -23.395 -17.680  0.00  0.00    -0.478 OA
ATOM     28  H   UNL     1      27.082 -24.145 -17.832  0.00  0.00    +0.295 HD
ENDBRANCH  26  27
ENDBRANCH  24  26
ENDBRANCH  23  24
ENDBRANCH  11  23
TORSDOF 10
ENDMDL
MODEL 6
REMARK VINA RESULT:      -9.7      1.853      9.081
REMARK  Name = 3506204
REMARK  10 active torsions:
REMARK  status: ('A' for Active; 'I' for Inactive)
REMARK    1  A    between atoms: N_1  and  C_6
REMARK    2  A    between atoms: N_1  and  O_15
REMARK    3  A    between atoms: C_11  and  O_17
REMARK    4  A    between atoms: C_12  and  O_23
REMARK    5  A    between atoms: O_17  and  C_18
REMARK    6  A    between atoms: C_18  and  C_20
REMARK    7  A    between atoms: C_20  and  O_21
REMARK    8  A    between atoms: O_23  and  C_24
REMARK    9  A    between atoms: C_24  and  C_26
REMARK   10  A    between atoms: C_26  and  O_27
REMARK                            x       y       z     vdW  Elec       q    Type
REMARK                         _______ _______ _______ _____ _____    ______ ____
ROOT
ATOM      1  C   UNL     1      34.002 -23.129 -16.217  0.00  0.00    -0.012 C 
ATOM      2  C   UNL     1      35.319 -23.361 -15.660  0.00  0.00    -0.002 C 
ATOM      3  C   UNL     1      33.030 -23.457 -15.254  0.00  0.00    +0.090 C 
ATOM      4  C   UNL     1      35.187 -23.836 -14.342  0.00  0.00    +0.019 C 
ATOM      5  C   UNL     1      33.745 -23.910 -14.050  0.00  0.00    +0.093 C 
ATOM      6  C   UNL     1      33.607 -22.669 -17.460  0.00  0.00    -0.000 C 
ATOM      7  C   UNL     1      36.579 -23.190 -16.206  0.00  0.00    +0.003 C 
ATOM      8  C   UNL     1      31.674 -23.343 -15.483  0.00  0.00    +0.021 C 
ATOM      9  C   UNL     1      36.271 -24.149 -13.545  0.00  0.00    +0.038 C 
ATOM     10  C   UNL     1      31.280 -22.878 -16.738  0.00  0.00    +0.136 C 
ATOM     11  C   UNL     1      37.539 -23.975 -14.100  0.00  0.00    +0.139 C 
ATOM     12  C   UNL     1      32.237 -22.545 -17.717  0.00  0.00    +0.036 C 
ATOM     13  C   UNL     1      37.692 -23.501 -15.417  0.00  0.00    +0.037 C 
ENDROOT
BRANCH   5  14
ATOM     14  N   UNL     1      33.234 -24.302 -12.936  0.00  0.00    -0.138 NA
BRANCH  14  15
ATOM     15  O   UNL     1      32.352 -25.354 -13.199  0.00  0.00    -0.266 OA
ATOM     16  H   UNL     1      32.125 -25.956 -12.519  0.00  0.00    +0.247 HD
ENDBRANCH  14  15
ENDBRANCH   5  14
BRANCH  10  17
ATOM     17  O   UNL     1      29.954 -22.745 -17.024  0.00  0.00    -0.464 OA
BRANCH  17  18
ATOM     18  C   UNL     1      29.064 -22.621 -15.918  0.00  0.00    +0.314 C 
BRANCH  18  20
ATOM     19  O   UNL     1      26.647 -22.412 -15.763  0.00  0.00    -0.246 OA
ATOM     20  C   UNL     1      27.642 -22.737 -16.394  0.00  0.00    +0.359 C 
BRANCH  20  21
ATOM     21  O   UNL     1      27.608 -23.262 -17.645  0.00  0.00    -0.478 OA
ATOM     22  H   UNL     1      27.732 -22.708 -18.389  0.00  0.00    +0.295 HD
ENDBRANCH  20  21
ENDBRANCH  18  20
ENDBRANCH  17  18
ENDBRANCH  10  17
BRANCH  11  23
ATOM     23  O   UNL     1      38.646 -24.267 -13.360  0.00  0.00    -0.464 OA
BRANCH  23  24
ATOM     24  C   UNL     1      39.137 -25.604 -13.432  0.00  0.00    +0.314 C 
BRANCH  24  26
ATOM     25  O   UNL     1      40.958 -24.699 -14.762  0.00  0.00    -0.246 OA
ATOM     26  C   UNL     1      40.476 -25.618 -14.117  0.00  0.00    +0.359 C 
BRANCH  26  27
ATOM     27  O   UNL     1      41.091 -26.811 -13.919  0.00  0.00    -0.478 OA
ATOM     28  H   UNL     1      40.814 -27.567 -14.398  0.00  0.00    +0.295 HD
ENDBRANCH  26  27
ENDBRANCH  24  26
ENDBRANCH  23  24
ENDBRANCH  11  23
TORSDOF 10
ENDMDL
MODEL 7
REMARK VINA RESULT:      -9.7      4.866      6.740
REMARK  Name = 3506204
REMARK  10 active torsions:
REMARK  status: ('A' for Active; 'I' for Inactive)
REMARK    1  A    between atoms: N_1  and  C_6
REMARK    2  A    between atoms: N_1  and  O_15
REMARK    3  A    between atoms: C_11  and  O_17
REMARK    4  A    between atoms: C_12  and  O_23
REMARK    5  A    between atoms: O_17  and  C_18
REMARK    6  A    between atoms: C_18  and  C_20
REMARK    7  A    between atoms: C_20  and  O_21
REMARK    8  A    between atoms: O_23  and  C_24
REMARK    9  A    between atoms: C_24  and  C_26
REMARK   10  A    between atoms: C_26  and  O_27
REMARK                            x       y       z     vdW  Elec       q    Type
REMARK                         _______ _______ _______ _____ _____    ______ ____
ROOT
ATOM      1  C   UNL     1      36.126 -21.679 -18.130  0.00  0.00    -0.012 C 
ATOM      2  C   UNL     1      35.897 -20.882 -19.317  0.00  0.00    -0.002 C 
ATOM      3  C   UNL     1      34.965 -22.417 -17.838  0.00  0.00    +0.090 C 
ATOM      4  C   UNL     1      34.589 -21.111 -19.782  0.00  0.00    +0.019 C 
ATOM      5  C   UNL     1      33.967 -22.082 -18.866  0.00  0.00    +0.093 C 
ATOM      6  C   UNL     1      37.238 -21.801 -17.315  0.00  0.00    -0.000 C 
ATOM      7  C   UNL     1      36.723 -20.001 -19.993  0.00  0.00    +0.003 C 
ATOM      8  C   UNL     1      34.868 -23.276 -16.762  0.00  0.00    +0.021 C 
ATOM      9  C   UNL     1      34.072 -20.492 -20.904  0.00  0.00    +0.038 C 
ATOM     10  C   UNL     1      35.991 -23.396 -15.944  0.00  0.00    +0.136 C 
ATOM     11  C   UNL     1      34.909 -19.606 -21.583  0.00  0.00    +0.139 C 
ATOM     12  C   UNL     1      37.164 -22.665 -16.217  0.00  0.00    +0.036 C 
ATOM     13  C   UNL     1      36.221 -19.362 -21.132  0.00  0.00    +0.037 C 
ENDROOT
BRANCH   5  14
ATOM     14  N   UNL     1      32.768 -22.537 -18.972  0.00  0.00    -0.138 NA
BRANCH  14  15
ATOM     15  O   UNL     1      31.999 -22.007 -17.932  0.00  0.00    -0.266 OA
ATOM     16  H   UNL     1      31.651 -22.572 -17.271  0.00  0.00    +0.247 HD
ENDBRANCH  14  15
ENDBRANCH   5  14
BRANCH  10  17
ATOM     17  O   UNL     1      35.955 -24.229 -14.865  0.00  0.00    -0.464 OA
BRANCH  17  18
ATOM     18  C   UNL     1      37.158 -24.922 -14.543  0.00  0.00    +0.314 C 
BRANCH  18  20
ATOM     19  O   UNL     1      36.217 -26.774 -15.806  0.00  0.00    -0.246 OA
ATOM     20  C   UNL     1      37.106 -26.318 -15.101  0.00  0.00    +0.359 C 
BRANCH  20  21
ATOM     21  O   UNL     1      38.200 -27.019 -14.711  0.00  0.00    -0.478 OA
ATOM     22  H   UNL     1      38.557 -27.680 -15.271  0.00  0.00    +0.295 HD
ENDBRANCH  20  21
ENDBRANCH  18  20
ENDBRANCH  17  18
ENDBRANCH  10  17
BRANCH  11  23
ATOM     23  O   UNL     1      34.454 -18.966 -22.697  0.00  0.00    -0.464 OA
BRANCH  23  24
ATOM     24  C   UNL     1      35.416 -18.653 -23.702  0.00  0.00    +0.314 C 
BRANCH  24  26
ATOM     25  O   UNL     1      34.290 -17.349 -25.414  0.00  0.00    -0.246 OA
ATOM     26  C   UNL     1      35.006 -17.401 -24.426  0.00  0.00    +0.359 C 
BRANCH  26  27
ATOM     27  O   UNL     1      35.547 -16.312 -23.823  0.00  0.00    -0.478 OA
ATOM     28  H   UNL     1      35.045 -15.526 -23.739  0.00  0.00    +0.295 HD
ENDBRANCH  26  27
ENDBRANCH  24  26
ENDBRANCH  23  24
ENDBRANCH  11  23
TORSDOF 10
ENDMDL
MODEL 8
REMARK VINA RESULT:      -9.6      4.751      8.721
REMARK  Name = 3506204
REMARK  10 active torsions:
REMARK  status: ('A' for Active; 'I' for Inactive)
REMARK    1  A    between atoms: N_1  and  C_6
REMARK    2  A    between atoms: N_1  and  O_15
REMARK    3  A    between atoms: C_11  and  O_17
REMARK    4  A    between atoms: C_12  and  O_23
REMARK    5  A    between atoms: O_17  and  C_18
REMARK    6  A    between atoms: C_18  and  C_20
REMARK    7  A    between atoms: C_20  and  O_21
REMARK    8  A    between atoms: O_23  and  C_24
REMARK    9  A    between atoms: C_24  and  C_26
REMARK   10  A    between atoms: C_26  and  O_27
REMARK                            x       y       z     vdW  Elec       q    Type
REMARK                         _______ _______ _______ _____ _____    ______ ____
ROOT
ATOM      1  C   UNL     1      35.838 -20.958 -19.236  0.00  0.00    -0.012 C 
ATOM      2  C   UNL     1      36.099 -21.753 -18.054  0.00  0.00    -0.002 C 
ATOM      3  C   UNL     1      34.526 -21.204 -19.677  0.00  0.00    +0.090 C 
ATOM      4  C   UNL     1      34.953 -22.506 -17.741  0.00  0.00    +0.019 C 
ATOM      5  C   UNL     1      33.931 -22.182 -18.752  0.00  0.00    +0.093 C 
ATOM      6  C   UNL     1      36.638 -20.067 -19.929  0.00  0.00    -0.000 C 
ATOM      7  C   UNL     1      37.229 -21.861 -17.263  0.00  0.00    +0.003 C 
ATOM      8  C   UNL     1      33.976 -20.593 -20.785  0.00  0.00    +0.021 C 
ATOM      9  C   UNL     1      34.891 -23.366 -16.661  0.00  0.00    +0.038 C 
ATOM     10  C   UNL     1      34.786 -19.695 -21.481  0.00  0.00    +0.136 C 
ATOM     11  C   UNL     1      36.033 -23.470 -15.866  0.00  0.00    +0.139 C 
ATOM     12  C   UNL     1      36.103 -19.435 -21.058  0.00  0.00    +0.036 C 
ATOM     13  C   UNL     1      37.190 -22.726 -16.164  0.00  0.00    +0.037 C 
ENDROOT
BRANCH   5  14
ATOM     14  N   UNL     1      32.745 -22.679 -18.792  0.00  0.00    -0.138 NA
BRANCH  14  15
ATOM     15  O   UNL     1      31.970 -22.056 -17.809  0.00  0.00    -0.266 OA
ATOM     16  H   UNL     1      31.116 -22.382 -17.610  0.00  0.00    +0.247 HD
ENDBRANCH  14  15
ENDBRANCH   5  14
BRANCH  10  17
ATOM     17  O   UNL     1      34.298 -19.060 -22.585  0.00  0.00    -0.464 OA
BRANCH  17  18
ATOM     18  C   UNL     1      35.138 -19.026 -23.735  0.00  0.00    +0.314 C 
BRANCH  18  20
ATOM     19  O   UNL     1      34.183 -17.680 -25.519  0.00  0.00    -0.246 OA
ATOM     20  C   UNL     1      34.878 -17.768 -24.518  0.00  0.00    +0.359 C 
BRANCH  20  21
ATOM     21  O   UNL     1      35.531 -16.722 -23.953  0.00  0.00    -0.478 OA
ATOM     22  H   UNL     1      35.745 -15.970 -24.469  0.00  0.00    +0.295 HD
ENDBRANCH  20  21
ENDBRANCH  18  20
ENDBRANCH  17  18
ENDBRANCH  10  17
BRANCH  11  23
ATOM     23  O   UNL     1      36.030 -24.302 -14.787  0.00  0.00    -0.464 OA
BRANCH  23  24
ATOM     24  C   UNL     1      37.271 -24.910 -14.436  0.00  0.00    +0.314 C 
BRANCH  24  26
ATOM     25  O   UNL     1      38.183 -27.140 -14.750  0.00  0.00    -0.246 OA
ATOM     26  C   UNL     1      37.228 -26.378 -14.759  0.00  0.00    +0.359 C 
BRANCH  26  27
ATOM     27  O   UNL     1      35.961 -26.754 -15.066  0.00  0.00    -0.478 OA
ATOM     28  H   UNL     1      35.490 -27.325 -14.493  0.00  0.00    +0.295 HD
ENDBRANCH  26  27
ENDBRANCH  24  26
ENDBRANCH  23  24
ENDBRANCH  11  23
TORSDOF 10
ENDMDL
MODEL 9
REMARK VINA RESULT:      -9.4      4.196      6.427
REMARK  Name = 3506204
REMARK  10 active torsions:
REMARK  status: ('A' for Active; 'I' for Inactive)
REMARK    1  A    between atoms: N_1  and  C_6
REMARK    2  A    between atoms: N_1  and  O_15
REMARK    3  A    between atoms: C_11  and  O_17
REMARK    4  A    between atoms: C_12  and  O_23
REMARK    5  A    between atoms: O_17  and  C_18
REMARK    6  A    between atoms: C_18  and  C_20
REMARK    7  A    between atoms: C_20  and  O_21
REMARK    8  A    between atoms: O_23  and  C_24
REMARK    9  A    between atoms: C_24  and  C_26
REMARK   10  A    between atoms: C_26  and  O_27
REMARK                            x       y       z     vdW  Elec       q    Type
REMARK                         _______ _______ _______ _____ _____    ______ ____
ROOT
ATOM      1  C   UNL     1      36.055 -22.385 -17.056  0.00  0.00    -0.012 C 
ATOM      2  C   UNL     1      35.925 -21.662 -18.303  0.00  0.00    -0.002 C 
ATOM      3  C   UNL     1      34.853 -23.065 -16.789  0.00  0.00    +0.090 C 
ATOM      4  C   UNL     1      34.639 -21.879 -18.832  0.00  0.00    +0.019 C 
ATOM      5  C   UNL     1      33.930 -22.768 -17.895  0.00  0.00    +0.093 C 
ATOM      6  C   UNL     1      37.112 -22.489 -16.169  0.00  0.00    -0.000 C 
ATOM      7  C   UNL     1      36.820 -20.855 -18.984  0.00  0.00    +0.003 C 
ATOM      8  C   UNL     1      34.662 -23.847 -15.668  0.00  0.00    +0.021 C 
ATOM      9  C   UNL     1      34.211 -21.319 -20.021  0.00  0.00    +0.038 C 
ATOM     10  C   UNL     1      35.731 -23.949 -14.777  0.00  0.00    +0.136 C 
ATOM     11  C   UNL     1      35.118 -20.507 -20.703  0.00  0.00    +0.139 C 
ATOM     12  C   UNL     1      36.943 -23.276 -15.024  0.00  0.00    +0.036 C 
ATOM     13  C   UNL     1      36.409 -20.277 -20.190  0.00  0.00    +0.037 C 
ENDROOT
BRANCH   5  14
ATOM     14  N   UNL     1      32.723 -23.190 -18.045  0.00  0.00    -0.138 NA
BRANCH  14  15
ATOM     15  O   UNL     1      31.848 -22.193 -17.605  0.00  0.00    -0.266 OA
ATOM     16  H   UNL     1      31.007 -22.098 -18.006  0.00  0.00    +0.247 HD
ENDBRANCH  14  15
ENDBRANCH   5  14
BRANCH  10  17
ATOM     17  O   UNL     1      35.602 -24.707 -13.652  0.00  0.00    -0.464 OA
BRANCH  17  18
ATOM     18  C   UNL     1      35.174 -24.040 -12.467  0.00  0.00    +0.314 C 
BRANCH  18  20
ATOM     19  O   UNL     1      37.229 -24.267 -11.189  0.00  0.00    -0.246 OA
ATOM     20  C   UNL     1      36.029 -24.467 -11.306  0.00  0.00    +0.359 C 
BRANCH  20  21
ATOM     21  O   UNL     1      35.275 -25.117 -10.383  0.00  0.00    -0.478 OA
ATOM     22  H   UNL     1      35.449 -26.016 -10.185  0.00  0.00    +0.295 HD
ENDBRANCH  20  21
ENDBRANCH  18  20
ENDBRANCH  17  18
ENDBRANCH  10  17
BRANCH  11  23
ATOM     23  O   UNL     1      34.752 -19.929 -21.881  0.00  0.00    -0.464 OA
BRANCH  23  24
ATOM     24  C   UNL     1      35.219 -18.604 -22.123  0.00  0.00    +0.314 C 
BRANCH  24  26
ATOM     25  O   UNL     1      34.694 -19.038 -24.456  0.00  0.00    -0.246 OA
ATOM     26  C   UNL     1      35.145 -18.298 -23.594  0.00  0.00    +0.359 C 
BRANCH  26  27
ATOM     27  O   UNL     1      35.653 -17.065 -23.843  0.00  0.00    -0.478 OA
ATOM     28  H   UNL     1      35.091 -16.316 -23.832  0.00  0.00    +0.295 HD
ENDBRANCH  26  27
ENDBRANCH  24  26
ENDBRANCH  23  24
ENDBRANCH  11  23
TORSDOF 10
ENDMDL
