MODEL 1
REMARK VINA RESULT:      -9.3      0.000      0.000
REMARK  Name = 16757525
REMARK  3 active torsions:
REMARK  status: ('A' for Active; 'I' for Inactive)
REMARK    1  A    between atoms: C_4  and  C_22
REMARK    2  A    between atoms: C_9  and  C_16
REMARK    3  A    between atoms: C_22  and  C_24
REMARK                            x       y       z     vdW  Elec       q    Type
REMARK                         _______ _______ _______ _____ _____    ______ ____
ROOT
ATOM      1  O   UNL     1      34.590 -17.552 -25.843  0.00  0.00    -0.270 OA
ATOM      2  N   UNL     1      34.127 -14.942 -22.116  0.00  0.00    -0.314 N 
ATOM      3  N   UNL     1      35.541 -18.348 -23.894  0.00  0.00    -0.300 N 
ATOM      4  C   UNL     1      35.123 -17.241 -21.672  0.00  0.00    +0.058 C 
ATOM      5  C   UNL     1      34.583 -16.158 -22.540  0.00  0.00    +0.031 C 
ATOM      6  C   UNL     1      36.062 -18.098 -22.546  0.00  0.00    +0.095 C 
ATOM      7  C   UNL     1      34.453 -16.223 -23.911  0.00  0.00    +0.064 C 
ATOM      8  C   UNL     1      34.856 -17.402 -24.654  0.00  0.00    +0.247 C 
ATOM      9  C   UNL     1      33.687 -14.228 -23.203  0.00  0.00    +0.079 C 
ATOM     10  C   UNL     1      33.873 -15.001 -24.332  0.00  0.00    +0.023 C 
ATOM     11  H   UNL     1      34.116 -14.628 -21.183  0.00  0.00    +0.152 HD
ATOM     12  H   UNL     1      35.687 -19.239 -24.287  0.00  0.00    +0.150 HD
ENDROOT
BRANCH   9  16
ATOM     13  N   UNL     1      32.095 -12.802 -22.219  0.00  0.00    -0.337 NA
ATOM     14  N   UNL     1      31.993 -10.447 -22.721  0.00  0.00    -0.170 NA
ATOM     15  N   UNL     1      30.486 -11.424 -21.211  0.00  0.00    -0.293 N 
ATOM     16  C   UNL     1      33.136 -12.901 -23.072  0.00  0.00    +0.159 C 
ATOM     17  C   UNL     1      33.655 -11.832 -23.775  0.00  0.00    +0.056 C 
ATOM     18  C   UNL     1      33.037 -10.618 -23.557  0.00  0.00    +0.114 C 
ATOM     19  C   UNL     1      31.578 -11.565 -22.094  0.00  0.00    +0.141 C 
ATOM     20  H   UNL     1      30.142 -12.208 -20.725  0.00  0.00    +0.155 HD
ATOM     21  H   UNL     1      30.069 -10.542 -21.080  0.00  0.00    +0.155 HD
ENDBRANCH   9  16
BRANCH   4  22
ATOM     22  C   UNL     1      33.990 -18.084 -21.088  0.00  0.00    +0.045 C 
BRANCH  22  24
ATOM     23  F   UNL     1      33.549 -20.129 -20.024  0.00  0.00    -0.234 F 
ATOM     24  C   UNL     1      34.427 -19.518 -20.863  0.00  0.00    +0.194 C 
ENDBRANCH  22  24
ENDBRANCH   4  22
TORSDOF 3
ENDMDL
MODEL 2
REMARK VINA RESULT:      -9.0     10.239     12.805
REMARK  Name = 16757525
REMARK  3 active torsions:
REMARK  status: ('A' for Active; 'I' for Inactive)
REMARK    1  A    between atoms: C_4  and  C_22
REMARK    2  A    between atoms: C_9  and  C_16
REMARK    3  A    between atoms: C_22  and  C_24
REMARK                            x       y       z     vdW  Elec       q    Type
REMARK                         _______ _______ _______ _____ _____    ______ ____
ROOT
ATOM      1  O   UNL     1      37.183 -22.461 -11.374  0.00  0.00    -0.270 OA
ATOM      2  N   UNL     1      35.963 -24.682 -15.181  0.00  0.00    -0.314 N 
ATOM      3  N   UNL     1      38.311 -24.423 -11.836  0.00  0.00    -0.300 N 
ATOM      4  C   UNL     1      38.031 -25.622 -14.033  0.00  0.00    +0.058 C 
ATOM      5  C   UNL     1      36.875 -24.692 -14.163  0.00  0.00    +0.031 C 
ATOM      6  C   UNL     1      38.373 -25.714 -12.532  0.00  0.00    +0.095 C 
ATOM      7  C   UNL     1      36.552 -23.688 -13.274  0.00  0.00    +0.064 C 
ATOM      8  C   UNL     1      37.344 -23.449 -12.083  0.00  0.00    +0.247 C 
ATOM      9  C   UNL     1      35.064 -23.667 -14.964  0.00  0.00    +0.079 C 
ATOM     10  C   UNL     1      35.409 -23.029 -13.789  0.00  0.00    +0.023 C 
ATOM     11  H   UNL     1      35.953 -25.302 -15.946  0.00  0.00    +0.152 HD
ATOM     12  H   UNL     1      38.993 -24.234 -11.152  0.00  0.00    +0.150 HD
ENDROOT
BRANCH   9  16
ATOM     13  N   UNL     1      34.360 -23.197 -17.159  0.00  0.00    -0.337 NA
ATOM     14  N   UNL     1      32.039 -22.881 -17.725  0.00  0.00    -0.170 NA
ATOM     15  N   UNL     1      33.711 -22.728 -19.364  0.00  0.00    -0.293 N 
ATOM     16  C   UNL     1      33.982 -23.399 -15.880  0.00  0.00    +0.159 C 
ATOM     17  C   UNL     1      32.669 -23.359 -15.452  0.00  0.00    +0.056 C 
ATOM     18  C   UNL     1      31.732 -23.093 -16.429  0.00  0.00    +0.114 C 
ATOM     19  C   UNL     1      33.352 -22.946 -18.017  0.00  0.00    +0.141 C 
ATOM     20  H   UNL     1      34.657 -22.764 -19.634  0.00  0.00    +0.155 HD
ATOM     21  H   UNL     1      33.014 -22.540 -20.035  0.00  0.00    +0.155 HD
ENDBRANCH   9  16
BRANCH   4  22
ATOM     22  C   UNL     1      39.226 -25.118 -14.842  0.00  0.00    +0.045 C 
BRANCH  22  24
ATOM     23  F   UNL     1      40.895 -26.760 -14.692  0.00  0.00    -0.234 F 
ATOM     24  C   UNL     1      40.538 -25.540 -14.211  0.00  0.00    +0.194 C 
ENDBRANCH  22  24
ENDBRANCH   4  22
TORSDOF 3
ENDMDL
MODEL 3
REMARK VINA RESULT:      -8.9      3.108      6.634
REMARK  Name = 16757525
REMARK  3 active torsions:
REMARK  status: ('A' for Active; 'I' for Inactive)
REMARK    1  A    between atoms: C_4  and  C_22
REMARK    2  A    between atoms: C_9  and  C_16
REMARK    3  A    between atoms: C_22  and  C_24
REMARK                            x       y       z     vdW  Elec       q    Type
REMARK                         _______ _______ _______ _____ _____    ______ ____
ROOT
ATOM      1  O   UNL     1      33.860  -9.850 -24.117  0.00  0.00    -0.270 OA
ATOM      2  N   UNL     1      32.576 -13.947 -22.543  0.00  0.00    -0.314 N 
ATOM      3  N   UNL     1      31.997  -9.899 -22.752  0.00  0.00    -0.300 N 
ATOM      4  C   UNL     1      31.319 -11.986 -21.517  0.00  0.00    +0.058 C 
ATOM      5  C   UNL     1      32.305 -12.612 -22.442  0.00  0.00    +0.031 C 
ATOM      6  C   UNL     1      30.888 -10.647 -22.151  0.00  0.00    +0.095 C 
ATOM      7  C   UNL     1      33.104 -11.932 -23.337  0.00  0.00    +0.064 C 
ATOM      8  C   UNL     1      33.043 -10.488 -23.461  0.00  0.00    +0.247 C 
ATOM      9  C   UNL     1      33.558 -14.133 -23.485  0.00  0.00    +0.079 C 
ATOM     10  C   UNL     1      33.908 -12.897 -23.991  0.00  0.00    +0.023 C 
ATOM     11  H   UNL     1      32.138 -14.660 -22.024  0.00  0.00    +0.152 HD
ATOM     12  H   UNL     1      32.003  -8.920 -22.649  0.00  0.00    +0.150 HD
ENDROOT
BRANCH   9  16
ATOM     13  N   UNL     1      34.695 -16.072 -22.794  0.00  0.00    -0.337 NA
ATOM     14  N   UNL     1      35.079 -17.935 -24.275  0.00  0.00    -0.170 NA
ATOM     15  N   UNL     1      35.837 -17.984 -22.055  0.00  0.00    -0.293 N 
ATOM     16  C   UNL     1      34.066 -15.444 -23.808  0.00  0.00    +0.159 C 
ATOM     17  C   UNL     1      33.905 -15.989 -25.067  0.00  0.00    +0.056 C 
ATOM     18  C   UNL     1      34.437 -17.249 -25.243  0.00  0.00    +0.114 C 
ATOM     19  C   UNL     1      35.171 -17.296 -23.092  0.00  0.00    +0.141 C 
ATOM     20  H   UNL     1      35.934 -17.565 -21.169  0.00  0.00    +0.155 HD
ATOM     21  H   UNL     1      36.206 -18.883 -22.217  0.00  0.00    +0.155 HD
ENDBRANCH   9  16
BRANCH   4  22
ATOM     22  C   UNL     1      31.934 -11.770 -20.135  0.00  0.00    +0.045 C 
BRANCH  22  24
ATOM     23  F   UNL     1      31.244 -11.000 -18.028  0.00  0.00    -0.234 F 
ATOM     24  C   UNL     1      31.182 -10.711 -19.354  0.00  0.00    +0.194 C 
ENDBRANCH  22  24
ENDBRANCH   4  22
TORSDOF 3
ENDMDL
MODEL 4
REMARK VINA RESULT:      -8.9      9.131     12.298
REMARK  Name = 16757525
REMARK  3 active torsions:
REMARK  status: ('A' for Active; 'I' for Inactive)
REMARK    1  A    between atoms: C_4  and  C_22
REMARK    2  A    between atoms: C_9  and  C_16
REMARK    3  A    between atoms: C_22  and  C_24
REMARK                            x       y       z     vdW  Elec       q    Type
REMARK                         _______ _______ _______ _____ _____    ______ ____
ROOT
ATOM      1  O   UNL     1      34.950 -23.628 -11.671  0.00  0.00    -0.270 OA
ATOM      2  N   UNL     1      37.023 -24.203 -15.707  0.00  0.00    -0.314 N 
ATOM      3  N   UNL     1      36.443 -25.384 -11.830  0.00  0.00    -0.300 N 
ATOM      4  C   UNL     1      37.930 -25.677 -13.841  0.00  0.00    +0.058 C 
ATOM      5  C   UNL     1      37.006 -24.663 -14.421  0.00  0.00    +0.031 C 
ATOM      6  C   UNL     1      37.195 -26.336 -12.655  0.00  0.00    +0.095 C 
ATOM      7  C   UNL     1      35.991 -24.024 -13.739  0.00  0.00    +0.064 C 
ATOM      8  C   UNL     1      35.725 -24.304 -12.341  0.00  0.00    +0.247 C 
ATOM      9  C   UNL     1      36.038 -23.259 -15.857  0.00  0.00    +0.079 C 
ATOM     10  C   UNL     1      35.384 -23.123 -14.648  0.00  0.00    +0.023 C 
ATOM     11  H   UNL     1      37.642 -24.501 -16.413  0.00  0.00    +0.152 HD
ATOM     12  H   UNL     1      36.444 -25.518 -10.855  0.00  0.00    +0.150 HD
ENDROOT
BRANCH   9  16
ATOM     13  N   UNL     1      34.602 -22.796 -17.662  0.00  0.00    -0.337 NA
ATOM     14  N   UNL     1      35.252 -21.362 -19.487  0.00  0.00    -0.170 NA
ATOM     15  N   UNL     1      33.133 -22.368 -19.440  0.00  0.00    -0.293 N 
ATOM     16  C   UNL     1      35.815 -22.581 -17.111  0.00  0.00    +0.159 C 
ATOM     17  C   UNL     1      36.785 -21.781 -17.680  0.00  0.00    +0.056 C 
ATOM     18  C   UNL     1      36.444 -21.191 -18.879  0.00  0.00    +0.114 C 
ATOM     19  C   UNL     1      34.391 -22.165 -18.833  0.00  0.00    +0.141 C 
ATOM     20  H   UNL     1      32.465 -22.946 -19.006  0.00  0.00    +0.155 HD
ATOM     21  H   UNL     1      32.924 -21.931 -20.298  0.00  0.00    +0.155 HD
ENDBRANCH   9  16
BRANCH   4  22
ATOM     22  C   UNL     1      39.235 -25.024 -13.387  0.00  0.00    +0.045 C 
BRANCH  22  24
ATOM     23  F   UNL     1      40.989 -26.474 -13.963  0.00  0.00    -0.234 F 
ATOM     24  C   UNL     1      40.368 -25.327 -14.347  0.00  0.00    +0.194 C 
ENDBRANCH  22  24
ENDBRANCH   4  22
TORSDOF 3
ENDMDL
MODEL 5
REMARK VINA RESULT:      -8.8     11.873     13.646
REMARK  Name = 16757525
REMARK  3 active torsions:
REMARK  status: ('A' for Active; 'I' for Inactive)
REMARK    1  A    between atoms: C_4  and  C_22
REMARK    2  A    between atoms: C_9  and  C_16
REMARK    3  A    between atoms: C_22  and  C_24
REMARK                            x       y       z     vdW  Elec       q    Type
REMARK                         _______ _______ _______ _____ _____    ______ ____
ROOT
ATOM      1  O   UNL     1      36.926 -22.784 -10.854  0.00  0.00    -0.270 OA
ATOM      2  N   UNL     1      35.268 -25.084 -14.442  0.00  0.00    -0.314 N 
ATOM      3  N   UNL     1      38.218 -24.522 -11.659  0.00  0.00    -0.300 N 
ATOM      4  C   UNL     1      37.657 -25.697 -13.814  0.00  0.00    +0.058 C 
ATOM      5  C   UNL     1      36.370 -24.968 -13.642  0.00  0.00    +0.031 C 
ATOM      6  C   UNL     1      38.328 -25.767 -12.427  0.00  0.00    +0.095 C 
ATOM      7  C   UNL     1      36.096 -24.054 -12.647  0.00  0.00    +0.064 C 
ATOM      8  C   UNL     1      37.081 -23.715 -11.638  0.00  0.00    +0.247 C 
ATOM      9  C   UNL     1      34.291 -24.238 -13.981  0.00  0.00    +0.079 C 
ATOM     10  C   UNL     1      34.779 -23.580 -12.869  0.00  0.00    +0.023 C 
ATOM     11  H   UNL     1      35.188 -25.679 -15.223  0.00  0.00    +0.152 HD
ATOM     12  H   UNL     1      38.994 -24.239 -11.124  0.00  0.00    +0.150 HD
ENDROOT
BRANCH   9  16
ATOM     13  N   UNL     1      32.015 -24.830 -14.041  0.00  0.00    -0.337 NA
ATOM     14  N   UNL     1      30.520 -24.020 -15.749  0.00  0.00    -0.170 NA
ATOM     15  N   UNL     1      29.753 -25.453 -14.056  0.00  0.00    -0.293 N 
ATOM     16  C   UNL     1      33.007 -24.130 -14.630  0.00  0.00    +0.159 C 
ATOM     17  C   UNL     1      32.835 -23.363 -15.765  0.00  0.00    +0.056 C 
ATOM     18  C   UNL     1      31.557 -23.345 -16.285  0.00  0.00    +0.114 C 
ATOM     19  C   UNL     1      30.815 -24.732 -14.644  0.00  0.00    +0.141 C 
ATOM     20  H   UNL     1      29.912 -25.990 -13.247  0.00  0.00    +0.155 HD
ATOM     21  H   UNL     1      28.853 -25.418 -14.455  0.00  0.00    +0.155 HD
ENDBRANCH   9  16
BRANCH   4  22
ATOM     22  C   UNL     1      38.554 -24.983 -14.825  0.00  0.00    +0.045 C 
BRANCH  22  24
ATOM     23  F   UNL     1      40.546 -25.717 -15.824  0.00  0.00    -0.234 F 
ATOM     24  C   UNL     1      40.011 -25.352 -14.630  0.00  0.00    +0.194 C 
ENDBRANCH  22  24
ENDBRANCH   4  22
TORSDOF 3
ENDMDL
MODEL 6
REMARK VINA RESULT:      -8.7      3.414      6.724
REMARK  Name = 16757525
REMARK  3 active torsions:
REMARK  status: ('A' for Active; 'I' for Inactive)
REMARK    1  A    between atoms: C_4  and  C_22
REMARK    2  A    between atoms: C_9  and  C_16
REMARK    3  A    between atoms: C_22  and  C_24
REMARK                            x       y       z     vdW  Elec       q    Type
REMARK                         _______ _______ _______ _____ _____    ______ ____
ROOT
ATOM      1  O   UNL     1      31.721 -12.898 -20.773  0.00  0.00    -0.270 OA
ATOM      2  N   UNL     1      34.240 -15.998 -23.000  0.00  0.00    -0.314 N 
ATOM      3  N   UNL     1      32.647 -12.233 -22.782  0.00  0.00    -0.300 N 
ATOM      4  C   UNL     1      33.784 -13.870 -24.320  0.00  0.00    +0.058 C 
ATOM      5  C   UNL     1      33.711 -14.744 -23.116  0.00  0.00    +0.031 C 
ATOM      6  C   UNL     1      33.655 -12.412 -23.832  0.00  0.00    +0.095 C 
ATOM      7  C   UNL     1      33.088 -14.419 -21.929  0.00  0.00    +0.064 C 
ATOM      8  C   UNL     1      32.427 -13.140 -21.747  0.00  0.00    +0.247 C 
ATOM      9  C   UNL     1      33.947 -16.493 -21.753  0.00  0.00    +0.079 C 
ATOM     10  C   UNL     1      33.227 -15.534 -21.068  0.00  0.00    +0.023 C 
ATOM     11  H   UNL     1      34.749 -16.471 -23.698  0.00  0.00    +0.152 HD
ATOM     12  H   UNL     1      32.093 -11.420 -22.809  0.00  0.00    +0.150 HD
ENDROOT
BRANCH   9  16
ATOM     13  N   UNL     1      33.361 -18.655 -21.035  0.00  0.00    -0.337 NA
ATOM     14  N   UNL     1      35.013 -20.335 -20.533  0.00  0.00    -0.170 NA
ATOM     15  N   UNL     1      32.723 -20.796 -20.321  0.00  0.00    -0.293 N 
ATOM     16  C   UNL     1      34.367 -17.808 -21.337  0.00  0.00    +0.159 C 
ATOM     17  C   UNL     1      35.703 -18.148 -21.262  0.00  0.00    +0.056 C 
ATOM     18  C   UNL     1      35.969 -19.438 -20.851  0.00  0.00    +0.114 C 
ATOM     19  C   UNL     1      33.749 -19.884 -20.646  0.00  0.00    +0.141 C 
ATOM     20  H   UNL     1      31.780 -20.520 -20.385  0.00  0.00    +0.155 HD
ATOM     21  H   UNL     1      32.949 -21.710 -20.030  0.00  0.00    +0.155 HD
ENDBRANCH   9  16
BRANCH   4  22
ATOM     22  C   UNL     1      32.675 -14.221 -25.311  0.00  0.00    +0.045 C 
BRANCH  22  24
ATOM     23  F   UNL     1      33.575 -13.845 -27.445  0.00  0.00    -0.234 F 
ATOM     24  C   UNL     1      33.238 -14.835 -26.577  0.00  0.00    +0.194 C 
ENDBRANCH  22  24
ENDBRANCH   4  22
TORSDOF 3
ENDMDL
MODEL 7
REMARK VINA RESULT:      -8.7      2.332      2.874
REMARK  Name = 16757525
REMARK  3 active torsions:
REMARK  status: ('A' for Active; 'I' for Inactive)
REMARK    1  A    between atoms: C_4  and  C_22
REMARK    2  A    between atoms: C_9  and  C_16
REMARK    3  A    between atoms: C_22  and  C_24
REMARK                            x       y       z     vdW  Elec       q    Type
REMARK                         _______ _______ _______ _____ _____    ______ ____
ROOT
ATOM      1  O   UNL     1      32.850 -15.577 -26.574  0.00  0.00    -0.270 OA
ATOM      2  N   UNL     1      34.305 -12.943 -23.130  0.00  0.00    -0.314 N 
ATOM      3  N   UNL     1      34.020 -16.631 -24.884  0.00  0.00    -0.300 N 
ATOM      4  C   UNL     1      34.619 -15.440 -22.749  0.00  0.00    +0.058 C 
ATOM      5  C   UNL     1      34.219 -14.243 -23.540  0.00  0.00    +0.031 C 
ATOM      6  C   UNL     1      34.955 -16.559 -23.756  0.00  0.00    +0.095 C 
ATOM      7  C   UNL     1      33.690 -14.268 -24.814  0.00  0.00    +0.064 C 
ATOM      8  C   UNL     1      33.476 -15.516 -25.520  0.00  0.00    +0.247 C 
ATOM      9  C   UNL     1      33.818 -12.129 -24.122  0.00  0.00    +0.079 C 
ATOM     10  C   UNL     1      33.424 -12.926 -25.179  0.00  0.00    +0.023 C 
ATOM     11  H   UNL     1      34.658 -12.639 -22.262  0.00  0.00    +0.152 HD
ATOM     12  H   UNL     1      33.762 -17.522 -25.213  0.00  0.00    +0.150 HD
ENDROOT
BRANCH   9  16
ATOM     13  N   UNL     1      32.638 -10.220 -23.415  0.00  0.00    -0.337 NA
ATOM     14  N   UNL     1      33.538  -7.996 -23.637  0.00  0.00    -0.170 NA
ATOM     15  N   UNL     1      31.419  -8.350 -22.694  0.00  0.00    -0.293 N 
ATOM     16  C   UNL     1      33.770 -10.694 -23.977  0.00  0.00    +0.159 C 
ATOM     17  C   UNL     1      34.815  -9.892 -24.389  0.00  0.00    +0.056 C 
ATOM     18  C   UNL     1      34.642  -8.538 -24.191  0.00  0.00    +0.114 C 
ATOM     19  C   UNL     1      32.589  -8.882 -23.277  0.00  0.00    +0.141 C 
ATOM     20  H   UNL     1      30.693  -8.952 -22.412  0.00  0.00    +0.155 HD
ATOM     21  H   UNL     1      31.329  -7.378 -22.569  0.00  0.00    +0.155 HD
ENDBRANCH   9  16
BRANCH   4  22
ATOM     22  C   UNL     1      33.496 -15.865 -21.804  0.00  0.00    +0.045 C 
BRANCH  22  24
ATOM     23  F   UNL     1      32.405 -15.156 -19.851  0.00  0.00    -0.234 F 
ATOM     24  C   UNL     1      33.622 -15.187 -20.454  0.00  0.00    +0.194 C 
ENDBRANCH  22  24
ENDBRANCH   4  22
TORSDOF 3
ENDMDL
MODEL 8
REMARK VINA RESULT:      -8.7      3.506      7.001
REMARK  Name = 16757525
REMARK  3 active torsions:
REMARK  status: ('A' for Active; 'I' for Inactive)
REMARK    1  A    between atoms: C_4  and  C_22
REMARK    2  A    between atoms: C_9  and  C_16
REMARK    3  A    between atoms: C_22  and  C_24
REMARK                            x       y       z     vdW  Elec       q    Type
REMARK                         _______ _______ _______ _____ _____    ______ ____
ROOT
ATOM      1  O   UNL     1      34.895  -8.205 -24.021  0.00  0.00    -0.270 OA
ATOM      2  N   UNL     1      32.404 -11.919 -23.063  0.00  0.00    -0.314 N 
ATOM      3  N   UNL     1      32.915  -7.861 -22.882  0.00  0.00    -0.300 N 
ATOM      4  C   UNL     1      31.564  -9.779 -21.969  0.00  0.00    +0.058 C 
ATOM      5  C   UNL     1      32.472 -10.572 -22.844  0.00  0.00    +0.031 C 
ATOM      6  C   UNL     1      31.580  -8.329 -22.493  0.00  0.00    +0.095 C 
ATOM      7  C   UNL     1      33.532 -10.063 -23.565  0.00  0.00    +0.064 C 
ATOM      8  C   UNL     1      33.861  -8.651 -23.533  0.00  0.00    +0.247 C 
ATOM      9  C   UNL     1      33.423 -12.286 -23.906  0.00  0.00    +0.079 C 
ATOM     10  C   UNL     1      34.144 -11.154 -24.231  0.00  0.00    +0.023 C 
ATOM     11  H   UNL     1      31.731 -12.527 -22.679  0.00  0.00    +0.152 HD
ATOM     12  H   UNL     1      33.157  -6.930 -22.670  0.00  0.00    +0.150 HD
ENDROOT
BRANCH   9  16
ATOM     13  N   UNL     1      34.391 -14.390 -23.489  0.00  0.00    -0.337 NA
ATOM     14  N   UNL     1      34.071 -16.268 -24.966  0.00  0.00    -0.170 NA
ATOM     15  N   UNL     1      35.380 -16.466 -23.028  0.00  0.00    -0.293 N 
ATOM     16  C   UNL     1      33.617 -13.656 -24.316  0.00  0.00    +0.159 C 
ATOM     17  C   UNL     1      33.043 -14.151 -25.470  0.00  0.00    +0.056 C 
ATOM     18  C   UNL     1      33.307 -15.477 -25.746  0.00  0.00    +0.114 C 
ATOM     19  C   UNL     1      34.574 -15.669 -23.869  0.00  0.00    +0.141 C 
ATOM     20  H   UNL     1      35.774 -16.080 -22.213  0.00  0.00    +0.155 HD
ATOM     21  H   UNL     1      35.548 -17.409 -23.257  0.00  0.00    +0.155 HD
ENDBRANCH   9  16
BRANCH   4  22
ATOM     22  C   UNL     1      32.021  -9.845 -20.513  0.00  0.00    +0.045 C 
BRANCH  22  24
ATOM     23  F   UNL     1      31.808 -12.032 -19.688  0.00  0.00    -0.234 F 
ATOM     24  C   UNL     1      31.185 -10.825 -19.714  0.00  0.00    +0.194 C 
ENDBRANCH  22  24
ENDBRANCH   4  22
TORSDOF 3
ENDMDL
MODEL 9
REMARK VINA RESULT:      -8.6     10.126     12.737
REMARK  Name = 16757525
REMARK  3 active torsions:
REMARK  status: ('A' for Active; 'I' for Inactive)
REMARK    1  A    between atoms: C_4  and  C_22
REMARK    2  A    between atoms: C_9  and  C_16
REMARK    3  A    between atoms: C_22  and  C_24
REMARK                            x       y       z     vdW  Elec       q    Type
REMARK                         _______ _______ _______ _____ _____    ______ ____
ROOT
ATOM      1  O   UNL     1      37.508 -27.232 -14.077  0.00  0.00    -0.270 OA
ATOM      2  N   UNL     1      35.462 -23.145 -14.201  0.00  0.00    -0.314 N 
ATOM      3  N   UNL     1      38.488 -25.544 -12.843  0.00  0.00    -0.300 N 
ATOM      4  C   UNL     1      37.352 -23.322 -12.506  0.00  0.00    +0.058 C 
ATOM      5  C   UNL     1      36.475 -23.833 -13.597  0.00  0.00    +0.031 C 
ATOM      6  C   UNL     1      38.675 -24.113 -12.579  0.00  0.00    +0.095 C 
ATOM      7  C   UNL     1      36.549 -25.090 -14.159  0.00  0.00    +0.064 C 
ATOM      8  C   UNL     1      37.535 -26.059 -13.719  0.00  0.00    +0.247 C 
ATOM      9  C   UNL     1      34.869 -23.955 -15.138  0.00  0.00    +0.079 C 
ATOM     10  C   UNL     1      35.521 -25.172 -15.130  0.00  0.00    +0.023 C 
ATOM     11  H   UNL     1      35.199 -22.218 -13.998  0.00  0.00    +0.152 HD
ATOM     12  H   UNL     1      39.074 -26.179 -12.372  0.00  0.00    +0.150 HD
ENDROOT
BRANCH   9  16
ATOM     13  N   UNL     1      34.064 -23.194 -17.214  0.00  0.00    -0.337 NA
ATOM     14  N   UNL     1      31.745 -22.644 -17.570  0.00  0.00    -0.170 NA
ATOM     15  N   UNL     1      33.312 -22.438 -19.303  0.00  0.00    -0.293 N 
ATOM     16  C   UNL     1      33.755 -23.507 -15.938  0.00  0.00    +0.159 C 
ATOM     17  C   UNL     1      32.481 -23.415 -15.413  0.00  0.00    +0.056 C 
ATOM     18  C   UNL     1      31.507 -22.974 -16.284  0.00  0.00    +0.114 C 
ATOM     19  C   UNL     1      33.026 -22.775 -17.963  0.00  0.00    +0.141 C 
ATOM     20  H   UNL     1      34.233 -22.516 -19.645  0.00  0.00    +0.155 HD
ATOM     21  H   UNL     1      32.592 -22.126 -19.898  0.00  0.00    +0.155 HD
ENDBRANCH   9  16
BRANCH   4  22
ATOM     22  C   UNL     1      36.680 -23.495 -11.145  0.00  0.00    +0.045 C 
BRANCH  22  24
ATOM     23  F   UNL     1      35.184 -24.866  -9.967  0.00  0.00    -0.234 F 
ATOM     24  C   UNL     1      35.515 -24.461 -11.221  0.00  0.00    +0.194 C 
ENDBRANCH  22  24
ENDBRANCH   4  22
TORSDOF 3
ENDMDL
