MODEL 1
REMARK VINA RESULT:      -7.9      0.000      0.000
REMARK  Name = 656615
REMARK  5 active torsions:
REMARK  status: ('A' for Active; 'I' for Inactive)
REMARK    1  A    between atoms: C_5  and  O_21
REMARK    2  A    between atoms: C_5  and  C_23
REMARK    3  A    between atoms: C_23  and  C_24
REMARK    4  A    between atoms: C_24  and  C_26
REMARK    5  A    between atoms: C_26  and  O_27
REMARK                            x       y       z     vdW  Elec       q    Type
REMARK                         _______ _______ _______ _____ _____    ______ ____
ROOT
ATOM      1  O   UNL     1      33.537 -18.932 -21.577  0.00  0.00    -0.291 OA
ATOM      2  C   UNL     1      35.556 -24.260 -15.195  0.00  0.00    +0.023 C 
ATOM      3  C   UNL     1      36.497 -23.207 -15.832  0.00  0.00    +0.006 C 
ATOM      4  C   UNL     1      36.215 -22.997 -17.327  0.00  0.00    +0.022 C 
ATOM      5  C   UNL     1      36.143 -24.332 -13.751  0.00  0.00    +0.089 C 
ATOM      6  C   UNL     1      34.745 -22.482 -17.470  0.00  0.00    +0.008 C 
ATOM      7  C   UNL     1      34.107 -23.759 -15.336  0.00  0.00    +0.002 C 
ATOM      8  C   UNL     1      37.885 -23.671 -15.399  0.00  0.00    +0.003 C 
ATOM      9  C   UNL     1      33.740 -23.452 -16.802  0.00  0.00    +0.001 C 
ATOM     10  C   UNL     1      37.676 -24.258 -13.990  0.00  0.00    +0.027 C 
ATOM     11  C   UNL     1      34.413 -22.083 -18.954  0.00  0.00    +0.020 C 
ATOM     12  C   UNL     1      35.654 -25.665 -15.861  0.00  0.00    +0.002 C 
ATOM     13  C   UNL     1      37.175 -22.045 -17.990  0.00  0.00    -0.027 C 
ATOM     14  C   UNL     1      35.439 -21.041 -19.426  0.00  0.00    -0.020 C 
ATOM     15  C   UNL     1      32.995 -21.455 -19.017  0.00  0.00    +0.012 C 
ATOM     16  C   UNL     1      34.470 -23.305 -19.900  0.00  0.00    +0.004 C 
ATOM     17  C   UNL     1      36.802 -21.163 -18.927  0.00  0.00    -0.009 C 
ATOM     18  C   UNL     1      32.681 -20.802 -20.357  0.00  0.00    +0.069 C 
ATOM     19  C   UNL     1      35.133 -20.023 -20.248  0.00  0.00    +0.033 C 
ATOM     20  C   UNL     1      33.761 -19.838 -20.776  0.00  0.00    +0.173 C 
ENDROOT
BRANCH   5  21
ATOM     21  O   UNL     1      35.810 -25.568 -13.123  0.00  0.00    -0.387 OA
ATOM     22  H   UNL     1      35.169 -25.407 -12.413  0.00  0.00    +0.210 HD
ENDBRANCH   5  21
BRANCH   5  23
ATOM     23  C   UNL     1      35.689 -23.219 -12.799  0.00  0.00    +0.039 C 
BRANCH  23  24
ATOM     24  C   UNL     1      34.873 -23.750 -11.634  0.00  0.00    +0.112 C 
BRANCH  24  26
ATOM     25  O   UNL     1      35.369 -24.716  -9.478  0.00  0.00    -0.250 OA
ATOM     26  C   UNL     1      35.729 -24.027 -10.424  0.00  0.00    +0.314 C 
BRANCH  26  27
ATOM     27  O   UNL     1      36.956 -23.454 -10.503  0.00  0.00    -0.480 OA
ATOM     28  H   UNL     1      37.230 -23.042 -11.298  0.00  0.00    +0.295 HD
ENDBRANCH  26  27
ENDBRANCH  24  26
ENDBRANCH  23  24
ENDBRANCH   5  23
TORSDOF 5
ENDMDL
MODEL 2
REMARK VINA RESULT:      -7.7      3.648      5.581
REMARK  Name = 656615
REMARK  5 active torsions:
REMARK  status: ('A' for Active; 'I' for Inactive)
REMARK    1  A    between atoms: C_5  and  O_21
REMARK    2  A    between atoms: C_5  and  C_23
REMARK    3  A    between atoms: C_23  and  C_24
REMARK    4  A    between atoms: C_24  and  C_26
REMARK    5  A    between atoms: C_26  and  O_27
REMARK                            x       y       z     vdW  Elec       q    Type
REMARK                         _______ _______ _______ _____ _____    ______ ____
ROOT
ATOM      1  O   UNL     1      27.936 -24.406 -16.364  0.00  0.00    -0.291 OA
ATOM      2  C   UNL     1      36.246 -23.863 -14.401  0.00  0.00    +0.023 C 
ATOM      3  C   UNL     1      35.211 -24.796 -13.724  0.00  0.00    +0.006 C 
ATOM      4  C   UNL     1      33.807 -24.175 -13.673  0.00  0.00    +0.022 C 
ATOM      5  C   UNL     1      37.552 -24.694 -14.204  0.00  0.00    +0.089 C 
ATOM      6  C   UNL     1      33.341 -23.923 -15.144  0.00  0.00    +0.008 C 
ATOM      7  C   UNL     1      35.790 -23.608 -15.849  0.00  0.00    +0.002 C 
ATOM      8  C   UNL     1      35.895 -25.186 -12.416  0.00  0.00    +0.003 C 
ATOM      9  C   UNL     1      34.356 -23.043 -15.914  0.00  0.00    +0.001 C 
ATOM     10  C   UNL     1      37.392 -25.269 -12.771  0.00  0.00    +0.027 C 
ATOM     11  C   UNL     1      31.847 -23.437 -15.203  0.00  0.00    +0.020 C 
ATOM     12  C   UNL     1      36.401 -22.487 -13.688  0.00  0.00    +0.002 C 
ATOM     13  C   UNL     1      32.803 -25.024 -12.939  0.00  0.00    -0.027 C 
ATOM     14  C   UNL     1      30.964 -24.470 -14.487  0.00  0.00    -0.020 C 
ATOM     15  C   UNL     1      31.395 -23.331 -16.685  0.00  0.00    +0.012 C 
ATOM     16  C   UNL     1      31.666 -22.063 -14.518  0.00  0.00    +0.004 C 
ATOM     17  C   UNL     1      31.527 -25.152 -13.330  0.00  0.00    -0.009 C 
ATOM     18  C   UNL     1      29.895 -23.120 -16.845  0.00  0.00    +0.069 C 
ATOM     19  C   UNL     1      29.721 -24.786 -14.889  0.00  0.00    +0.033 C 
ATOM     20  C   UNL     1      29.100 -24.137 -16.067  0.00  0.00    +0.173 C 
ENDROOT
BRANCH   5  21
ATOM     21  O   UNL     1      38.705 -23.859 -14.266  0.00  0.00    -0.387 OA
ATOM     22  H   UNL     1      38.693 -23.352 -15.093  0.00  0.00    +0.210 HD
ENDBRANCH   5  21
BRANCH   5  23
ATOM     23  C   UNL     1      37.772 -25.823 -15.219  0.00  0.00    +0.039 C 
BRANCH  23  24
ATOM     24  C   UNL     1      38.779 -26.850 -14.733  0.00  0.00    +0.112 C 
BRANCH  24  26
ATOM     25  O   UNL     1      41.099 -26.593 -14.115  0.00  0.00    -0.250 OA
ATOM     26  C   UNL     1      40.200 -26.381 -14.920  0.00  0.00    +0.314 C 
BRANCH  26  27
ATOM     27  O   UNL     1      40.389 -25.721 -16.089  0.00  0.00    -0.480 OA
ATOM     28  H   UNL     1      40.269 -24.793 -16.128  0.00  0.00    +0.295 HD
ENDBRANCH  26  27
ENDBRANCH  24  26
ENDBRANCH  23  24
ENDBRANCH   5  23
TORSDOF 5
ENDMDL
MODEL 3
REMARK VINA RESULT:      -7.7      3.189      4.525
REMARK  Name = 656615
REMARK  5 active torsions:
REMARK  status: ('A' for Active; 'I' for Inactive)
REMARK    1  A    between atoms: C_5  and  O_21
REMARK    2  A    between atoms: C_5  and  C_23
REMARK    3  A    between atoms: C_23  and  C_24
REMARK    4  A    between atoms: C_24  and  C_26
REMARK    5  A    between atoms: C_26  and  O_27
REMARK                            x       y       z     vdW  Elec       q    Type
REMARK                         _______ _______ _______ _____ _____    ______ ____
ROOT
ATOM      1  O   UNL     1      27.073 -22.572 -15.772  0.00  0.00    -0.291 OA
ATOM      2  C   UNL     1      35.324 -24.476 -14.551  0.00  0.00    +0.023 C 
ATOM      3  C   UNL     1      34.775 -23.373 -15.490  0.00  0.00    +0.006 C 
ATOM      4  C   UNL     1      33.419 -23.749 -16.105  0.00  0.00    +0.022 C 
ATOM      5  C   UNL     1      36.716 -23.874 -14.185  0.00  0.00    +0.089 C 
ATOM      6  C   UNL     1      32.398 -23.939 -14.935  0.00  0.00    +0.008 C 
ATOM      7  C   UNL     1      34.322 -24.671 -13.398  0.00  0.00    +0.002 C 
ATOM      8  C   UNL     1      35.953 -23.086 -16.417  0.00  0.00    +0.003 C 
ATOM      9  C   UNL     1      32.902 -24.987 -13.913  0.00  0.00    +0.001 C 
ATOM     10  C   UNL     1      37.199 -23.261 -15.527  0.00  0.00    +0.027 C 
ATOM     11  C   UNL     1      30.938 -24.168 -15.471  0.00  0.00    +0.020 C 
ATOM     12  C   UNL     1      35.528 -25.849 -15.257  0.00  0.00    +0.002 C 
ATOM     13  C   UNL     1      32.906 -22.733 -17.091  0.00  0.00    -0.027 C 
ATOM     14  C   UNL     1      30.558 -22.991 -16.383  0.00  0.00    -0.020 C 
ATOM     15  C   UNL     1      29.949 -24.217 -14.275  0.00  0.00    +0.012 C 
ATOM     16  C   UNL     1      30.826 -25.483 -16.277  0.00  0.00    +0.004 C 
ATOM     17  C   UNL     1      31.613 -22.398 -17.193  0.00  0.00    -0.009 C 
ATOM     18  C   UNL     1      28.486 -24.175 -14.699  0.00  0.00    +0.069 C 
ATOM     19  C   UNL     1      29.318 -22.477 -16.447  0.00  0.00    +0.033 C 
ATOM     20  C   UNL     1      28.207 -23.028 -15.636  0.00  0.00    +0.173 C 
ENDROOT
BRANCH   5  21
ATOM     21  O   UNL     1      37.621 -24.892 -13.764  0.00  0.00    -0.387 OA
ATOM     22  H   UNL     1      38.524 -24.540 -13.761  0.00  0.00    +0.210 HD
ENDBRANCH   5  21
BRANCH   5  23
ATOM     23  C   UNL     1      36.703 -22.812 -13.078  0.00  0.00    +0.039 C 
BRANCH  23  24
ATOM     24  C   UNL     1      37.523 -23.226 -11.869  0.00  0.00    +0.112 C 
BRANCH  24  26
ATOM     25  O   UNL     1      36.256 -23.599  -9.848  0.00  0.00    -0.250 OA
ATOM     26  C   UNL     1      36.716 -24.044 -10.892  0.00  0.00    +0.314 C 
BRANCH  26  27
ATOM     27  O   UNL     1      36.528 -25.323 -11.303  0.00  0.00    -0.480 OA
ATOM     28  H   UNL     1      35.765 -25.548 -11.797  0.00  0.00    +0.295 HD
ENDBRANCH  26  27
ENDBRANCH  24  26
ENDBRANCH  23  24
ENDBRANCH   5  23
TORSDOF 5
ENDMDL
MODEL 4
REMARK VINA RESULT:      -7.5      3.776      7.208
REMARK  Name = 656615
REMARK  5 active torsions:
REMARK  status: ('A' for Active; 'I' for Inactive)
REMARK    1  A    between atoms: C_5  and  O_21
REMARK    2  A    between atoms: C_5  and  C_23
REMARK    3  A    between atoms: C_23  and  C_24
REMARK    4  A    between atoms: C_24  and  C_26
REMARK    5  A    between atoms: C_26  and  O_27
REMARK                            x       y       z     vdW  Elec       q    Type
REMARK                         _______ _______ _______ _____ _____    ______ ____
ROOT
ATOM      1  O   UNL     1      40.223 -26.167 -13.917  0.00  0.00    -0.291 OA
ATOM      2  C   UNL     1      32.126 -23.440 -14.361  0.00  0.00    +0.023 C 
ATOM      3  C   UNL     1      33.154 -23.428 -15.520  0.00  0.00    +0.006 C 
ATOM      4  C   UNL     1      34.590 -23.200 -15.027  0.00  0.00    +0.022 C 
ATOM      5  C   UNL     1      30.793 -23.571 -15.162  0.00  0.00    +0.089 C 
ATOM      6  C   UNL     1      34.960 -24.377 -14.065  0.00  0.00    +0.008 C 
ATOM      7  C   UNL     1      32.486 -24.595 -13.409  0.00  0.00    +0.002 C 
ATOM      8  C   UNL     1      32.548 -22.441 -16.514  0.00  0.00    +0.003 C 
ATOM      9  C   UNL     1      33.941 -24.497 -12.905  0.00  0.00    +0.001 C 
ATOM     10  C   UNL     1      31.026 -22.649 -16.389  0.00  0.00    +0.027 C 
ATOM     11  C   UNL     1      36.470 -24.319 -13.633  0.00  0.00    +0.020 C 
ATOM     12  C   UNL     1      32.102 -22.117 -13.539  0.00  0.00    +0.002 C 
ATOM     13  C   UNL     1      35.597 -23.094 -16.142  0.00  0.00    -0.027 C 
ATOM     14  C   UNL     1      37.344 -24.310 -14.897  0.00  0.00    -0.020 C 
ATOM     15  C   UNL     1      36.816 -25.578 -12.792  0.00  0.00    +0.012 C 
ATOM     16  C   UNL     1      36.778 -23.052 -12.802  0.00  0.00    +0.004 C 
ATOM     17  C   UNL     1      36.831 -23.612 -16.067  0.00  0.00    -0.009 C 
ATOM     18  C   UNL     1      38.310 -25.747 -12.545  0.00  0.00    +0.069 C 
ATOM     19  C   UNL     1      38.534 -24.930 -14.977  0.00  0.00    +0.033 C 
ATOM     20  C   UNL     1      39.102 -25.669 -13.825  0.00  0.00    +0.173 C 
ENDROOT
BRANCH   5  21
ATOM     21  O   UNL     1      29.687 -23.094 -14.400  0.00  0.00    -0.387 OA
ATOM     22  H   UNL     1      29.536 -22.158 -14.601  0.00  0.00    +0.210 HD
ENDBRANCH   5  21
BRANCH   5  23
ATOM     23  C   UNL     1      30.435 -24.993 -15.614  0.00  0.00    +0.039 C 
BRANCH  23  24
ATOM     24  C   UNL     1      28.960 -25.304 -15.432  0.00  0.00    +0.112 C 
BRANCH  24  26
ATOM     25  O   UNL     1      27.977 -24.704 -17.554  0.00  0.00    -0.250 OA
ATOM     26  C   UNL     1      28.092 -24.485 -16.355  0.00  0.00    +0.314 C 
BRANCH  26  27
ATOM     27  O   UNL     1      27.427 -23.493 -15.712  0.00  0.00    -0.480 OA
ATOM     28  H   UNL     1      26.499 -23.408 -15.814  0.00  0.00    +0.295 HD
ENDBRANCH  26  27
ENDBRANCH  24  26
ENDBRANCH  23  24
ENDBRANCH   5  23
TORSDOF 5
ENDMDL
MODEL 5
REMARK VINA RESULT:      -6.7     12.923     16.785
REMARK  Name = 656615
REMARK  5 active torsions:
REMARK  status: ('A' for Active; 'I' for Inactive)
REMARK    1  A    between atoms: C_5  and  O_21
REMARK    2  A    between atoms: C_5  and  C_23
REMARK    3  A    between atoms: C_23  and  C_24
REMARK    4  A    between atoms: C_24  and  C_26
REMARK    5  A    between atoms: C_26  and  O_27
REMARK                            x       y       z     vdW  Elec       q    Type
REMARK                         _______ _______ _______ _____ _____    ______ ____
ROOT
ATOM      1  O   UNL     1      33.480 -15.359 -26.838  0.00  0.00    -0.291 OA
ATOM      2  C   UNL     1      32.309  -8.230 -22.255  0.00  0.00    +0.023 C 
ATOM      3  C   UNL     1      33.171  -8.355 -23.536  0.00  0.00    +0.006 C 
ATOM      4  C   UNL     1      33.827  -9.738 -23.668  0.00  0.00    +0.022 C 
ATOM      5  C   UNL     1      31.885  -6.731 -22.341  0.00  0.00    +0.089 C 
ATOM      6  C   UNL     1      32.686 -10.804 -23.746  0.00  0.00    +0.008 C 
ATOM      7  C   UNL     1      31.186  -9.280 -22.324  0.00  0.00    +0.002 C 
ATOM      8  C   UNL     1      34.060  -7.116 -23.482  0.00  0.00    +0.003 C 
ATOM      9  C   UNL     1      31.739 -10.706 -22.525  0.00  0.00    +0.001 C 
ATOM     10  C   UNL     1      33.172  -6.028 -22.849  0.00  0.00    +0.027 C 
ATOM     11  C   UNL     1      33.254 -12.239 -24.046  0.00  0.00    +0.020 C 
ATOM     12  C   UNL     1      33.114  -8.460 -20.941  0.00  0.00    +0.002 C 
ATOM     13  C   UNL     1      34.741  -9.856 -24.859  0.00  0.00    -0.027 C 
ATOM     14  C   UNL     1      34.080 -12.182 -25.339  0.00  0.00    -0.020 C 
ATOM     15  C   UNL     1      32.076 -13.231 -24.245  0.00  0.00    +0.012 C 
ATOM     16  C   UNL     1      34.156 -12.747 -22.897  0.00  0.00    +0.004 C 
ATOM     17  C   UNL     1      34.832 -10.964 -25.606  0.00  0.00    -0.009 C 
ATOM     18  C   UNL     1      32.513 -14.585 -24.792  0.00  0.00    +0.069 C 
ATOM     19  C   UNL     1      34.121 -13.183 -26.235  0.00  0.00    +0.033 C 
ATOM     20  C   UNL     1      33.365 -14.441 -26.027  0.00  0.00    +0.173 C 
ENDROOT
BRANCH   5  21
ATOM     21  O   UNL     1      31.530  -6.224 -21.057  0.00  0.00    -0.387 OA
ATOM     22  H   UNL     1      30.620  -6.485 -20.847  0.00  0.00    +0.210 HD
ENDBRANCH   5  21
BRANCH   5  23
ATOM     23  C   UNL     1      30.702  -6.435 -23.272  0.00  0.00    +0.039 C 
BRANCH  23  24
ATOM     24  C   UNL     1      31.036  -5.383 -24.316  0.00  0.00    +0.112 C 
BRANCH  24  26
ATOM     25  O   UNL     1      30.409  -3.076 -24.647  0.00  0.00    -0.250 OA
ATOM     26  C   UNL     1      30.628  -4.000 -23.874  0.00  0.00    +0.314 C 
BRANCH  26  27
ATOM     27  O   UNL     1      30.501  -3.891 -22.528  0.00  0.00    -0.480 OA
ATOM     28  H   UNL     1      30.728  -4.613 -21.977  0.00  0.00    +0.295 HD
ENDBRANCH  26  27
ENDBRANCH  24  26
ENDBRANCH  23  24
ENDBRANCH   5  23
TORSDOF 5
ENDMDL
MODEL 6
REMARK VINA RESULT:      -6.6      4.335      7.751
REMARK  Name = 656615
REMARK  5 active torsions:
REMARK  status: ('A' for Active; 'I' for Inactive)
REMARK    1  A    between atoms: C_5  and  O_21
REMARK    2  A    between atoms: C_5  and  C_23
REMARK    3  A    between atoms: C_23  and  C_24
REMARK    4  A    between atoms: C_24  and  C_26
REMARK    5  A    between atoms: C_26  and  O_27
REMARK                            x       y       z     vdW  Elec       q    Type
REMARK                         _______ _______ _______ _____ _____    ______ ____
ROOT
ATOM      1  O   UNL     1      38.219 -22.480 -12.643  0.00  0.00    -0.291 OA
ATOM      2  C   UNL     1      30.609 -24.253 -16.129  0.00  0.00    +0.023 C 
ATOM      3  C   UNL     1      30.943 -24.275 -14.616  0.00  0.00    +0.006 C 
ATOM      4  C   UNL     1      32.393 -24.702 -14.343  0.00  0.00    +0.022 C 
ATOM      5  C   UNL     1      29.089 -23.906 -16.081  0.00  0.00    +0.089 C 
ATOM      6  C   UNL     1      33.337 -23.663 -15.031  0.00  0.00    +0.008 C 
ATOM      7  C   UNL     1      31.538 -23.234 -16.813  0.00  0.00    +0.002 C 
ATOM      8  C   UNL     1      29.805 -25.097 -14.019  0.00  0.00    +0.003 C 
ATOM      9  C   UNL     1      33.027 -23.535 -16.543  0.00  0.00    +0.001 C 
ATOM     10  C   UNL     1      28.575 -24.737 -14.874  0.00  0.00    +0.027 C 
ATOM     11  C   UNL     1      34.845 -23.923 -14.672  0.00  0.00    +0.020 C 
ATOM     12  C   UNL     1      30.799 -25.633 -16.827  0.00  0.00    +0.002 C 
ATOM     13  C   UNL     1      32.717 -24.818 -12.876  0.00  0.00    -0.027 C 
ATOM     14  C   UNL     1      34.996 -23.916 -13.143  0.00  0.00    -0.020 C 
ATOM     15  C   UNL     1      35.723 -22.790 -15.269  0.00  0.00    +0.012 C 
ATOM     16  C   UNL     1      35.335 -25.285 -15.217  0.00  0.00    +0.004 C 
ATOM     17  C   UNL     1      33.894 -24.448 -12.354  0.00  0.00    -0.009 C 
ATOM     18  C   UNL     1      37.159 -22.808 -14.762  0.00  0.00    +0.069 C 
ATOM     19  C   UNL     1      36.075 -23.426 -12.510  0.00  0.00    +0.033 C 
ATOM     20  C   UNL     1      37.222 -22.858 -13.257  0.00  0.00    +0.173 C 
ENDROOT
BRANCH   5  21
ATOM     21  O   UNL     1      28.429 -24.325 -17.274  0.00  0.00    -0.387 OA
ATOM     22  H   UNL     1      27.536 -23.948 -17.298  0.00  0.00    +0.210 HD
ENDBRANCH   5  21
BRANCH   5  23
ATOM     23  C   UNL     1      28.759 -22.420 -15.895  0.00  0.00    +0.039 C 
BRANCH  23  24
ATOM     24  C   UNL     1      27.267 -22.169 -15.765  0.00  0.00    +0.112 C 
BRANCH  24  26
ATOM     25  O   UNL     1      27.038 -22.192 -18.168  0.00  0.00    -0.250 OA
ATOM     26  C   UNL     1      26.640 -21.787 -17.082  0.00  0.00    +0.314 C 
BRANCH  26  27
ATOM     27  O   UNL     1      25.569 -20.968 -16.940  0.00  0.00    -0.480 OA
ATOM     28  H   UNL     1      24.792 -21.281 -16.521  0.00  0.00    +0.295 HD
ENDBRANCH  26  27
ENDBRANCH  24  26
ENDBRANCH  23  24
ENDBRANCH   5  23
TORSDOF 5
ENDMDL
MODEL 7
REMARK VINA RESULT:      -6.4      2.473      3.299
REMARK  Name = 656615
REMARK  5 active torsions:
REMARK  status: ('A' for Active; 'I' for Inactive)
REMARK    1  A    between atoms: C_5  and  O_21
REMARK    2  A    between atoms: C_5  and  C_23
REMARK    3  A    between atoms: C_23  and  C_24
REMARK    4  A    between atoms: C_24  and  C_26
REMARK    5  A    between atoms: C_26  and  O_27
REMARK                            x       y       z     vdW  Elec       q    Type
REMARK                         _______ _______ _______ _____ _____    ______ ____
ROOT
ATOM      1  O   UNL     1      35.992 -18.053 -22.202  0.00  0.00    -0.291 OA
ATOM      2  C   UNL     1      33.966 -23.719 -16.120  0.00  0.00    +0.023 C 
ATOM      3  C   UNL     1      35.131 -22.699 -16.061  0.00  0.00    +0.006 C 
ATOM      4  C   UNL     1      35.735 -22.419 -17.444  0.00  0.00    +0.022 C 
ATOM      5  C   UNL     1      33.647 -23.878 -14.601  0.00  0.00    +0.089 C 
ATOM      6  C   UNL     1      34.610 -21.815 -18.346  0.00  0.00    +0.008 C 
ATOM      7  C   UNL     1      32.855 -23.131 -17.010  0.00  0.00    +0.002 C 
ATOM      8  C   UNL     1      36.028 -23.258 -14.961  0.00  0.00    +0.003 C 
ATOM      9  C   UNL     1      33.377 -22.750 -18.410  0.00  0.00    +0.001 C 
ATOM     10  C   UNL     1      35.054 -23.883 -13.944  0.00  0.00    +0.027 C 
ATOM     11  C   UNL     1      35.172 -21.344 -19.737  0.00  0.00    +0.020 C 
ATOM     12  C   UNL     1      34.380 -25.102 -16.705  0.00  0.00    +0.002 C 
ATOM     13  C   UNL     1      36.927 -21.500 -17.402  0.00  0.00    -0.027 C 
ATOM     14  C   UNL     1      36.314 -20.346 -19.494  0.00  0.00    -0.020 C 
ATOM     15  C   UNL     1      34.046 -20.633 -20.536  0.00  0.00    +0.012 C 
ATOM     16  C   UNL     1      35.712 -22.532 -20.566  0.00  0.00    +0.004 C 
ATOM     17  C   UNL     1      37.164 -20.564 -18.332  0.00  0.00    -0.009 C 
ATOM     18  C   UNL     1      34.551 -19.915 -21.781  0.00  0.00    +0.069 C 
ATOM     19  C   UNL     1      36.547 -19.283 -20.282  0.00  0.00    +0.033 C 
ATOM     20  C   UNL     1      35.707 -18.999 -21.470  0.00  0.00    +0.173 C 
ENDROOT
BRANCH   5  21
ATOM     21  O   UNL     1      32.986 -25.114 -14.342  0.00  0.00    -0.387 OA
ATOM     22  H   UNL     1      32.479 -25.043 -13.519  0.00  0.00    +0.210 HD
ENDBRANCH   5  21
BRANCH   5  23
ATOM     23  C   UNL     1      32.770 -22.776 -13.994  0.00  0.00    +0.039 C 
BRANCH  23  24
ATOM     24  C   UNL     1      31.458 -23.313 -13.451  0.00  0.00    +0.112 C 
BRANCH  24  26
ATOM     25  O   UNL     1      29.753 -22.352 -14.864  0.00  0.00    -0.250 OA
ATOM     26  C   UNL     1      30.379 -23.341 -14.504  0.00  0.00    +0.314 C 
BRANCH  26  27
ATOM     27  O   UNL     1      30.191 -24.575 -15.035  0.00  0.00    -0.480 OA
ATOM     28  H   UNL     1      29.606 -25.178 -14.623  0.00  0.00    +0.295 HD
ENDBRANCH  26  27
ENDBRANCH  24  26
ENDBRANCH  23  24
ENDBRANCH   5  23
TORSDOF 5
ENDMDL
MODEL 8
REMARK VINA RESULT:      -6.2      1.716      8.000
REMARK  Name = 656615
REMARK  5 active torsions:
REMARK  status: ('A' for Active; 'I' for Inactive)
REMARK    1  A    between atoms: C_5  and  O_21
REMARK    2  A    between atoms: C_5  and  C_23
REMARK    3  A    between atoms: C_23  and  C_24
REMARK    4  A    between atoms: C_24  and  C_26
REMARK    5  A    between atoms: C_26  and  O_27
REMARK                            x       y       z     vdW  Elec       q    Type
REMARK                         _______ _______ _______ _____ _____    ______ ____
ROOT
ATOM      1  O   UNL     1      34.530 -24.118 -11.824  0.00  0.00    -0.291 OA
ATOM      2  C   UNL     1      35.302 -21.233 -19.842  0.00  0.00    +0.023 C 
ATOM      3  C   UNL     1      33.980 -21.352 -19.042  0.00  0.00    +0.006 C 
ATOM      4  C   UNL     1      33.990 -22.539 -18.068  0.00  0.00    +0.022 C 
ATOM      5  C   UNL     1      34.954 -20.047 -20.794  0.00  0.00    +0.089 C 
ATOM      6  C   UNL     1      35.154 -22.313 -17.048  0.00  0.00    +0.008 C 
ATOM      7  C   UNL     1      36.452 -21.014 -18.843  0.00  0.00    +0.002 C 
ATOM      8  C   UNL     1      32.909 -21.294 -20.127  0.00  0.00    +0.003 C 
ATOM      9  C   UNL     1      36.509 -22.123 -17.773  0.00  0.00    +0.001 C 
ATOM     10  C   UNL     1      33.478 -20.328 -21.184  0.00  0.00    +0.027 C 
ATOM     11  C   UNL     1      35.144 -23.396 -15.909  0.00  0.00    +0.020 C 
ATOM     12  C   UNL     1      35.628 -22.496 -20.694  0.00  0.00    +0.002 C 
ATOM     13  C   UNL     1      32.684 -22.731 -17.344  0.00  0.00    -0.027 C 
ATOM     14  C   UNL     1      33.768 -23.382 -15.227  0.00  0.00    -0.020 C 
ATOM     15  C   UNL     1      36.231 -23.050 -14.855  0.00  0.00    +0.012 C 
ATOM     16  C   UNL     1      35.412 -24.814 -16.467  0.00  0.00    +0.004 C 
ATOM     17  C   UNL     1      32.606 -23.101 -16.058  0.00  0.00    -0.009 C 
ATOM     18  C   UNL     1      36.130 -23.886 -13.586  0.00  0.00    +0.069 C 
ATOM     19  C   UNL     1      33.593 -23.591 -13.911  0.00  0.00    +0.033 C 
ATOM     20  C   UNL     1      34.738 -23.867 -13.011  0.00  0.00    +0.173 C 
ENDROOT
BRANCH   5  21
ATOM     21  O   UNL     1      35.776 -20.066 -21.959  0.00  0.00    -0.387 OA
ATOM     22  H   UNL     1      35.676 -20.919 -22.410  0.00  0.00    +0.210 HD
ENDBRANCH   5  21
BRANCH   5  23
ATOM     23  C   UNL     1      35.095 -18.648 -20.181  0.00  0.00    +0.039 C 
BRANCH  23  24
ATOM     24  C   UNL     1      35.359 -17.580 -21.228  0.00  0.00    +0.112 C 
BRANCH  24  26
ATOM     25  O   UNL     1      35.034 -15.451 -20.138  0.00  0.00    -0.250 OA
ATOM     26  C   UNL     1      34.627 -16.297 -20.924  0.00  0.00    +0.314 C 
BRANCH  26  27
ATOM     27  O   UNL     1      33.480 -16.163 -21.635  0.00  0.00    -0.480 OA
ATOM     28  H   UNL     1      33.408 -15.495 -22.287  0.00  0.00    +0.295 HD
ENDBRANCH  26  27
ENDBRANCH  24  26
ENDBRANCH  23  24
ENDBRANCH   5  23
TORSDOF 5
ENDMDL
MODEL 9
REMARK VINA RESULT:      -6.1     11.932     15.774
REMARK  Name = 656615
REMARK  5 active torsions:
REMARK  status: ('A' for Active; 'I' for Inactive)
REMARK    1  A    between atoms: C_5  and  O_21
REMARK    2  A    between atoms: C_5  and  C_23
REMARK    3  A    between atoms: C_23  and  C_24
REMARK    4  A    between atoms: C_24  and  C_26
REMARK    5  A    between atoms: C_26  and  O_27
REMARK                            x       y       z     vdW  Elec       q    Type
REMARK                         _______ _______ _______ _____ _____    ______ ____
ROOT
ATOM      1  O   UNL     1      31.652  -4.206 -24.443  0.00  0.00    -0.291 OA
ATOM      2  C   UNL     1      33.697 -12.481 -23.710  0.00  0.00    +0.023 C 
ATOM      3  C   UNL     1      32.440 -11.799 -23.115  0.00  0.00    +0.006 C 
ATOM      4  C   UNL     1      32.701 -10.342 -22.707  0.00  0.00    +0.022 C 
ATOM      5  C   UNL     1      33.166 -13.934 -23.913  0.00  0.00    +0.089 C 
ATOM      6  C   UNL     1      33.117  -9.552 -23.991  0.00  0.00    +0.008 C 
ATOM      7  C   UNL     1      34.114 -11.706 -24.973  0.00  0.00    +0.002 C 
ATOM      8  C   UNL     1      31.974 -12.792 -22.054  0.00  0.00    +0.003 C 
ATOM      9  C   UNL     1      34.337 -10.207 -24.685  0.00  0.00    +0.001 C 
ATOM     10  C   UNL     1      32.306 -14.176 -22.644  0.00  0.00    +0.027 C 
ATOM     11  C   UNL     1      33.250  -8.012 -23.706  0.00  0.00    +0.020 C 
ATOM     12  C   UNL     1      34.910 -12.510 -22.732  0.00  0.00    +0.002 C 
ATOM     13  C   UNL     1      31.520  -9.685 -22.043  0.00  0.00    -0.027 C 
ATOM     14  C   UNL     1      31.924  -7.503 -23.120  0.00  0.00    -0.020 C 
ATOM     15  C   UNL     1      33.532  -7.262 -25.036  0.00  0.00    +0.012 C 
ATOM     16  C   UNL     1      34.389  -7.713 -22.703  0.00  0.00    +0.004 C 
ATOM     17  C   UNL     1      31.181  -8.405 -22.252  0.00  0.00    -0.009 C 
ATOM     18  C   UNL     1      33.420  -5.747 -24.911  0.00  0.00    +0.069 C 
ATOM     19  C   UNL     1      31.416  -6.289 -23.388  0.00  0.00    +0.033 C 
ATOM     20  C   UNL     1      32.118  -5.332 -24.275  0.00  0.00    +0.173 C 
ENDROOT
BRANCH   5  21
ATOM     21  O   UNL     1      34.239 -14.871 -23.958  0.00  0.00    -0.387 OA
ATOM     22  H   UNL     1      33.921 -15.740 -23.667  0.00  0.00    +0.210 HD
ENDBRANCH   5  21
BRANCH   5  23
ATOM     23  C   UNL     1      32.334 -14.159 -25.182  0.00  0.00    +0.039 C 
BRANCH  23  24
ATOM     24  C   UNL     1      33.161 -14.718 -26.326  0.00  0.00    +0.112 C 
BRANCH  24  26
ATOM     25  O   UNL     1      34.431 -13.491 -27.973  0.00  0.00    -0.250 OA
ATOM     26  C   UNL     1      33.355 -13.708 -27.430  0.00  0.00    +0.314 C 
BRANCH  26  27
ATOM     27  O   UNL     1      32.205 -13.080 -27.779  0.00  0.00    -0.480 OA
ATOM     28  H   UNL     1      31.940 -13.052 -28.677  0.00  0.00    +0.295 HD
ENDBRANCH  26  27
ENDBRANCH  24  26
ENDBRANCH  23  24
ENDBRANCH   5  23
TORSDOF 5
ENDMDL
