MODEL 1
REMARK VINA RESULT:      -7.6      0.000      0.000
REMARK  Name = 44129627
REMARK  8 active torsions:
REMARK  status: ('A' for Active; 'I' for Inactive)
REMARK    1  A    between atoms: N_1  and  C_2
REMARK    2  A    between atoms: N_1  and  O_11
REMARK    3  A    between atoms: C_2  and  C_3
REMARK    4  A    between atoms: C_4  and  O_9
REMARK    5  A    between atoms: O_11  and  C_12
REMARK    6  A    between atoms: C_12  and  C_13
REMARK    7  A    between atoms: C_13  and  C_15
REMARK    8  A    between atoms: C_15  and  O_16
REMARK                            x       y       z     vdW  Elec       q    Type
REMARK                         _______ _______ _______ _____ _____    ______ ____
ROOT
ATOM      1  C   UNL     1      33.280 -22.680 -18.168  0.00  0.00    +0.151 C 
ENDROOT
BRANCH   1   2
ATOM      2  C   UNL     1      33.886 -21.737 -19.099  0.00  0.00    +0.032 C 
ATOM      3  C   UNL     1      35.273 -21.602 -19.179  0.00  0.00    +0.136 C 
ATOM      4  C   UNL     1      33.061 -20.964 -19.915  0.00  0.00    +0.000 C 
ATOM      5  C   UNL     1      35.833 -20.692 -20.076  0.00  0.00    +0.037 C 
ATOM      6  C   UNL     1      33.622 -20.054 -20.811  0.00  0.00    -0.000 C 
ATOM      7  C   UNL     1      35.007 -19.918 -20.892  0.00  0.00    +0.003 C 
BRANCH   3   8
ATOM      8  O   UNL     1      36.095 -22.346 -18.388  0.00  0.00    -0.472 OA
ATOM      9  C   UNL     1      36.902 -21.640 -17.448  0.00  0.00    +0.252 C 
ENDBRANCH   3   8
ENDBRANCH   1   2
BRANCH   1  10
ATOM     10  N   UNL     1      32.043 -22.586 -17.774  0.00  0.00    -0.079 NA
BRANCH  10  11
ATOM     11  O   UNL     1      31.851 -23.412 -16.657  0.00  0.00    -0.265 OA
BRANCH  11  12
ATOM     12  C   UNL     1      30.781 -22.876 -15.893  0.00  0.00    +0.180 C 
BRANCH  12  13
ATOM     13  C   UNL     1      29.574 -23.789 -16.010  0.00  0.00    +0.144 C 
BRANCH  13  15
ATOM     14  O   UNL     1      28.366 -21.983 -17.069  0.00  0.00    -0.250 OA
ATOM     15  C   UNL     1      28.517 -23.187 -16.904  0.00  0.00    +0.316 C 
BRANCH  15  16
ATOM     16  O   UNL     1      27.756 -24.127 -17.518  0.00  0.00    -0.480 OA
ATOM     17  H   UNL     1      26.823 -24.096 -17.444  0.00  0.00    +0.295 HD
ENDBRANCH  15  16
ENDBRANCH  13  15
ENDBRANCH  12  13
ENDBRANCH  11  12
ENDBRANCH  10  11
ENDBRANCH   1  10
TORSDOF 8
ENDMDL
MODEL 2
REMARK VINA RESULT:      -7.4      4.135      7.297
REMARK  Name = 44129627
REMARK  8 active torsions:
REMARK  status: ('A' for Active; 'I' for Inactive)
REMARK    1  A    between atoms: N_1  and  C_2
REMARK    2  A    between atoms: N_1  and  O_11
REMARK    3  A    between atoms: C_2  and  C_3
REMARK    4  A    between atoms: C_4  and  O_9
REMARK    5  A    between atoms: O_11  and  C_12
REMARK    6  A    between atoms: C_12  and  C_13
REMARK    7  A    between atoms: C_13  and  C_15
REMARK    8  A    between atoms: C_15  and  O_16
REMARK                            x       y       z     vdW  Elec       q    Type
REMARK                         _______ _______ _______ _____ _____    ______ ____
ROOT
ATOM      1  C   UNL     1      37.243 -22.165 -16.046  0.00  0.00    +0.151 C 
ENDROOT
BRANCH   1   2
ATOM      2  C   UNL     1      36.202 -22.238 -17.063  0.00  0.00    +0.032 C 
ATOM      3  C   UNL     1      34.978 -22.851 -16.792  0.00  0.00    +0.136 C 
ATOM      4  C   UNL     1      36.442 -21.685 -18.320  0.00  0.00    +0.000 C 
ATOM      5  C   UNL     1      33.996 -22.912 -17.779  0.00  0.00    +0.037 C 
ATOM      6  C   UNL     1      35.459 -21.746 -19.308  0.00  0.00    -0.000 C 
ATOM      7  C   UNL     1      34.235 -22.359 -19.038  0.00  0.00    +0.003 C 
BRANCH   3   8
ATOM      8  O   UNL     1      34.726 -23.399 -15.570  0.00  0.00    -0.472 OA
ATOM      9  C   UNL     1      33.371 -23.388 -15.124  0.00  0.00    +0.252 C 
ENDBRANCH   3   8
ENDBRANCH   1   2
BRANCH   1  10
ATOM     10  N   UNL     1      38.073 -23.140 -15.815  0.00  0.00    -0.079 NA
BRANCH  10  11
ATOM     11  O   UNL     1      38.071 -23.434 -14.445  0.00  0.00    -0.265 OA
BRANCH  11  12
ATOM     12  C   UNL     1      37.934 -24.839 -14.295  0.00  0.00    +0.180 C 
BRANCH  12  13
ATOM     13  C   UNL     1      39.150 -25.388 -13.571  0.00  0.00    +0.144 C 
BRANCH  13  15
ATOM     14  O   UNL     1      41.151 -26.577 -14.219  0.00  0.00    -0.250 OA
ATOM     15  C   UNL     1      40.178 -25.910 -14.545  0.00  0.00    +0.316 C 
BRANCH  15  16
ATOM     16  O   UNL     1      39.900 -25.571 -15.828  0.00  0.00    -0.480 OA
ATOM     17  H   UNL     1      40.347 -24.853 -16.231  0.00  0.00    +0.295 HD
ENDBRANCH  15  16
ENDBRANCH  13  15
ENDBRANCH  12  13
ENDBRANCH  11  12
ENDBRANCH  10  11
ENDBRANCH   1  10
TORSDOF 8
ENDMDL
MODEL 3
REMARK VINA RESULT:      -7.4      4.443      7.332
REMARK  Name = 44129627
REMARK  8 active torsions:
REMARK  status: ('A' for Active; 'I' for Inactive)
REMARK    1  A    between atoms: N_1  and  C_2
REMARK    2  A    between atoms: N_1  and  O_11
REMARK    3  A    between atoms: C_2  and  C_3
REMARK    4  A    between atoms: C_4  and  O_9
REMARK    5  A    between atoms: O_11  and  C_12
REMARK    6  A    between atoms: C_12  and  C_13
REMARK    7  A    between atoms: C_13  and  C_15
REMARK    8  A    between atoms: C_15  and  O_16
REMARK                            x       y       z     vdW  Elec       q    Type
REMARK                         _______ _______ _______ _____ _____    ______ ____
ROOT
ATOM      1  C   UNL     1      37.230 -22.219 -16.007  0.00  0.00    +0.151 C 
ENDROOT
BRANCH   1   2
ATOM      2  C   UNL     1      35.970 -22.455 -16.699  0.00  0.00    +0.032 C 
ATOM      3  C   UNL     1      35.784 -22.027 -18.013  0.00  0.00    +0.136 C 
ATOM      4  C   UNL     1      34.942 -23.119 -16.029  0.00  0.00    +0.000 C 
ATOM      5  C   UNL     1      34.569 -22.261 -18.657  0.00  0.00    +0.037 C 
ATOM      6  C   UNL     1      33.727 -23.353 -16.673  0.00  0.00    -0.000 C 
ATOM      7  C   UNL     1      33.540 -22.924 -17.988  0.00  0.00    +0.003 C 
BRANCH   3   8
ATOM      8  O   UNL     1      36.775 -21.375 -18.684  0.00  0.00    -0.472 OA
ATOM      9  C   UNL     1      36.447 -20.840 -19.964  0.00  0.00    +0.252 C 
ENDBRANCH   3   8
ENDBRANCH   1   2
BRANCH   1  10
ATOM     10  N   UNL     1      38.091 -23.165 -15.767  0.00  0.00    -0.079 NA
BRANCH  10  11
ATOM     11  O   UNL     1      38.071 -23.472 -14.399  0.00  0.00    -0.265 OA
BRANCH  11  12
ATOM     12  C   UNL     1      37.962 -24.881 -14.265  0.00  0.00    +0.180 C 
BRANCH  12  13
ATOM     13  C   UNL     1      39.186 -25.412 -13.542  0.00  0.00    +0.144 C 
BRANCH  13  15
ATOM     14  O   UNL     1      41.191 -26.596 -14.190  0.00  0.00    -0.250 OA
ATOM     15  C   UNL     1      40.215 -25.933 -14.516  0.00  0.00    +0.316 C 
BRANCH  15  16
ATOM     16  O   UNL     1      39.934 -25.596 -15.800  0.00  0.00    -0.480 OA
ATOM     17  H   UNL     1      39.044 -25.514 -16.078  0.00  0.00    +0.295 HD
ENDBRANCH  15  16
ENDBRANCH  13  15
ENDBRANCH  12  13
ENDBRANCH  11  12
ENDBRANCH  10  11
ENDBRANCH   1  10
TORSDOF 8
ENDMDL
MODEL 4
REMARK VINA RESULT:      -7.3      3.788      5.954
REMARK  Name = 44129627
REMARK  8 active torsions:
REMARK  status: ('A' for Active; 'I' for Inactive)
REMARK    1  A    between atoms: N_1  and  C_2
REMARK    2  A    between atoms: N_1  and  O_11
REMARK    3  A    between atoms: C_2  and  C_3
REMARK    4  A    between atoms: C_4  and  O_9
REMARK    5  A    between atoms: O_11  and  C_12
REMARK    6  A    between atoms: C_12  and  C_13
REMARK    7  A    between atoms: C_13  and  C_15
REMARK    8  A    between atoms: C_15  and  O_16
REMARK                            x       y       z     vdW  Elec       q    Type
REMARK                         _______ _______ _______ _____ _____    ______ ____
ROOT
ATOM      1  C   UNL     1      35.342 -18.981 -21.126  0.00  0.00    +0.151 C 
ENDROOT
BRANCH   1   2
ATOM      2  C   UNL     1      35.042 -18.345 -22.402  0.00  0.00    +0.032 C 
ATOM      3  C   UNL     1      34.912 -16.960 -22.499  0.00  0.00    +0.136 C 
ATOM      4  C   UNL     1      34.883 -19.142 -23.536  0.00  0.00    +0.000 C 
ATOM      5  C   UNL     1      34.623 -16.372 -23.730  0.00  0.00    +0.037 C 
ATOM      6  C   UNL     1      34.593 -18.554 -24.767  0.00  0.00    -0.000 C 
ATOM      7  C   UNL     1      34.463 -17.168 -24.864  0.00  0.00    +0.003 C 
BRANCH   3   8
ATOM      8  O   UNL     1      35.061 -16.165 -21.403  0.00  0.00    -0.472 OA
ATOM      9  C   UNL     1      33.988 -15.278 -21.096  0.00  0.00    +0.252 C 
ENDBRANCH   3   8
ENDBRANCH   1   2
BRANCH   1  10
ATOM     10  N   UNL     1      36.557 -19.157 -20.694  0.00  0.00    -0.079 NA
BRANCH  10  11
ATOM     11  O   UNL     1      36.538 -20.057 -19.619  0.00  0.00    -0.265 OA
BRANCH  11  12
ATOM     12  C   UNL     1      35.943 -21.266 -20.065  0.00  0.00    +0.180 C 
BRANCH  12  13
ATOM     13  C   UNL     1      35.240 -21.939 -18.900  0.00  0.00    +0.144 C 
BRANCH  13  15
ATOM     14  O   UNL     1      32.973 -21.874 -19.737  0.00  0.00    -0.250 OA
ATOM     15  C   UNL     1      33.920 -22.533 -19.327  0.00  0.00    +0.316 C 
BRANCH  15  16
ATOM     16  O   UNL     1      33.898 -23.885 -19.220  0.00  0.00    -0.480 OA
ATOM     17  H   UNL     1      34.653 -24.386 -19.459  0.00  0.00    +0.295 HD
ENDBRANCH  15  16
ENDBRANCH  13  15
ENDBRANCH  12  13
ENDBRANCH  11  12
ENDBRANCH  10  11
ENDBRANCH   1  10
TORSDOF 8
ENDMDL
MODEL 5
REMARK VINA RESULT:      -7.3      4.244      7.776
REMARK  Name = 44129627
REMARK  8 active torsions:
REMARK  status: ('A' for Active; 'I' for Inactive)
REMARK    1  A    between atoms: N_1  and  C_2
REMARK    2  A    between atoms: N_1  and  O_11
REMARK    3  A    between atoms: C_2  and  C_3
REMARK    4  A    between atoms: C_4  and  O_9
REMARK    5  A    between atoms: O_11  and  C_12
REMARK    6  A    between atoms: C_12  and  C_13
REMARK    7  A    between atoms: C_13  and  C_15
REMARK    8  A    between atoms: C_15  and  O_16
REMARK                            x       y       z     vdW  Elec       q    Type
REMARK                         _______ _______ _______ _____ _____    ______ ____
ROOT
ATOM      1  C   UNL     1      35.414 -24.031 -15.242  0.00  0.00    +0.151 C 
ENDROOT
BRANCH   1   2
ATOM      2  C   UNL     1      34.003 -23.703 -15.400  0.00  0.00    +0.032 C 
ATOM      3  C   UNL     1      33.478 -23.382 -16.652  0.00  0.00    +0.136 C 
ATOM      4  C   UNL     1      33.174 -23.714 -14.278  0.00  0.00    +0.000 C 
ATOM      5  C   UNL     1      32.125 -23.069 -16.781  0.00  0.00    +0.037 C 
ATOM      6  C   UNL     1      31.821 -23.401 -14.408  0.00  0.00    -0.000 C 
ATOM      7  C   UNL     1      31.296 -23.079 -15.659  0.00  0.00    +0.003 C 
BRANCH   3   8
ATOM      8  O   UNL     1      34.272 -23.364 -17.759  0.00  0.00    -0.472 OA
ATOM      9  C   UNL     1      33.889 -22.486 -18.816  0.00  0.00    +0.252 C 
ENDBRANCH   3   8
ENDBRANCH   1   2
BRANCH   1  10
ATOM     10  N   UNL     1      35.873 -25.244 -15.352  0.00  0.00    -0.079 NA
BRANCH  10  11
ATOM     11  O   UNL     1      37.270 -25.200 -15.460  0.00  0.00    -0.265 OA
BRANCH  11  12
ATOM     12  C   UNL     1      37.816 -26.042 -14.457  0.00  0.00    +0.180 C 
BRANCH  12  13
ATOM     13  C   UNL     1      39.113 -25.440 -13.948  0.00  0.00    +0.144 C 
BRANCH  13  15
ATOM     14  O   UNL     1      41.214 -26.622 -14.126  0.00  0.00    -0.250 OA
ATOM     15  C   UNL     1      40.305 -26.012 -14.675  0.00  0.00    +0.316 C 
BRANCH  15  16
ATOM     16  O   UNL     1      40.257 -25.788 -16.012  0.00  0.00    -0.480 OA
ATOM     17  H   UNL     1      40.226 -24.911 -16.339  0.00  0.00    +0.295 HD
ENDBRANCH  15  16
ENDBRANCH  13  15
ENDBRANCH  12  13
ENDBRANCH  11  12
ENDBRANCH  10  11
ENDBRANCH   1  10
TORSDOF 8
ENDMDL
MODEL 6
REMARK VINA RESULT:      -7.2      4.981      7.017
REMARK  Name = 44129627
REMARK  8 active torsions:
REMARK  status: ('A' for Active; 'I' for Inactive)
REMARK    1  A    between atoms: N_1  and  C_2
REMARK    2  A    between atoms: N_1  and  O_11
REMARK    3  A    between atoms: C_2  and  C_3
REMARK    4  A    between atoms: C_4  and  O_9
REMARK    5  A    between atoms: O_11  and  C_12
REMARK    6  A    between atoms: C_12  and  C_13
REMARK    7  A    between atoms: C_13  and  C_15
REMARK    8  A    between atoms: C_15  and  O_16
REMARK                            x       y       z     vdW  Elec       q    Type
REMARK                         _______ _______ _______ _____ _____    ______ ____
ROOT
ATOM      1  C   UNL     1      34.898 -16.693 -20.883  0.00  0.00    +0.151 C 
ENDROOT
BRANCH   1   2
ATOM      2  C   UNL     1      34.147 -15.561 -21.411  0.00  0.00    +0.032 C 
ATOM      3  C   UNL     1      34.356 -15.109 -22.715  0.00  0.00    +0.136 C 
ATOM      4  C   UNL     1      33.210 -14.928 -20.595  0.00  0.00    +0.000 C 
ATOM      5  C   UNL     1      33.628 -14.023 -23.200  0.00  0.00    +0.037 C 
ATOM      6  C   UNL     1      32.482 -13.842 -21.081  0.00  0.00    -0.000 C 
ATOM      7  C   UNL     1      32.691 -13.389 -22.383  0.00  0.00    +0.003 C 
BRANCH   3   8
ATOM      8  O   UNL     1      35.268 -15.712 -23.527  0.00  0.00    -0.472 OA
ATOM      9  C   UNL     1      34.758 -16.518 -24.587  0.00  0.00    +0.252 C 
ENDBRANCH   3   8
ENDBRANCH   1   2
BRANCH   1  10
ATOM     10  N   UNL     1      34.540 -17.929 -21.077  0.00  0.00    -0.079 NA
BRANCH  10  11
ATOM     11  O   UNL     1      35.537 -18.781 -20.582  0.00  0.00    -0.265 OA
BRANCH  11  12
ATOM     12  C   UNL     1      35.250 -20.099 -21.024  0.00  0.00    +0.180 C 
BRANCH  12  13
ATOM     13  C   UNL     1      34.929 -20.972 -19.824  0.00  0.00    +0.144 C 
BRANCH  13  15
ATOM     14  O   UNL     1      32.996 -22.373 -19.452  0.00  0.00    -0.250 OA
ATOM     15  C   UNL     1      33.453 -21.277 -19.748  0.00  0.00    +0.316 C 
BRANCH  15  16
ATOM     16  O   UNL     1      32.682 -20.197 -20.030  0.00  0.00    -0.480 OA
ATOM     17  H   UNL     1      32.017 -19.926 -19.429  0.00  0.00    +0.295 HD
ENDBRANCH  15  16
ENDBRANCH  13  15
ENDBRANCH  12  13
ENDBRANCH  11  12
ENDBRANCH  10  11
ENDBRANCH   1  10
TORSDOF 8
ENDMDL
MODEL 7
REMARK VINA RESULT:      -7.2      7.657     10.309
REMARK  Name = 44129627
REMARK  8 active torsions:
REMARK  status: ('A' for Active; 'I' for Inactive)
REMARK    1  A    between atoms: N_1  and  C_2
REMARK    2  A    between atoms: N_1  and  O_11
REMARK    3  A    between atoms: C_2  and  C_3
REMARK    4  A    between atoms: C_4  and  O_9
REMARK    5  A    between atoms: O_11  and  C_12
REMARK    6  A    between atoms: C_12  and  C_13
REMARK    7  A    between atoms: C_13  and  C_15
REMARK    8  A    between atoms: C_15  and  O_16
REMARK                            x       y       z     vdW  Elec       q    Type
REMARK                         _______ _______ _______ _____ _____    ______ ____
ROOT
ATOM      1  C   UNL     1      34.692 -16.621 -25.152  0.00  0.00    +0.151 C 
ENDROOT
BRANCH   1   2
ATOM      2  C   UNL     1      34.803 -17.350 -23.895  0.00  0.00    +0.032 C 
ATOM      3  C   UNL     1      34.939 -16.672 -22.683  0.00  0.00    +0.136 C 
ATOM      4  C   UNL     1      34.772 -18.745 -23.915  0.00  0.00    +0.000 C 
ATOM      5  C   UNL     1      35.045 -17.389 -21.492  0.00  0.00    +0.037 C 
ATOM      6  C   UNL     1      34.879 -19.461 -22.723  0.00  0.00    -0.000 C 
ATOM      7  C   UNL     1      35.015 -18.784 -21.511  0.00  0.00    +0.003 C 
BRANCH   3   8
ATOM      8  O   UNL     1      34.973 -15.310 -22.644  0.00  0.00    -0.472 OA
ATOM      9  C   UNL     1      34.476 -14.685 -21.463  0.00  0.00    +0.252 C 
ENDBRANCH   3   8
ENDBRANCH   1   2
BRANCH   1  10
ATOM     10  N   UNL     1      33.551 -16.238 -25.647  0.00  0.00    -0.079 NA
BRANCH  10  11
ATOM     11  O   UNL     1      33.782 -15.322 -26.683  0.00  0.00    -0.265 OA
BRANCH  11  12
ATOM     12  C   UNL     1      32.742 -14.355 -26.656  0.00  0.00    +0.180 C 
BRANCH  12  13
ATOM     13  C   UNL     1      33.342 -12.969 -26.814  0.00  0.00    +0.144 C 
BRANCH  13  15
ATOM     14  O   UNL     1      34.156 -11.253 -25.320  0.00  0.00    -0.250 OA
ATOM     15  C   UNL     1      33.771 -12.404 -25.482  0.00  0.00    +0.316 C 
BRANCH  15  16
ATOM     16  O   UNL     1      33.672 -13.307 -24.476  0.00  0.00    -0.480 OA
ATOM     17  H   UNL     1      32.946 -13.899 -24.447  0.00  0.00    +0.295 HD
ENDBRANCH  15  16
ENDBRANCH  13  15
ENDBRANCH  12  13
ENDBRANCH  11  12
ENDBRANCH  10  11
ENDBRANCH   1  10
TORSDOF 8
ENDMDL
MODEL 8
REMARK VINA RESULT:      -7.1      1.710      2.417
REMARK  Name = 44129627
REMARK  8 active torsions:
REMARK  status: ('A' for Active; 'I' for Inactive)
REMARK    1  A    between atoms: N_1  and  C_2
REMARK    2  A    between atoms: N_1  and  O_11
REMARK    3  A    between atoms: C_2  and  C_3
REMARK    4  A    between atoms: C_4  and  O_9
REMARK    5  A    between atoms: O_11  and  C_12
REMARK    6  A    between atoms: C_12  and  C_13
REMARK    7  A    between atoms: C_13  and  C_15
REMARK    8  A    between atoms: C_15  and  O_16
REMARK                            x       y       z     vdW  Elec       q    Type
REMARK                         _______ _______ _______ _____ _____    ______ ____
ROOT
ATOM      1  C   UNL     1      33.173 -23.036 -17.738  0.00  0.00    +0.151 C 
ENDROOT
BRANCH   1   2
ATOM      2  C   UNL     1      33.873 -22.134 -18.643  0.00  0.00    +0.032 C 
ATOM      3  C   UNL     1      35.258 -21.980 -18.571  0.00  0.00    +0.136 C 
ATOM      4  C   UNL     1      33.140 -21.420 -19.591  0.00  0.00    +0.000 C 
ATOM      5  C   UNL     1      35.908 -21.111 -19.446  0.00  0.00    +0.037 C 
ATOM      6  C   UNL     1      33.791 -20.550 -20.466  0.00  0.00    -0.000 C 
ATOM      7  C   UNL     1      35.175 -20.396 -20.394  0.00  0.00    +0.003 C 
BRANCH   3   8
ATOM      8  O   UNL     1      35.991 -22.667 -17.651  0.00  0.00    -0.472 OA
ATOM      9  C   UNL     1      36.960 -21.926 -16.912  0.00  0.00    +0.252 C 
ENDBRANCH   3   8
ENDBRANCH   1   2
BRANCH   1  10
ATOM     10  N   UNL     1      32.015 -22.753 -17.217  0.00  0.00    -0.079 NA
BRANCH  10  11
ATOM     11  O   UNL     1      31.835 -23.511 -16.051  0.00  0.00    -0.265 OA
BRANCH  11  12
ATOM     12  C   UNL     1      30.461 -23.856 -15.957  0.00  0.00    +0.180 C 
BRANCH  12  13
ATOM     13  C   UNL     1      30.308 -25.064 -15.052  0.00  0.00    +0.144 C 
BRANCH  13  15
ATOM     14  O   UNL     1      30.697 -24.287 -12.797  0.00  0.00    -0.250 OA
ATOM     15  C   UNL     1      31.100 -24.899 -13.778  0.00  0.00    +0.316 C 
BRANCH  15  16
ATOM     16  O   UNL     1      32.307 -25.514 -13.831  0.00  0.00    -0.480 OA
ATOM     17  H   UNL     1      32.687 -25.731 -14.660  0.00  0.00    +0.295 HD
ENDBRANCH  15  16
ENDBRANCH  13  15
ENDBRANCH  12  13
ENDBRANCH  11  12
ENDBRANCH  10  11
ENDBRANCH   1  10
TORSDOF 8
ENDMDL
MODEL 9
REMARK VINA RESULT:      -7.1      6.423      8.724
REMARK  Name = 44129627
REMARK  8 active torsions:
REMARK  status: ('A' for Active; 'I' for Inactive)
REMARK    1  A    between atoms: N_1  and  C_2
REMARK    2  A    between atoms: N_1  and  O_11
REMARK    3  A    between atoms: C_2  and  C_3
REMARK    4  A    between atoms: C_4  and  O_9
REMARK    5  A    between atoms: O_11  and  C_12
REMARK    6  A    between atoms: C_12  and  C_13
REMARK    7  A    between atoms: C_13  and  C_15
REMARK    8  A    between atoms: C_15  and  O_16
REMARK                            x       y       z     vdW  Elec       q    Type
REMARK                         _______ _______ _______ _____ _____    ______ ____
ROOT
ATOM      1  C   UNL     1      33.807 -16.236 -21.178  0.00  0.00    +0.151 C 
ENDROOT
BRANCH   1   2
ATOM      2  C   UNL     1      33.284 -14.979 -21.695  0.00  0.00    +0.032 C 
ATOM      3  C   UNL     1      33.488 -14.611 -23.026  0.00  0.00    +0.136 C 
ATOM      4  C   UNL     1      32.572 -14.137 -20.840  0.00  0.00    +0.000 C 
ATOM      5  C   UNL     1      32.981 -13.402 -23.500  0.00  0.00    +0.037 C 
ATOM      6  C   UNL     1      32.065 -12.928 -21.315  0.00  0.00    -0.000 C 
ATOM      7  C   UNL     1      32.269 -12.560 -22.645  0.00  0.00    +0.003 C 
BRANCH   3   8
ATOM      8  O   UNL     1      34.184 -15.418 -23.875  0.00  0.00    -0.472 OA
ATOM      9  C   UNL     1      33.657 -15.580 -25.190  0.00  0.00    +0.252 C 
ENDBRANCH   3   8
ENDBRANCH   1   2
BRANCH   1  10
ATOM     10  N   UNL     1      35.007 -16.354 -20.689  0.00  0.00    -0.079 NA
BRANCH  10  11
ATOM     11  O   UNL     1      35.378 -17.706 -20.696  0.00  0.00    -0.265 OA
BRANCH  11  12
ATOM     12  C   UNL     1      34.303 -18.455 -21.241  0.00  0.00    +0.180 C 
BRANCH  12  13
ATOM     13  C   UNL     1      34.844 -19.441 -22.261  0.00  0.00    +0.144 C 
BRANCH  13  15
ATOM     14  O   UNL     1      34.574 -19.109 -24.639  0.00  0.00    -0.250 OA
ATOM     15  C   UNL     1      35.101 -18.770 -23.588  0.00  0.00    +0.316 C 
BRANCH  15  16
ATOM     16  O   UNL     1      35.974 -17.737 -23.489  0.00  0.00    -0.480 OA
ATOM     17  H   UNL     1      36.847 -17.827 -23.818  0.00  0.00    +0.295 HD
ENDBRANCH  15  16
ENDBRANCH  13  15
ENDBRANCH  12  13
ENDBRANCH  11  12
ENDBRANCH  10  11
ENDBRANCH   1  10
TORSDOF 8
ENDMDL
