MODEL 1
REMARK VINA RESULT:     -10.1      0.000      0.000
REMARK  Name = 2766552
REMARK  3 active torsions:
REMARK  status: ('A' for Active; 'I' for Inactive)
REMARK    1  A    between atoms: N_1  and  C_16
REMARK    2  A    between atoms: C_5  and  C_10
REMARK    3  A    between atoms: C_16  and  C_19
REMARK                            x       y       z     vdW  Elec       q    Type
REMARK                         _______ _______ _______ _____ _____    ______ ____
ROOT
ATOM      1  N   UNL     1      35.135 -17.382 -22.773  0.00  0.00    -0.276 N 
ATOM      2  N   UNL     1      34.585 -19.504 -22.979  0.00  0.00    -0.391 NA
ATOM      3  C   UNL     1      34.677 -18.351 -23.603  0.00  0.00    +0.161 C 
ATOM      4  C   UNL     1      35.353 -17.921 -21.550  0.00  0.00    +0.155 C 
ATOM      5  C   UNL     1      35.005 -19.243 -21.698  0.00  0.00    +0.160 C 
ATOM      6  C   UNL     1      34.337 -18.100 -25.019  0.00  0.00    +0.084 C 
ENDROOT
BRANCH   5  10
ATOM      7  N   UNL     1      33.884 -20.723 -20.244  0.00  0.00    -0.335 NA
ATOM      8  N   UNL     1      35.084 -22.107 -18.678  0.00  0.00    -0.170 NA
ATOM      9  N   UNL     1      32.742 -22.186 -18.808  0.00  0.00    -0.293 N 
ATOM     10  C   UNL     1      35.068 -20.225 -20.661  0.00  0.00    +0.173 C 
ATOM     11  C   UNL     1      36.286 -20.616 -20.137  0.00  0.00    +0.057 C 
ATOM     12  C   UNL     1      36.232 -21.569 -19.140  0.00  0.00    +0.114 C 
ATOM     13  C   UNL     1      33.963 -21.645 -19.266  0.00  0.00    +0.141 C 
ATOM     14  H   UNL     1      31.892 -21.886 -19.203  0.00  0.00    +0.155 HD
ATOM     15  H   UNL     1      32.741 -22.864 -18.095  0.00  0.00    +0.155 HD
ENDBRANCH   5  10
BRANCH   1  16
ATOM     16  C   UNL     1      35.362 -15.978 -23.124  0.00  0.00    +0.122 C 
BRANCH  16  19
ATOM     17 CL   UNL     1      34.958 -15.479 -20.140  0.00  0.00    -0.082 Cl
ATOM     18 CL   UNL     1      33.632 -14.899 -25.396  0.00  0.00    -0.082 Cl
ATOM     19  C   UNL     1      34.198 -15.117 -22.735  0.00  0.00    +0.019 C 
ATOM     20  C   UNL     1      33.952 -14.844 -21.390  0.00  0.00    +0.056 C 
ATOM     21  C   UNL     1      33.363 -14.587 -23.719  0.00  0.00    +0.056 C 
ATOM     22  C   UNL     1      32.869 -14.041 -21.028  0.00  0.00    +0.011 C 
ATOM     23  C   UNL     1      32.281 -13.785 -23.357  0.00  0.00    +0.011 C 
ATOM     24  C   UNL     1      32.034 -13.512 -22.011  0.00  0.00    +0.002 C 
ENDBRANCH  16  19
ENDBRANCH   1  16
TORSDOF 3
ENDMDL
MODEL 2
REMARK VINA RESULT:     -10.1      0.016      1.940
REMARK  Name = 2766552
REMARK  3 active torsions:
REMARK  status: ('A' for Active; 'I' for Inactive)
REMARK    1  A    between atoms: N_1  and  C_16
REMARK    2  A    between atoms: C_5  and  C_10
REMARK    3  A    between atoms: C_16  and  C_19
REMARK                            x       y       z     vdW  Elec       q    Type
REMARK                         _______ _______ _______ _____ _____    ______ ____
ROOT
ATOM      1  N   UNL     1      35.139 -17.389 -22.766  0.00  0.00    -0.276 N 
ATOM      2  N   UNL     1      34.585 -19.510 -22.972  0.00  0.00    -0.391 NA
ATOM      3  C   UNL     1      34.680 -18.357 -23.596  0.00  0.00    +0.161 C 
ATOM      4  C   UNL     1      35.355 -17.928 -21.542  0.00  0.00    +0.155 C 
ATOM      5  C   UNL     1      35.004 -19.250 -21.691  0.00  0.00    +0.160 C 
ATOM      6  C   UNL     1      34.342 -18.106 -25.012  0.00  0.00    +0.084 C 
ENDROOT
BRANCH   5  10
ATOM      7  N   UNL     1      33.878 -20.725 -20.235  0.00  0.00    -0.335 NA
ATOM      8  N   UNL     1      35.075 -22.113 -18.670  0.00  0.00    -0.170 NA
ATOM      9  N   UNL     1      32.732 -22.182 -18.797  0.00  0.00    -0.293 N 
ATOM     10  C   UNL     1      35.064 -20.231 -20.654  0.00  0.00    +0.173 C 
ATOM     11  C   UNL     1      36.281 -20.628 -20.131  0.00  0.00    +0.057 C 
ATOM     12  C   UNL     1      36.224 -21.580 -19.133  0.00  0.00    +0.114 C 
ATOM     13  C   UNL     1      33.955 -21.647 -19.256  0.00  0.00    +0.141 C 
ATOM     14  H   UNL     1      31.883 -21.878 -19.191  0.00  0.00    +0.155 HD
ATOM     15  H   UNL     1      32.729 -22.860 -18.083  0.00  0.00    +0.155 HD
ENDBRANCH   5  10
BRANCH   1  16
ATOM     16  C   UNL     1      35.369 -15.986 -23.117  0.00  0.00    +0.122 C 
BRANCH  16  19
ATOM     17 CL   UNL     1      33.658 -14.909 -25.404  0.00  0.00    -0.082 Cl
ATOM     18 CL   UNL     1      34.943 -15.482 -20.136  0.00  0.00    -0.082 Cl
ATOM     19  C   UNL     1      34.203 -15.124 -22.739  0.00  0.00    +0.019 C 
ATOM     20  C   UNL     1      33.376 -14.596 -23.730  0.00  0.00    +0.056 C 
ATOM     21  C   UNL     1      33.945 -14.849 -21.395  0.00  0.00    +0.056 C 
ATOM     22  C   UNL     1      32.290 -13.794 -23.377  0.00  0.00    +0.011 C 
ATOM     23  C   UNL     1      32.859 -14.047 -21.044  0.00  0.00    +0.011 C 
ATOM     24  C   UNL     1      32.032 -13.519 -22.035  0.00  0.00    +0.002 C 
ENDBRANCH  16  19
ENDBRANCH   1  16
TORSDOF 3
ENDMDL
MODEL 3
REMARK VINA RESULT:      -9.8      3.959      6.480
REMARK  Name = 2766552
REMARK  3 active torsions:
REMARK  status: ('A' for Active; 'I' for Inactive)
REMARK    1  A    between atoms: N_1  and  C_16
REMARK    2  A    between atoms: C_5  and  C_10
REMARK    3  A    between atoms: C_16  and  C_19
REMARK                            x       y       z     vdW  Elec       q    Type
REMARK                         _______ _______ _______ _____ _____    ______ ____
ROOT
ATOM      1  N   UNL     1      32.209 -11.932 -22.268  0.00  0.00    -0.276 N 
ATOM      2  N   UNL     1      32.543 -13.400 -20.662  0.00  0.00    -0.391 NA
ATOM      3  C   UNL     1      31.980 -12.254 -20.972  0.00  0.00    +0.161 C 
ATOM      4  C   UNL     1      32.956 -12.909 -22.836  0.00  0.00    +0.155 C 
ATOM      5  C   UNL     1      33.154 -13.814 -21.819  0.00  0.00    +0.160 C 
ATOM      6  C   UNL     1      31.193 -11.398 -20.060  0.00  0.00    +0.084 C 
ENDROOT
BRANCH   5  10
ATOM      7  N   UNL     1      34.209 -15.409 -23.199  0.00  0.00    -0.335 NA
ATOM      8  N   UNL     1      35.316 -17.342 -22.278  0.00  0.00    -0.170 NA
ATOM      9  N   UNL     1      35.248 -16.982 -24.596  0.00  0.00    -0.293 N 
ATOM     10  C   UNL     1      33.897 -15.029 -21.941  0.00  0.00    +0.173 C 
ATOM     11  C   UNL     1      34.258 -15.748 -20.817  0.00  0.00    +0.057 C 
ATOM     12  C   UNL     1      34.972 -16.906 -21.049  0.00  0.00    +0.114 C 
ATOM     13  C   UNL     1      34.907 -16.557 -23.294  0.00  0.00    +0.141 C 
ATOM     14  H   UNL     1      34.976 -16.447 -25.376  0.00  0.00    +0.155 HD
ATOM     15  H   UNL     1      35.759 -17.814 -24.724  0.00  0.00    +0.155 HD
ENDBRANCH   5  10
BRANCH   1  16
ATOM     16  C   UNL     1      31.736 -10.730 -22.958  0.00  0.00    +0.122 C 
BRANCH  16  19
ATOM     17 CL   UNL     1      33.750 -11.301 -25.180  0.00  0.00    -0.082 Cl
ATOM     18 CL   UNL     1      31.740  -8.326 -21.076  0.00  0.00    -0.082 Cl
ATOM     19  C   UNL     1      32.836  -9.730 -23.144  0.00  0.00    +0.019 C 
ATOM     20  C   UNL     1      33.793  -9.923 -24.140  0.00  0.00    +0.056 C 
ATOM     21  C   UNL     1      32.903  -8.605 -22.321  0.00  0.00    +0.056 C 
ATOM     22  C   UNL     1      34.817  -8.992 -24.313  0.00  0.00    +0.011 C 
ATOM     23  C   UNL     1      33.927  -7.675 -22.495  0.00  0.00    +0.011 C 
ATOM     24  C   UNL     1      34.884  -7.868 -23.491  0.00  0.00    +0.002 C 
ENDBRANCH  16  19
ENDBRANCH   1  16
TORSDOF 3
ENDMDL
MODEL 4
REMARK VINA RESULT:      -9.8      3.940      6.281
REMARK  Name = 2766552
REMARK  3 active torsions:
REMARK  status: ('A' for Active; 'I' for Inactive)
REMARK    1  A    between atoms: N_1  and  C_16
REMARK    2  A    between atoms: C_5  and  C_10
REMARK    3  A    between atoms: C_16  and  C_19
REMARK                            x       y       z     vdW  Elec       q    Type
REMARK                         _______ _______ _______ _____ _____    ______ ____
ROOT
ATOM      1  N   UNL     1      32.224 -11.965 -22.298  0.00  0.00    -0.276 N 
ATOM      2  N   UNL     1      32.563 -13.426 -20.687  0.00  0.00    -0.391 NA
ATOM      3  C   UNL     1      32.001 -12.280 -21.000  0.00  0.00    +0.161 C 
ATOM      4  C   UNL     1      32.965 -12.947 -22.866  0.00  0.00    +0.155 C 
ATOM      5  C   UNL     1      33.166 -13.847 -21.846  0.00  0.00    +0.160 C 
ATOM      6  C   UNL     1      31.221 -11.418 -20.087  0.00  0.00    +0.084 C 
ENDROOT
BRANCH   5  10
ATOM      7  N   UNL     1      34.201 -15.457 -23.225  0.00  0.00    -0.335 NA
ATOM      8  N   UNL     1      35.315 -17.384 -22.300  0.00  0.00    -0.170 NA
ATOM      9  N   UNL     1      35.220 -17.044 -24.620  0.00  0.00    -0.293 N 
ATOM     10  C   UNL     1      33.906 -15.065 -21.967  0.00  0.00    +0.173 C 
ATOM     11  C   UNL     1      34.279 -15.775 -20.840  0.00  0.00    +0.057 C 
ATOM     12  C   UNL     1      34.988 -16.936 -21.070  0.00  0.00    +0.114 C 
ATOM     13  C   UNL     1      34.896 -16.607 -23.317  0.00  0.00    +0.141 C 
ATOM     14  H   UNL     1      34.939 -16.515 -25.401  0.00  0.00    +0.155 HD
ATOM     15  H   UNL     1      35.728 -17.878 -24.747  0.00  0.00    +0.155 HD
ENDBRANCH   5  10
BRANCH   1  16
ATOM     16  C   UNL     1      31.749 -10.766 -22.992  0.00  0.00    +0.122 C 
BRANCH  16  19
ATOM     17 CL   UNL     1      31.733  -8.372 -21.097  0.00  0.00    -0.082 Cl
ATOM     18 CL   UNL     1      33.775 -11.313 -25.209  0.00  0.00    -0.082 Cl
ATOM     19  C   UNL     1      32.846  -9.759 -23.168  0.00  0.00    +0.019 C 
ATOM     20  C   UNL     1      32.904  -8.640 -22.338  0.00  0.00    +0.056 C 
ATOM     21  C   UNL     1      33.808  -9.942 -24.161  0.00  0.00    +0.056 C 
ATOM     22  C   UNL     1      33.925  -7.703 -22.501  0.00  0.00    +0.011 C 
ATOM     23  C   UNL     1      34.829  -9.005 -24.323  0.00  0.00    +0.011 C 
ATOM     24  C   UNL     1      34.887  -7.885 -23.493  0.00  0.00    +0.002 C 
ENDBRANCH  16  19
ENDBRANCH   1  16
TORSDOF 3
ENDMDL
MODEL 5
REMARK VINA RESULT:      -9.4      3.909      6.223
REMARK  Name = 2766552
REMARK  3 active torsions:
REMARK  status: ('A' for Active; 'I' for Inactive)
REMARK    1  A    between atoms: N_1  and  C_16
REMARK    2  A    between atoms: C_5  and  C_10
REMARK    3  A    between atoms: C_16  and  C_19
REMARK                            x       y       z     vdW  Elec       q    Type
REMARK                         _______ _______ _______ _____ _____    ______ ____
ROOT
ATOM      1  N   UNL     1      32.266 -11.890 -22.773  0.00  0.00    -0.276 N 
ATOM      2  N   UNL     1      34.113 -12.761 -23.597  0.00  0.00    -0.391 NA
ATOM      3  C   UNL     1      33.299 -11.730 -23.636  0.00  0.00    +0.161 C 
ATOM      4  C   UNL     1      32.407 -13.078 -22.138  0.00  0.00    +0.155 C 
ATOM      5  C   UNL     1      33.563 -13.606 -22.665  0.00  0.00    +0.160 C 
ATOM      6  C   UNL     1      33.451 -10.535 -24.491  0.00  0.00    +0.084 C 
ENDROOT
BRANCH   5  10
ATOM      7  N   UNL     1      34.536 -15.653 -23.318  0.00  0.00    -0.335 NA
ATOM      8  N   UNL     1      35.213 -17.303 -21.697  0.00  0.00    -0.170 NA
ATOM      9  N   UNL     1      35.501 -17.681 -23.996  0.00  0.00    -0.293 N 
ATOM     10  C   UNL     1      34.125 -14.868 -22.298  0.00  0.00    +0.173 C 
ATOM     11  C   UNL     1      34.225 -15.233 -20.968  0.00  0.00    +0.057 C 
ATOM     12  C   UNL     1      34.782 -16.472 -20.726  0.00  0.00    +0.114 C 
ATOM     13  C   UNL     1      35.061 -16.838 -22.952  0.00  0.00    +0.141 C 
ATOM     14  H   UNL     1      35.416 -17.391 -24.932  0.00  0.00    +0.155 HD
ATOM     15  H   UNL     1      35.894 -18.559 -23.786  0.00  0.00    +0.155 HD
ENDBRANCH   5  10
BRANCH   1  16
ATOM     16  C   UNL     1      31.171 -10.945 -22.549  0.00  0.00    +0.122 C 
BRANCH  16  19
ATOM     17 CL   UNL     1      31.631 -11.522 -19.587  0.00  0.00    -0.082 Cl
ATOM     18 CL   UNL     1      31.501  -8.251 -23.948  0.00  0.00    -0.082 Cl
ATOM     19  C   UNL     1      31.602  -9.790 -21.696  0.00  0.00    +0.019 C 
ATOM     20  C   UNL     1      31.832  -9.978 -20.334  0.00  0.00    +0.056 C 
ATOM     21  C   UNL     1      31.774  -8.528 -22.266  0.00  0.00    +0.056 C 
ATOM     22  C   UNL     1      32.234  -8.903 -19.540  0.00  0.00    +0.011 C 
ATOM     23  C   UNL     1      32.176  -7.455 -21.472  0.00  0.00    +0.011 C 
ATOM     24  C   UNL     1      32.406  -7.642 -20.108  0.00  0.00    +0.002 C 
ENDBRANCH  16  19
ENDBRANCH   1  16
TORSDOF 3
ENDMDL
MODEL 6
REMARK VINA RESULT:      -9.1      4.842      8.514
REMARK  Name = 2766552
REMARK  3 active torsions:
REMARK  status: ('A' for Active; 'I' for Inactive)
REMARK    1  A    between atoms: N_1  and  C_16
REMARK    2  A    between atoms: C_5  and  C_10
REMARK    3  A    between atoms: C_16  and  C_19
REMARK                            x       y       z     vdW  Elec       q    Type
REMARK                         _______ _______ _______ _____ _____    ______ ____
ROOT
ATOM      1  N   UNL     1      33.121 -13.273 -24.595  0.00  0.00    -0.276 N 
ATOM      2  N   UNL     1      33.861 -11.501 -25.671  0.00  0.00    -0.391 NA
ATOM      3  C   UNL     1      33.560 -12.776 -25.776  0.00  0.00    +0.161 C 
ATOM      4  C   UNL     1      33.134 -12.282 -23.671  0.00  0.00    +0.155 C 
ATOM      5  C   UNL     1      33.598 -11.186 -24.361  0.00  0.00    +0.160 C 
ATOM      6  C   UNL     1      33.669 -13.596 -27.000  0.00  0.00    +0.084 C 
ENDROOT
BRANCH   5  10
ATOM      7  N   UNL     1      32.886  -9.509 -22.864  0.00  0.00    -0.335 NA
ATOM      8  N   UNL     1      34.061  -7.414 -22.662  0.00  0.00    -0.170 NA
ATOM      9  N   UNL     1      32.154  -7.857 -21.368  0.00  0.00    -0.293 N 
ATOM     10  C   UNL     1      33.786  -9.886 -23.797  0.00  0.00    +0.173 C 
ATOM     11  C   UNL     1      34.838  -9.088 -24.208  0.00  0.00    +0.057 C 
ATOM     12  C   UNL     1      34.926  -7.852 -23.600  0.00  0.00    +0.114 C 
ATOM     13  C   UNL     1      33.079  -8.281 -22.346  0.00  0.00    +0.141 C 
ATOM     14  H   UNL     1      31.416  -8.450 -21.098  0.00  0.00    +0.155 HD
ATOM     15  H   UNL     1      32.247  -6.968 -20.955  0.00  0.00    +0.155 HD
ENDBRANCH   5  10
BRANCH   1  16
ATOM     16  C   UNL     1      32.699 -14.652 -24.339  0.00  0.00    +0.122 C 
BRANCH  16  19
ATOM     17 CL   UNL     1      32.099 -13.925 -21.436  0.00  0.00    -0.082 Cl
ATOM     18 CL   UNL     1      34.857 -16.575 -25.321  0.00  0.00    -0.082 Cl
ATOM     19  C   UNL     1      33.549 -15.304 -23.290  0.00  0.00    +0.019 C 
ATOM     20  C   UNL     1      33.332 -15.022 -21.942  0.00  0.00    +0.056 C 
ATOM     21  C   UNL     1      34.556 -16.195 -23.663  0.00  0.00    +0.056 C 
ATOM     22  C   UNL     1      34.123 -15.630 -20.966  0.00  0.00    +0.011 C 
ATOM     23  C   UNL     1      35.345 -16.803 -22.688  0.00  0.00    +0.011 C 
ATOM     24  C   UNL     1      35.129 -16.520 -21.339  0.00  0.00    +0.002 C 
ENDBRANCH  16  19
ENDBRANCH   1  16
TORSDOF 3
ENDMDL
MODEL 7
REMARK VINA RESULT:      -9.0      5.643      9.425
REMARK  Name = 2766552
REMARK  3 active torsions:
REMARK  status: ('A' for Active; 'I' for Inactive)
REMARK    1  A    between atoms: N_1  and  C_16
REMARK    2  A    between atoms: C_5  and  C_10
REMARK    3  A    between atoms: C_16  and  C_19
REMARK                            x       y       z     vdW  Elec       q    Type
REMARK                         _______ _______ _______ _____ _____    ______ ____
ROOT
ATOM      1  N   UNL     1      32.414 -11.955 -23.186  0.00  0.00    -0.276 N 
ATOM      2  N   UNL     1      33.448 -10.060 -23.618  0.00  0.00    -0.391 NA
ATOM      3  C   UNL     1      33.353 -11.332 -23.938  0.00  0.00    +0.161 C 
ATOM      4  C   UNL     1      31.866 -11.055 -22.335  0.00  0.00    +0.155 C 
ATOM      5  C   UNL     1      32.523  -9.880 -22.620  0.00  0.00    +0.160 C 
ATOM      6  C   UNL     1      34.146 -12.029 -24.971  0.00  0.00    +0.084 C 
ENDROOT
BRANCH   5  10
ATOM      7  N   UNL     1      31.723  -7.664 -22.724  0.00  0.00    -0.335 NA
ATOM      8  N   UNL     1      31.789  -6.206 -20.806  0.00  0.00    -0.170 NA
ATOM      9  N   UNL     1      30.921  -5.464 -22.856  0.00  0.00    -0.293 N 
ATOM     10  C   UNL     1      32.284  -8.632 -21.967  0.00  0.00    +0.173 C 
ATOM     11  C   UNL     1      32.621  -8.458 -20.637  0.00  0.00    +0.057 C 
ATOM     12  C   UNL     1      32.348  -7.214 -20.106  0.00  0.00    +0.114 C 
ATOM     13  C   UNL     1      31.507  -6.495 -22.091  0.00  0.00    +0.141 C 
ATOM     14  H   UNL     1      30.692  -5.620 -23.801  0.00  0.00    +0.155 HD
ATOM     15  H   UNL     1      30.740  -4.588 -22.445  0.00  0.00    +0.155 HD
ENDBRANCH   5  10
BRANCH   1  16
ATOM     16  C   UNL     1      32.038 -13.368 -23.267  0.00  0.00    +0.122 C 
BRANCH  16  19
ATOM     17 CL   UNL     1      32.154 -13.039 -20.234  0.00  0.00    -0.082 Cl
ATOM     18 CL   UNL     1      33.704 -15.296 -24.949  0.00  0.00    -0.082 Cl
ATOM     19  C   UNL     1      33.010 -14.240 -22.530  0.00  0.00    +0.019 C 
ATOM     20  C   UNL     1      33.117 -14.147 -21.143  0.00  0.00    +0.056 C 
ATOM     21  C   UNL     1      33.805 -15.146 -23.232  0.00  0.00    +0.056 C 
ATOM     22  C   UNL     1      34.021 -14.959 -20.457  0.00  0.00    +0.011 C 
ATOM     23  C   UNL     1      34.708 -15.958 -22.546  0.00  0.00    +0.011 C 
ATOM     24  C   UNL     1      34.816 -15.865 -21.158  0.00  0.00    +0.002 C 
ENDBRANCH  16  19
ENDBRANCH   1  16
TORSDOF 3
ENDMDL
MODEL 8
REMARK VINA RESULT:      -8.9      5.632      9.571
REMARK  Name = 2766552
REMARK  3 active torsions:
REMARK  status: ('A' for Active; 'I' for Inactive)
REMARK    1  A    between atoms: N_1  and  C_16
REMARK    2  A    between atoms: C_5  and  C_10
REMARK    3  A    between atoms: C_16  and  C_19
REMARK                            x       y       z     vdW  Elec       q    Type
REMARK                         _______ _______ _______ _____ _____    ______ ____
ROOT
ATOM      1  N   UNL     1      32.452 -11.948 -23.204  0.00  0.00    -0.276 N 
ATOM      2  N   UNL     1      33.502 -10.067 -23.657  0.00  0.00    -0.391 NA
ATOM      3  C   UNL     1      33.382 -11.336 -23.976  0.00  0.00    +0.161 C 
ATOM      4  C   UNL     1      31.936 -11.042 -22.339  0.00  0.00    +0.155 C 
ATOM      5  C   UNL     1      32.603  -9.876 -22.637  0.00  0.00    +0.160 C 
ATOM      6  C   UNL     1      34.142 -12.042 -25.029  0.00  0.00    +0.084 C 
ENDROOT
BRANCH   5  10
ATOM      7  N   UNL     1      32.075  -7.581 -22.771  0.00  0.00    -0.335 NA
ATOM      8  N   UNL     1      31.981  -6.191 -20.804  0.00  0.00    -0.170 NA
ATOM      9  N   UNL     1      31.549  -5.301 -22.933  0.00  0.00    -0.293 N 
ATOM     10  C   UNL     1      32.395  -8.626 -21.976  0.00  0.00    +0.173 C 
ATOM     11  C   UNL     1      32.524  -8.527 -20.603  0.00  0.00    +0.057 C 
ATOM     12  C   UNL     1      32.303  -7.274 -20.068  0.00  0.00    +0.114 C 
ATOM     13  C   UNL     1      31.885  -6.412 -22.130  0.00  0.00    +0.141 C 
ATOM     14  H   UNL     1      31.465  -5.405 -23.908  0.00  0.00    +0.155 HD
ATOM     15  H   UNL     1      31.398  -4.421 -22.517  0.00  0.00    +0.155 HD
ENDBRANCH   5  10
BRANCH   1  16
ATOM     16  C   UNL     1      32.056 -13.356 -23.278  0.00  0.00    +0.122 C 
BRANCH  16  19
ATOM     17 CL   UNL     1      33.713 -15.300 -24.950  0.00  0.00    -0.082 Cl
ATOM     18 CL   UNL     1      32.153 -13.031 -20.245  0.00  0.00    -0.082 Cl
ATOM     19  C   UNL     1      33.013 -14.239 -22.535  0.00  0.00    +0.019 C 
ATOM     20  C   UNL     1      33.804 -15.151 -23.233  0.00  0.00    +0.056 C 
ATOM     21  C   UNL     1      33.113 -14.147 -21.147  0.00  0.00    +0.056 C 
ATOM     22  C   UNL     1      34.695 -15.973 -22.541  0.00  0.00    +0.011 C 
ATOM     23  C   UNL     1      34.004 -14.969 -20.457  0.00  0.00    +0.011 C 
ATOM     24  C   UNL     1      34.795 -15.882 -21.154  0.00  0.00    +0.002 C 
ENDBRANCH  16  19
ENDBRANCH   1  16
TORSDOF 3
ENDMDL
MODEL 9
REMARK VINA RESULT:      -8.9      1.675      2.716
REMARK  Name = 2766552
REMARK  3 active torsions:
REMARK  status: ('A' for Active; 'I' for Inactive)
REMARK    1  A    between atoms: N_1  and  C_16
REMARK    2  A    between atoms: C_5  and  C_10
REMARK    3  A    between atoms: C_16  and  C_19
REMARK                            x       y       z     vdW  Elec       q    Type
REMARK                         _______ _______ _______ _____ _____    ______ ____
ROOT
ATOM      1  N   UNL     1      34.632 -16.670 -22.095  0.00  0.00    -0.276 N 
ATOM      2  N   UNL     1      33.322 -17.775 -20.714  0.00  0.00    -0.391 NA
ATOM      3  C   UNL     1      33.480 -16.655 -21.382  0.00  0.00    +0.161 C 
ATOM      4  C   UNL     1      35.260 -17.852 -21.887  0.00  0.00    +0.155 C 
ATOM      5  C   UNL     1      34.428 -18.527 -21.024  0.00  0.00    +0.160 C 
ATOM      6  C   UNL     1      32.551 -15.506 -21.383  0.00  0.00    +0.084 C 
ENDROOT
BRANCH   5  10
ATOM      7  N   UNL     1      33.613 -20.469 -19.962  0.00  0.00    -0.335 NA
ATOM      8  N   UNL     1      35.046 -22.351 -19.500  0.00  0.00    -0.170 NA
ATOM      9  N   UNL     1      32.777 -22.388 -18.903  0.00  0.00    -0.293 N 
ATOM     10  C   UNL     1      34.674 -19.838 -20.511  0.00  0.00    +0.173 C 
ATOM     11  C   UNL     1      35.937 -20.397 -20.587  0.00  0.00    +0.057 C 
ATOM     12  C   UNL     1      36.064 -21.666 -20.061  0.00  0.00    +0.114 C 
ATOM     13  C   UNL     1      33.866 -21.702 -19.483  0.00  0.00    +0.141 C 
ATOM     14  H   UNL     1      31.891 -21.962 -18.865  0.00  0.00    +0.155 HD
ATOM     15  H   UNL     1      32.904 -23.293 -18.537  0.00  0.00    +0.155 HD
ENDBRANCH   5  10
BRANCH   1  16
ATOM     16  C   UNL     1      35.133 -15.595 -22.954  0.00  0.00    +0.122 C 
BRANCH  16  19
ATOM     17 CL   UNL     1      34.871 -17.964 -24.860  0.00  0.00    -0.082 Cl
ATOM     18 CL   UNL     1      33.799 -12.865 -23.255  0.00  0.00    -0.082 Cl
ATOM     19  C   UNL     1      34.262 -15.399 -24.158  0.00  0.00    +0.019 C 
ATOM     20  C   UNL     1      34.094 -16.438 -25.073  0.00  0.00    +0.056 C 
ATOM     21  C   UNL     1      33.619 -14.178 -24.363  0.00  0.00    +0.056 C 
ATOM     22  C   UNL     1      33.283 -16.255 -26.194  0.00  0.00    +0.011 C 
ATOM     23  C   UNL     1      32.809 -13.996 -25.483  0.00  0.00    +0.011 C 
ATOM     24  C   UNL     1      32.640 -15.035 -26.399  0.00  0.00    +0.002 C 
ENDBRANCH  16  19
ENDBRANCH   1  16
TORSDOF 3
ENDMDL
