MODEL 1
REMARK VINA RESULT:      -6.8      0.000      0.000
REMARK  Name = 69702
REMARK  4 active torsions:
REMARK  status: ('A' for Active; 'I' for Inactive)
REMARK    1  A    between atoms: C_1  and  C_7
REMARK    2  A    between atoms: C_7  and  C_8
REMARK    3  A    between atoms: C_8  and  C_10
REMARK    4  A    between atoms: C_10  and  O_11
REMARK                            x       y       z     vdW  Elec       q    Type
REMARK                         _______ _______ _______ _____ _____    ______ ____
ROOT
ATOM      1  C   UNL     1      35.084 -19.295 -20.967  0.00  0.00    +0.001 C 
ATOM      2  C   UNL     1      33.619 -19.657 -21.250  0.00  0.00    +0.000 C 
ATOM      3  C   UNL     1      35.889 -20.539 -20.572  0.00  0.00    +0.000 C 
ATOM      4  C   UNL     1      32.984 -20.394 -20.073  0.00  0.00    +0.000 C 
ATOM      5  C   UNL     1      35.250 -21.274 -19.396  0.00  0.00    +0.000 C 
ATOM      6  C   UNL     1      33.792 -21.625 -19.677  0.00  0.00    +0.000 C 
ENDROOT
BRANCH   1   7
ATOM      7  C   UNL     1      35.712 -18.608 -22.179  0.00  0.00    +0.012 C 
BRANCH   7   8
ATOM      8  C   UNL     1      34.818 -18.660 -23.409  0.00  0.00    +0.109 C 
BRANCH   8  10
ATOM      9  O   UNL     1      34.610 -17.395 -25.455  0.00  0.00    -0.250 OA
ATOM     10  C   UNL     1      35.028 -17.466 -24.307  0.00  0.00    +0.314 C 
BRANCH  10  11
ATOM     11  O   UNL     1      35.708 -16.462 -23.700  0.00  0.00    -0.480 OA
ATOM     12  H   UNL     1      36.467 -16.654 -23.186  0.00  0.00    +0.295 HD
ENDBRANCH  10  11
ENDBRANCH   8  10
ENDBRANCH   7   8
ENDBRANCH   1   7
TORSDOF 4
ENDMDL
MODEL 2
REMARK VINA RESULT:      -6.6      0.664      1.622
REMARK  Name = 69702
REMARK  4 active torsions:
REMARK  status: ('A' for Active; 'I' for Inactive)
REMARK    1  A    between atoms: C_1  and  C_7
REMARK    2  A    between atoms: C_7  and  C_8
REMARK    3  A    between atoms: C_8  and  C_10
REMARK    4  A    between atoms: C_10  and  O_11
REMARK                            x       y       z     vdW  Elec       q    Type
REMARK                         _______ _______ _______ _____ _____    ______ ____
ROOT
ATOM      1  C   UNL     1      34.613 -19.818 -21.555  0.00  0.00    +0.001 C 
ATOM      2  C   UNL     1      35.900 -20.050 -20.751  0.00  0.00    +0.000 C 
ATOM      3  C   UNL     1      33.378 -19.927 -20.652  0.00  0.00    +0.000 C 
ATOM      4  C   UNL     1      35.863 -21.378 -19.998  0.00  0.00    +0.000 C 
ATOM      5  C   UNL     1      33.345 -21.255 -19.899  0.00  0.00    +0.000 C 
ATOM      6  C   UNL     1      34.629 -21.486 -19.109  0.00  0.00    +0.000 C 
ENDROOT
BRANCH   1   7
ATOM      7  C   UNL     1      34.652 -18.461 -22.255  0.00  0.00    +0.012 C 
BRANCH   7   8
ATOM      8  C   UNL     1      35.145 -18.558 -23.691  0.00  0.00    +0.109 C 
BRANCH   8  10
ATOM      9  O   UNL     1      34.453 -17.111 -25.496  0.00  0.00    -0.250 OA
ATOM     10  C   UNL     1      35.020 -17.242 -24.419  0.00  0.00    +0.314 C 
BRANCH  10  11
ATOM     11  O   UNL     1      35.580 -16.210 -23.741  0.00  0.00    -0.480 OA
ATOM     12  H   UNL     1      36.225 -16.376 -23.082  0.00  0.00    +0.295 HD
ENDBRANCH  10  11
ENDBRANCH   8  10
ENDBRANCH   7   8
ENDBRANCH   1   7
TORSDOF 4
ENDMDL
MODEL 3
REMARK VINA RESULT:      -6.6      1.031      1.463
REMARK  Name = 69702
REMARK  4 active torsions:
REMARK  status: ('A' for Active; 'I' for Inactive)
REMARK    1  A    between atoms: C_1  and  C_7
REMARK    2  A    between atoms: C_7  and  C_8
REMARK    3  A    between atoms: C_8  and  C_10
REMARK    4  A    between atoms: C_10  and  O_11
REMARK                            x       y       z     vdW  Elec       q    Type
REMARK                         _______ _______ _______ _____ _____    ______ ____
ROOT
ATOM      1  C   UNL     1      35.204 -19.592 -20.642  0.00  0.00    +0.001 C 
ATOM      2  C   UNL     1      33.737 -19.812 -21.039  0.00  0.00    +0.000 C 
ATOM      3  C   UNL     1      35.875 -20.921 -20.270  0.00  0.00    +0.000 C 
ATOM      4  C   UNL     1      32.964 -20.553 -19.950  0.00  0.00    +0.000 C 
ATOM      5  C   UNL     1      35.098 -21.660 -19.182  0.00  0.00    +0.000 C 
ATOM      6  C   UNL     1      33.639 -21.869 -19.576  0.00  0.00    +0.000 C 
ENDROOT
BRANCH   1   7
ATOM      7  C   UNL     1      35.969 -18.899 -21.768  0.00  0.00    +0.012 C 
BRANCH   7   8
ATOM      8  C   UNL     1      35.051 -18.146 -22.720  0.00  0.00    +0.109 C 
BRANCH   8  10
ATOM      9  O   UNL     1      34.899 -16.071 -21.493  0.00  0.00    -0.250 OA
ATOM     10  C   UNL     1      35.159 -16.651 -22.540  0.00  0.00    +0.314 C 
BRANCH  10  11
ATOM     11  O   UNL     1      35.601 -16.016 -23.653  0.00  0.00    -0.480 OA
ATOM     12  H   UNL     1      35.092 -16.038 -24.439  0.00  0.00    +0.295 HD
ENDBRANCH  10  11
ENDBRANCH   8  10
ENDBRANCH   7   8
ENDBRANCH   1   7
TORSDOF 4
ENDMDL
MODEL 4
REMARK VINA RESULT:      -6.4      1.038      1.415
REMARK  Name = 69702
REMARK  4 active torsions:
REMARK  status: ('A' for Active; 'I' for Inactive)
REMARK    1  A    between atoms: C_1  and  C_7
REMARK    2  A    between atoms: C_7  and  C_8
REMARK    3  A    between atoms: C_8  and  C_10
REMARK    4  A    between atoms: C_10  and  O_11
REMARK                            x       y       z     vdW  Elec       q    Type
REMARK                         _______ _______ _______ _____ _____    ______ ____
ROOT
ATOM      1  C   UNL     1      34.495 -19.522 -20.772  0.00  0.00    +0.001 C 
ATOM      2  C   UNL     1      33.155 -20.270 -20.720  0.00  0.00    +0.000 C 
ATOM      3  C   UNL     1      35.671 -20.498 -20.640  0.00  0.00    +0.000 C 
ATOM      4  C   UNL     1      33.039 -21.133 -19.465  0.00  0.00    +0.000 C 
ATOM      5  C   UNL     1      35.551 -21.360 -19.386  0.00  0.00    +0.000 C 
ATOM      6  C   UNL     1      34.215 -22.095 -19.333  0.00  0.00    +0.000 C 
ENDROOT
BRANCH   1   7
ATOM      7  C   UNL     1      34.608 -18.710 -22.061  0.00  0.00    +0.012 C 
BRANCH   7   8
ATOM      8  C   UNL     1      34.901 -17.240 -21.801  0.00  0.00    +0.109 C 
BRANCH   8  10
ATOM      9  O   UNL     1      35.044 -15.263 -23.181  0.00  0.00    -0.250 OA
ATOM     10  C   UNL     1      35.141 -16.480 -23.083  0.00  0.00    +0.314 C 
BRANCH  10  11
ATOM     11  O   UNL     1      35.503 -17.283 -24.113  0.00  0.00    -0.480 OA
ATOM     12  H   UNL     1      35.206 -17.094 -24.981  0.00  0.00    +0.295 HD
ENDBRANCH  10  11
ENDBRANCH   8  10
ENDBRANCH   7   8
ENDBRANCH   1   7
TORSDOF 4
ENDMDL
MODEL 5
REMARK VINA RESULT:      -6.4      1.762      2.618
REMARK  Name = 69702
REMARK  4 active torsions:
REMARK  status: ('A' for Active; 'I' for Inactive)
REMARK    1  A    between atoms: C_1  and  C_7
REMARK    2  A    between atoms: C_7  and  C_8
REMARK    3  A    between atoms: C_8  and  C_10
REMARK    4  A    between atoms: C_10  and  O_11
REMARK                            x       y       z     vdW  Elec       q    Type
REMARK                         _______ _______ _______ _____ _____    ______ ____
ROOT
ATOM      1  C   UNL     1      34.456 -19.929 -21.214  0.00  0.00    +0.001 C 
ATOM      2  C   UNL     1      35.825 -20.067 -20.532  0.00  0.00    +0.000 C 
ATOM      3  C   UNL     1      33.324 -20.302 -20.249  0.00  0.00    +0.000 C 
ATOM      4  C   UNL     1      36.021 -21.461 -19.939  0.00  0.00    +0.000 C 
ATOM      5  C   UNL     1      33.524 -21.696 -19.657  0.00  0.00    +0.000 C 
ATOM      6  C   UNL     1      34.889 -21.832 -18.987  0.00  0.00    +0.000 C 
ENDROOT
BRANCH   1   7
ATOM      7  C   UNL     1      34.263 -18.512 -21.750  0.00  0.00    +0.012 C 
BRANCH   7   8
ATOM      8  C   UNL     1      35.184 -17.503 -21.080  0.00  0.00    +0.109 C 
BRANCH   8  10
ATOM      9  O   UNL     1      34.255 -15.684 -22.369  0.00  0.00    -0.250 OA
ATOM     10  C   UNL     1      34.726 -16.083 -21.312  0.00  0.00    +0.314 C 
BRANCH  10  11
ATOM     11  O   UNL     1      34.866 -15.298 -20.216  0.00  0.00    -0.480 OA
ATOM     12  H   UNL     1      34.378 -14.501 -20.145  0.00  0.00    +0.295 HD
ENDBRANCH  10  11
ENDBRANCH   8  10
ENDBRANCH   7   8
ENDBRANCH   1   7
TORSDOF 4
ENDMDL
MODEL 6
REMARK VINA RESULT:      -6.4      3.580      5.354
REMARK  Name = 69702
REMARK  4 active torsions:
REMARK  status: ('A' for Active; 'I' for Inactive)
REMARK    1  A    between atoms: C_1  and  C_7
REMARK    2  A    between atoms: C_7  and  C_8
REMARK    3  A    between atoms: C_8  and  C_10
REMARK    4  A    between atoms: C_10  and  O_11
REMARK                            x       y       z     vdW  Elec       q    Type
REMARK                         _______ _______ _______ _____ _____    ______ ____
ROOT
ATOM      1  C   UNL     1      34.382 -18.983 -21.649  0.00  0.00    +0.001 C 
ATOM      2  C   UNL     1      35.027 -17.691 -21.129  0.00  0.00    +0.000 C 
ATOM      3  C   UNL     1      34.862 -19.299 -23.072  0.00  0.00    +0.000 C 
ATOM      4  C   UNL     1      34.791 -16.520 -22.080  0.00  0.00    +0.000 C 
ATOM      5  C   UNL     1      34.627 -18.126 -24.020  0.00  0.00    +0.000 C 
ATOM      6  C   UNL     1      35.261 -16.842 -23.495  0.00  0.00    +0.000 C 
ENDROOT
BRANCH   1   7
ATOM      7  C   UNL     1      34.677 -20.150 -20.708  0.00  0.00    +0.012 C 
BRANCH   7   8
ATOM      8  C   UNL     1      33.422 -20.697 -20.045  0.00  0.00    +0.109 C 
BRANCH   8  10
ATOM      9  O   UNL     1      34.776 -22.551 -19.295  0.00  0.00    -0.250 OA
ATOM     10  C   UNL     1      33.699 -21.969 -19.281  0.00  0.00    +0.314 C 
BRANCH  10  11
ATOM     11  O   UNL     1      32.636 -22.389 -18.552  0.00  0.00    -0.480 OA
ATOM     12  H   UNL     1      32.024 -21.765 -18.214  0.00  0.00    +0.295 HD
ENDBRANCH  10  11
ENDBRANCH   8  10
ENDBRANCH   7   8
ENDBRANCH   1   7
TORSDOF 4
ENDMDL
MODEL 7
REMARK VINA RESULT:      -6.3      8.355      9.508
REMARK  Name = 69702
REMARK  4 active torsions:
REMARK  status: ('A' for Active; 'I' for Inactive)
REMARK    1  A    between atoms: C_1  and  C_7
REMARK    2  A    between atoms: C_7  and  C_8
REMARK    3  A    between atoms: C_8  and  C_10
REMARK    4  A    between atoms: C_10  and  O_11
REMARK                            x       y       z     vdW  Elec       q    Type
REMARK                         _______ _______ _______ _____ _____    ______ ____
ROOT
ATOM      1  C   UNL     1      30.294 -24.450 -15.504  0.00  0.00    +0.001 C 
ATOM      2  C   UNL     1      31.085 -23.221 -15.977  0.00  0.00    +0.000 C 
ATOM      3  C   UNL     1      30.588 -24.755 -14.030  0.00  0.00    +0.000 C 
ATOM      4  C   UNL     1      32.581 -23.380 -15.718  0.00  0.00    +0.000 C 
ATOM      5  C   UNL     1      32.086 -24.911 -13.774  0.00  0.00    +0.000 C 
ATOM      6  C   UNL     1      32.869 -23.692 -14.253  0.00  0.00    +0.000 C 
ENDROOT
BRANCH   1   7
ATOM      7  C   UNL     1      28.797 -24.245 -15.725  0.00  0.00    +0.012 C 
BRANCH   7   8
ATOM      8  C   UNL     1      28.411 -22.774 -15.782  0.00  0.00    +0.109 C 
BRANCH   8  10
ATOM      9  O   UNL     1      27.087 -21.360 -17.224  0.00  0.00    -0.250 OA
ATOM     10  C   UNL     1      27.592 -22.455 -17.008  0.00  0.00    +0.314 C 
BRANCH  10  11
ATOM     11  O   UNL     1      27.494 -23.502 -17.864  0.00  0.00    -0.480 OA
ATOM     12  H   UNL     1      26.650 -23.810 -18.132  0.00  0.00    +0.295 HD
ENDBRANCH  10  11
ENDBRANCH   8  10
ENDBRANCH   7   8
ENDBRANCH   1   7
TORSDOF 4
ENDMDL
MODEL 8
REMARK VINA RESULT:      -6.2      2.949      5.083
REMARK  Name = 69702
REMARK  4 active torsions:
REMARK  status: ('A' for Active; 'I' for Inactive)
REMARK    1  A    between atoms: C_1  and  C_7
REMARK    2  A    between atoms: C_7  and  C_8
REMARK    3  A    between atoms: C_8  and  C_10
REMARK    4  A    between atoms: C_10  and  O_11
REMARK                            x       y       z     vdW  Elec       q    Type
REMARK                         _______ _______ _______ _____ _____    ______ ____
ROOT
ATOM      1  C   UNL     1      35.420 -18.305 -22.758  0.00  0.00    +0.001 C 
ATOM      2  C   UNL     1      34.611 -18.861 -23.939  0.00  0.00    +0.000 C 
ATOM      3  C   UNL     1      34.950 -16.892 -22.390  0.00  0.00    +0.000 C 
ATOM      4  C   UNL     1      34.648 -17.919 -25.141  0.00  0.00    +0.000 C 
ATOM      5  C   UNL     1      34.987 -15.954 -23.595  0.00  0.00    +0.000 C 
ATOM      6  C   UNL     1      34.189 -16.513 -24.769  0.00  0.00    +0.000 C 
ENDROOT
BRANCH   1   7
ATOM      7  C   UNL     1      35.323 -19.237 -21.552  0.00  0.00    +0.012 C 
BRANCH   7   8
ATOM      8  C   UNL     1      33.915 -19.306 -20.979  0.00  0.00    +0.109 C 
BRANCH   8  10
ATOM      9  O   UNL     1      32.596 -21.188 -20.237  0.00  0.00    -0.250 OA
ATOM     10  C   UNL     1      33.670 -20.600 -20.243  0.00  0.00    +0.314 C 
BRANCH  10  11
ATOM     11  O   UNL     1      34.775 -21.063 -19.608  0.00  0.00    -0.480 OA
ATOM     12  H   UNL     1      35.382 -20.461 -19.225  0.00  0.00    +0.295 HD
ENDBRANCH  10  11
ENDBRANCH   8  10
ENDBRANCH   7   8
ENDBRANCH   1   7
TORSDOF 4
ENDMDL
MODEL 9
REMARK VINA RESULT:      -6.1      4.900      6.454
REMARK  Name = 69702
REMARK  4 active torsions:
REMARK  status: ('A' for Active; 'I' for Inactive)
REMARK    1  A    between atoms: C_1  and  C_7
REMARK    2  A    between atoms: C_7  and  C_8
REMARK    3  A    between atoms: C_8  and  C_10
REMARK    4  A    between atoms: C_10  and  O_11
REMARK                            x       y       z     vdW  Elec       q    Type
REMARK                         _______ _______ _______ _____ _____    ______ ____
ROOT
ATOM      1  C   UNL     1      34.343 -21.631 -19.766  0.00  0.00    +0.001 C 
ATOM      2  C   UNL     1      33.036 -20.837 -19.640  0.00  0.00    +0.000 C 
ATOM      3  C   UNL     1      35.529 -20.694 -20.030  0.00  0.00    +0.000 C 
ATOM      4  C   UNL     1      32.796 -19.948 -20.858  0.00  0.00    +0.000 C 
ATOM      5  C   UNL     1      35.285 -19.805 -21.248  0.00  0.00    +0.000 C 
ATOM      6  C   UNL     1      33.980 -19.024 -21.123  0.00  0.00    +0.000 C 
ENDROOT
BRANCH   1   7
ATOM      7  C   UNL     1      34.587 -22.470 -18.513  0.00  0.00    +0.012 C 
BRANCH   7   8
ATOM      8  C   UNL     1      33.295 -22.875 -17.820  0.00  0.00    +0.109 C 
BRANCH   8  10
ATOM      9  O   UNL     1      32.720 -23.411 -15.537  0.00  0.00    -0.250 OA
ATOM     10  C   UNL     1      33.547 -23.428 -16.439  0.00  0.00    +0.314 C 
BRANCH  10  11
ATOM     11  O   UNL     1      34.781 -23.975 -16.307  0.00  0.00    -0.480 OA
ATOM     12  H   UNL     1      34.913 -24.698 -15.726  0.00  0.00    +0.295 HD
ENDBRANCH  10  11
ENDBRANCH   8  10
ENDBRANCH   7   8
ENDBRANCH   1   7
TORSDOF 4
ENDMDL
