MODEL 1
REMARK VINA RESULT:      -8.2      0.000      0.000
REMARK  Name = 4055
REMARK  0 active torsions:
REMARK  status: ('A' for Active; 'I' for Inactive)
REMARK                            x       y       z     vdW  Elec       q    Type
REMARK                         _______ _______ _______ _____ _____    ______ ____
ROOT
ATOM      1  O   UNL     1      35.237 -16.693 -20.379  0.00  0.00    -0.287 OA
ATOM      2  O   UNL     1      34.515 -17.947 -25.524  0.00  0.00    -0.287 OA
ATOM      3  C   UNL     1      34.543 -15.968 -22.507  0.00  0.00    +0.042 C 
ATOM      4  C   UNL     1      34.353 -16.289 -23.852  0.00  0.00    +0.042 C 
ATOM      5  C   UNL     1      35.385 -18.329 -22.085  0.00  0.00    +0.020 C 
ATOM      6  C   UNL     1      35.069 -16.973 -21.561  0.00  0.00    +0.192 C 
ATOM      7  C   UNL     1      34.674 -17.639 -24.349  0.00  0.00    +0.196 C 
ATOM      8  C   UNL     1      35.196 -18.620 -23.378  0.00  0.00    +0.041 C 
ATOM      9  C   UNL     1      34.234 -14.683 -22.048  0.00  0.00    +0.003 C 
ATOM     10  C   UNL     1      33.854 -15.328 -24.739  0.00  0.00    +0.003 C 
ATOM     11  C   UNL     1      35.915 -19.332 -21.105  0.00  0.00    +0.034 C 
ATOM     12  C   UNL     1      33.737 -13.726 -22.934  0.00  0.00    +0.000 C 
ATOM     13  C   UNL     1      33.548 -14.048 -24.276  0.00  0.00    +0.000 C 
ENDROOT
TORSDOF 0
ENDMDL
MODEL 2
REMARK VINA RESULT:      -8.2      1.046      4.688
REMARK  Name = 4055
REMARK  0 active torsions:
REMARK  status: ('A' for Active; 'I' for Inactive)
REMARK                            x       y       z     vdW  Elec       q    Type
REMARK                         _______ _______ _______ _____ _____    ______ ____
ROOT
ATOM      1  O   UNL     1      33.918 -15.620 -25.455  0.00  0.00    -0.287 OA
ATOM      2  O   UNL     1      34.873 -15.560 -20.196  0.00  0.00    -0.287 OA
ATOM      3  C   UNL     1      34.507 -16.858 -23.543  0.00  0.00    +0.042 C 
ATOM      4  C   UNL     1      34.759 -16.849 -22.171  0.00  0.00    +0.042 C 
ATOM      5  C   UNL     1      34.042 -14.361 -23.452  0.00  0.00    +0.020 C 
ATOM      6  C   UNL     1      34.138 -15.614 -24.249  0.00  0.00    +0.192 C 
ATOM      7  C   UNL     1      34.659 -15.596 -21.402  0.00  0.00    +0.196 C 
ATOM      8  C   UNL     1      34.286 -14.370 -22.137  0.00  0.00    +0.041 C 
ATOM      9  C   UNL     1      34.605 -18.055 -24.261  0.00  0.00    +0.003 C 
ATOM     10  C   UNL     1      35.108 -18.035 -21.514  0.00  0.00    +0.003 C 
ATOM     11  C   UNL     1      33.664 -13.112 -24.190  0.00  0.00    +0.034 C 
ATOM     12  C   UNL     1      34.954 -19.237 -23.604  0.00  0.00    +0.000 C 
ATOM     13  C   UNL     1      35.205 -19.226 -22.234  0.00  0.00    +0.000 C 
ENDROOT
TORSDOF 0
ENDMDL
MODEL 3
REMARK VINA RESULT:      -8.0      1.142      3.166
REMARK  Name = 4055
REMARK  0 active torsions:
REMARK  status: ('A' for Active; 'I' for Inactive)
REMARK                            x       y       z     vdW  Elec       q    Type
REMARK                         _______ _______ _______ _____ _____    ______ ____
ROOT
ATOM      1  O   UNL     1      34.483 -17.272 -25.558  0.00  0.00    -0.287 OA
ATOM      2  O   UNL     1      35.108 -18.850 -20.490  0.00  0.00    -0.287 OA
ATOM      3  C   UNL     1      34.590 -16.640 -23.295  0.00  0.00    +0.042 C 
ATOM      4  C   UNL     1      34.752 -17.045 -21.969  0.00  0.00    +0.042 C 
ATOM      5  C   UNL     1      34.839 -19.056 -24.042  0.00  0.00    +0.020 C 
ATOM      6  C   UNL     1      34.625 -17.626 -24.393  0.00  0.00    +0.192 C 
ATOM      7  C   UNL     1      34.962 -18.467 -21.645  0.00  0.00    +0.196 C 
ATOM      8  C   UNL     1      34.993 -19.428 -22.765  0.00  0.00    +0.041 C 
ATOM      9  C   UNL     1      34.393 -15.286 -23.590  0.00  0.00    +0.003 C 
ATOM     10  C   UNL     1      34.717 -16.100 -20.937  0.00  0.00    +0.003 C 
ATOM     11  C   UNL     1      34.874 -20.038 -25.174  0.00  0.00    +0.034 C 
ATOM     12  C   UNL     1      34.357 -14.345 -22.559  0.00  0.00    +0.000 C 
ATOM     13  C   UNL     1      34.518 -14.751 -21.236  0.00  0.00    +0.000 C 
ENDROOT
TORSDOF 0
ENDMDL
MODEL 4
REMARK VINA RESULT:      -7.9      3.881      5.599
REMARK  Name = 4055
REMARK  0 active torsions:
REMARK  status: ('A' for Active; 'I' for Inactive)
REMARK                            x       y       z     vdW  Elec       q    Type
REMARK                         _______ _______ _______ _____ _____    ______ ____
ROOT
ATOM      1  O   UNL     1      36.395 -22.153 -18.342  0.00  0.00    -0.287 OA
ATOM      2  O   UNL     1      32.181 -20.096 -20.906  0.00  0.00    -0.287 OA
ATOM      3  C   UNL     1      35.619 -20.605 -19.934  0.00  0.00    +0.042 C 
ATOM      4  C   UNL     1      34.523 -20.064 -20.608  0.00  0.00    +0.042 C 
ATOM      5  C   UNL     1      34.049 -22.154 -18.669  0.00  0.00    +0.020 C 
ATOM      6  C   UNL     1      35.434 -21.677 -18.934  0.00  0.00    +0.192 C 
ATOM      7  C   UNL     1      33.161 -20.554 -20.330  0.00  0.00    +0.196 C 
ATOM      8  C   UNL     1      33.010 -21.624 -19.324  0.00  0.00    +0.041 C 
ATOM      9  C   UNL     1      36.907 -20.131 -20.206  0.00  0.00    +0.003 C 
ATOM     10  C   UNL     1      34.712 -19.049 -21.553  0.00  0.00    +0.003 C 
ATOM     11  C   UNL     1      33.887 -23.240 -17.648  0.00  0.00    +0.034 C 
ATOM     12  C   UNL     1      37.093 -19.119 -21.150  0.00  0.00    +0.000 C 
ATOM     13  C   UNL     1      35.998 -18.581 -21.822  0.00  0.00    +0.000 C 
ENDROOT
TORSDOF 0
ENDMDL
MODEL 5
REMARK VINA RESULT:      -7.8      1.019      3.776
REMARK  Name = 4055
REMARK  0 active torsions:
REMARK  status: ('A' for Active; 'I' for Inactive)
REMARK                            x       y       z     vdW  Elec       q    Type
REMARK                         _______ _______ _______ _____ _____    ______ ____
ROOT
ATOM      1  O   UNL     1      34.232 -14.521 -21.165  0.00  0.00    -0.287 OA
ATOM      2  O   UNL     1      34.441 -17.040 -25.874  0.00  0.00    -0.287 OA
ATOM      3  C   UNL     1      34.683 -16.525 -22.311  0.00  0.00    +0.042 C 
ATOM      4  C   UNL     1      34.739 -17.189 -23.537  0.00  0.00    +0.042 C 
ATOM      5  C   UNL     1      33.945 -14.411 -23.514  0.00  0.00    +0.020 C 
ATOM      6  C   UNL     1      34.282 -15.105 -22.241  0.00  0.00    +0.192 C 
ATOM      7  C   UNL     1      34.399 -16.481 -24.784  0.00  0.00    +0.196 C 
ATOM      8  C   UNL     1      34.004 -15.062 -24.681  0.00  0.00    +0.041 C 
ATOM      9  C   UNL     1      35.009 -17.209 -21.134  0.00  0.00    +0.003 C 
ATOM     10  C   UNL     1      35.120 -18.535 -23.590  0.00  0.00    +0.003 C 
ATOM     11  C   UNL     1      33.544 -12.970 -23.417  0.00  0.00    +0.034 C 
ATOM     12  C   UNL     1      35.388 -18.551 -21.189  0.00  0.00    +0.000 C 
ATOM     13  C   UNL     1      35.443 -19.212 -22.413  0.00  0.00    +0.000 C 
ENDROOT
TORSDOF 0
ENDMDL
MODEL 6
REMARK VINA RESULT:      -7.8      1.518      2.092
REMARK  Name = 4055
REMARK  0 active torsions:
REMARK  status: ('A' for Active; 'I' for Inactive)
REMARK                            x       y       z     vdW  Elec       q    Type
REMARK                         _______ _______ _______ _____ _____    ______ ____
ROOT
ATOM      1  O   UNL     1      35.059 -17.231 -20.694  0.00  0.00    -0.287 OA
ATOM      2  O   UNL     1      33.507 -15.045 -25.318  0.00  0.00    -0.287 OA
ATOM      3  C   UNL     1      33.834 -15.527 -21.757  0.00  0.00    +0.042 C 
ATOM      4  C   UNL     1      33.427 -14.950 -22.961  0.00  0.00    +0.042 C 
ATOM      5  C   UNL     1      35.115 -17.293 -23.061  0.00  0.00    +0.020 C 
ATOM      6  C   UNL     1      34.699 -16.724 -21.750  0.00  0.00    +0.192 C 
ATOM      7  C   UNL     1      33.852 -15.530 -24.247  0.00  0.00    +0.196 C 
ATOM      8  C   UNL     1      34.715 -16.728 -24.206  0.00  0.00    +0.041 C 
ATOM      9  C   UNL     1      33.422 -14.966 -20.543  0.00  0.00    +0.003 C 
ATOM     10  C   UNL     1      32.607 -13.815 -22.954  0.00  0.00    +0.003 C 
ATOM     11  C   UNL     1      35.990 -18.510 -23.028  0.00  0.00    +0.034 C 
ATOM     12  C   UNL     1      32.606 -13.834 -20.537  0.00  0.00    +0.000 C 
ATOM     13  C   UNL     1      32.200 -13.260 -21.740  0.00  0.00    +0.000 C 
ENDROOT
TORSDOF 0
ENDMDL
MODEL 7
REMARK VINA RESULT:      -7.7      1.961      4.162
REMARK  Name = 4055
REMARK  0 active torsions:
REMARK  status: ('A' for Active; 'I' for Inactive)
REMARK                            x       y       z     vdW  Elec       q    Type
REMARK                         _______ _______ _______ _____ _____    ______ ____
ROOT
ATOM      1  O   UNL     1      32.227 -13.391 -23.264  0.00  0.00    -0.287 OA
ATOM      2  O   UNL     1      35.136 -16.960 -20.548  0.00  0.00    -0.287 OA
ATOM      3  C   UNL     1      33.616 -15.287 -23.361  0.00  0.00    +0.042 C 
ATOM      4  C   UNL     1      34.379 -16.221 -22.659  0.00  0.00    +0.042 C 
ATOM      5  C   UNL     1      33.008 -14.163 -21.165  0.00  0.00    +0.020 C 
ATOM      6  C   UNL     1      32.896 -14.213 -22.648  0.00  0.00    +0.192 C 
ATOM      7  C   UNL     1      34.475 -16.151 -21.190  0.00  0.00    +0.196 C 
ATOM      8  C   UNL     1      33.742 -15.067 -20.506  0.00  0.00    +0.041 C 
ATOM      9  C   UNL     1      33.532 -15.365 -24.756  0.00  0.00    +0.003 C 
ATOM     10  C   UNL     1      35.056 -17.234 -23.347  0.00  0.00    +0.003 C 
ATOM     11  C   UNL     1      32.265 -13.066 -20.463  0.00  0.00    +0.034 C 
ATOM     12  C   UNL     1      34.210 -16.376 -25.441  0.00  0.00    +0.000 C 
ATOM     13  C   UNL     1      34.970 -17.308 -24.738  0.00  0.00    +0.000 C 
ENDROOT
TORSDOF 0
ENDMDL
MODEL 8
REMARK VINA RESULT:      -7.7      1.223      2.876
REMARK  Name = 4055
REMARK  0 active torsions:
REMARK  status: ('A' for Active; 'I' for Inactive)
REMARK                            x       y       z     vdW  Elec       q    Type
REMARK                         _______ _______ _______ _____ _____    ______ ____
ROOT
ATOM      1  O   UNL     1      35.488 -18.651 -23.844  0.00  0.00    -0.287 OA
ATOM      2  O   UNL     1      33.898 -14.497 -20.882  0.00  0.00    -0.287 OA
ATOM      3  C   UNL     1      34.437 -16.547 -23.801  0.00  0.00    +0.042 C 
ATOM      4  C   UNL     1      34.018 -15.460 -23.034  0.00  0.00    +0.042 C 
ATOM      5  C   UNL     1      35.348 -17.652 -21.701  0.00  0.00    +0.020 C 
ATOM      6  C   UNL     1      35.120 -17.695 -23.172  0.00  0.00    +0.192 C 
ATOM      7  C   UNL     1      34.253 -15.439 -21.579  0.00  0.00    +0.196 C 
ATOM      8  C   UNL     1      34.941 -16.601 -20.980  0.00  0.00    +0.041 C 
ATOM      9  C   UNL     1      34.207 -16.554 -25.182  0.00  0.00    +0.003 C 
ATOM     10  C   UNL     1      33.371 -14.378 -23.643  0.00  0.00    +0.003 C 
ATOM     11  C   UNL     1      36.046 -18.827 -21.086  0.00  0.00    +0.034 C 
ATOM     12  C   UNL     1      33.561 -15.474 -25.787  0.00  0.00    +0.000 C 
ATOM     13  C   UNL     1      33.144 -14.390 -25.019  0.00  0.00    +0.000 C 
ENDROOT
TORSDOF 0
ENDMDL
MODEL 9
REMARK VINA RESULT:      -7.6      1.625      3.628
REMARK  Name = 4055
REMARK  0 active torsions:
REMARK  status: ('A' for Active; 'I' for Inactive)
REMARK                            x       y       z     vdW  Elec       q    Type
REMARK                         _______ _______ _______ _____ _____    ______ ____
ROOT
ATOM      1  O   UNL     1      33.193 -14.917 -25.202  0.00  0.00    -0.287 OA
ATOM      2  O   UNL     1      35.070 -16.584 -20.483  0.00  0.00    -0.287 OA
ATOM      3  C   UNL     1      33.226 -14.604 -22.871  0.00  0.00    +0.042 C 
ATOM      4  C   UNL     1      33.711 -15.035 -21.635  0.00  0.00    +0.042 C 
ATOM      5  C   UNL     1      34.547 -16.453 -24.010  0.00  0.00    +0.020 C 
ATOM      6  C   UNL     1      33.619 -15.293 -24.116  0.00  0.00    +0.192 C 
ATOM      7  C   UNL     1      34.627 -16.186 -21.555  0.00  0.00    +0.196 C 
ATOM      8  C   UNL     1      35.003 -16.852 -22.817  0.00  0.00    +0.041 C 
ATOM      9  C   UNL     1      32.357 -13.509 -22.934  0.00  0.00    +0.003 C 
ATOM     10  C   UNL     1      33.330 -14.373 -20.462  0.00  0.00    +0.003 C 
ATOM     11  C   UNL     1      34.934 -17.134 -25.288  0.00  0.00    +0.034 C 
ATOM     12  C   UNL     1      31.977 -12.851 -21.762  0.00  0.00    +0.000 C 
ATOM     13  C   UNL     1      32.463 -13.282 -20.530  0.00  0.00    +0.000 C 
ENDROOT
TORSDOF 0
ENDMDL
