MODEL 1
REMARK VINA RESULT:     -12.3      0.000      0.000
REMARK  Name = 15602701
REMARK  5 active torsions:
REMARK  status: ('A' for Active; 'I' for Inactive)
REMARK    1  A    between atoms: N_5  and  C_12
REMARK    2  A    between atoms: C_6  and  C_22
REMARK    3  A    between atoms: C_13  and  C_21
REMARK    4  A    between atoms: C_22  and  C_23
REMARK    5  A    between atoms: C_23  and  N_24
REMARK                            x       y       z     vdW  Elec       q    Type
REMARK                         _______ _______ _______ _____ _____    ______ ____
ROOT
ATOM      1  S   UNL     1      34.180 -23.231 -16.792  0.00  0.00    -0.056 S 
ATOM      2  O   UNL     1      32.494 -20.481 -20.132  0.00  0.00    -0.252 OA
ATOM      3  N   UNL     1      32.020 -22.286 -17.852  0.00  0.00    -0.223 NA
ATOM      4  N   UNL     1      34.108 -21.589 -18.834  0.00  0.00    -0.248 N 
ATOM      5  N   UNL     1      34.772 -20.221 -20.578  0.00  0.00    -0.268 N 
ATOM      6  C   UNL     1      32.680 -23.686 -16.143  0.00  0.00    +0.031 C 
ATOM      7  C   UNL     1      31.648 -23.109 -16.808  0.00  0.00    +0.103 C 
ATOM      8  C   UNL     1      33.331 -22.275 -17.937  0.00  0.00    +0.166 C 
ATOM      9  C   UNL     1      33.667 -20.734 -19.879  0.00  0.00    +0.310 C 
ATOM     10  H   UNL     1      35.082 -21.703 -18.745  0.00  0.00    +0.158 HD
ATOM     11  H   UNL     1      35.657 -20.513 -20.260  0.00  0.00    +0.156 HD
ENDROOT
BRANCH   5  12
ATOM     12  C   UNL     1      34.771 -19.336 -21.682  0.00  0.00    +0.052 C 
ATOM     13  C   UNL     1      34.573 -17.110 -22.555  0.00  0.00    +0.073 C 
ATOM     14  C   UNL     1      34.574 -17.982 -21.466  0.00  0.00    +0.019 C 
ATOM     15  C   UNL     1      34.970 -19.842 -22.956  0.00  0.00    +0.015 C 
ATOM     16  C   UNL     1      34.772 -17.603 -23.844  0.00  0.00    +0.004 C 
ATOM     17  C   UNL     1      34.969 -18.970 -24.045  0.00  0.00    +0.001 C 
BRANCH  13  21
ATOM     18  F   UNL     1      34.945 -14.865 -23.297  0.00  0.00    -0.166 F 
ATOM     19  F   UNL     1      33.048 -15.281 -22.332  0.00  0.00    -0.166 F 
ATOM     20  F   UNL     1      34.873 -15.213 -21.152  0.00  0.00    -0.166 F 
ATOM     21  C   UNL     1      34.363 -15.649 -22.341  0.00  0.00    +0.419 C 
ENDBRANCH  13  21
ENDBRANCH   5  12
BRANCH   6  22
ATOM     22  C   UNL     1      32.633 -24.631 -14.964  0.00  0.00    +0.056 C 
BRANCH  22  23
ATOM     23  C   UNL     1      33.644 -24.267 -13.878  0.00  0.00    +0.093 C 
BRANCH  23  24
ATOM     24  N   UNL     1      34.908 -24.897 -14.119  0.00  0.00    -0.320 N 
ATOM     25  N   UNL     1      37.687 -26.158 -14.537  0.00  0.00    -0.220 N 
ATOM     26  N   UNL     1      39.001 -26.444 -14.465  0.00  0.00    -0.178 NA
ATOM     27  N   UNL     1      36.083 -23.487 -12.588  0.00  0.00    -0.232 NA
ATOM     28  N   UNL     1      38.478 -23.703 -12.186  0.00  0.00    -0.245 NA
ATOM     29  C   UNL     1      37.302 -25.129 -13.729  0.00  0.00    +0.185 C 
ATOM     30  C   UNL     1      36.095 -24.504 -13.478  0.00  0.00    +0.128 C 
ATOM     31  C   UNL     1      38.456 -24.717 -13.082  0.00  0.00    +0.103 C 
ATOM     32  C   UNL     1      39.466 -25.561 -13.575  0.00  0.00    +0.134 C 
ATOM     33  C   UNL     1      36.855 -26.935 -15.426  0.00  0.00    +0.135 C 
ATOM     34  C   UNL     1      37.259 -23.153 -12.005  0.00  0.00    +0.251 C 
ATOM     35  H   UNL     1      34.947 -25.641 -14.763  0.00  0.00    +0.148 HD
ENDBRANCH  23  24
ENDBRANCH  22  23
ENDBRANCH   6  22
TORSDOF 5
ENDMDL
MODEL 2
REMARK VINA RESULT:     -12.0      5.200     11.784
REMARK  Name = 15602701
REMARK  5 active torsions:
REMARK  status: ('A' for Active; 'I' for Inactive)
REMARK    1  A    between atoms: N_5  and  C_12
REMARK    2  A    between atoms: C_6  and  C_22
REMARK    3  A    between atoms: C_13  and  C_21
REMARK    4  A    between atoms: C_22  and  C_23
REMARK    5  A    between atoms: C_23  and  N_24
REMARK                            x       y       z     vdW  Elec       q    Type
REMARK                         _______ _______ _______ _____ _____    ______ ____
ROOT
ATOM      1  S   UNL     1      36.579 -20.526 -19.889  0.00  0.00    -0.056 S 
ATOM      2  O   UNL     1      35.265 -23.313 -16.416  0.00  0.00    -0.252 OA
ATOM      3  N   UNL     1      34.583 -21.797 -18.848  0.00  0.00    -0.223 NA
ATOM      4  N   UNL     1      36.707 -22.005 -17.729  0.00  0.00    -0.248 N 
ATOM      5  N   UNL     1      37.522 -23.094 -15.857  0.00  0.00    -0.268 N 
ATOM      6  C   UNL     1      35.058 -20.418 -20.634  0.00  0.00    +0.031 C 
ATOM      7  C   UNL     1      34.119 -21.137 -19.969  0.00  0.00    +0.103 C 
ATOM      8  C   UNL     1      35.866 -21.547 -18.708  0.00  0.00    +0.166 C 
ATOM      9  C   UNL     1      36.380 -22.855 -16.639  0.00  0.00    +0.310 C 
ATOM     10  H   UNL     1      37.646 -21.711 -17.786  0.00  0.00    +0.158 HD
ATOM     11  H   UNL     1      38.352 -22.657 -16.160  0.00  0.00    +0.156 HD
ENDROOT
BRANCH   5  12
ATOM     12  C   UNL     1      37.628 -23.883 -14.687  0.00  0.00    +0.052 C 
ATOM     13  C   UNL     1      36.883 -24.411 -12.469  0.00  0.00    +0.073 C 
ATOM     14  C   UNL     1      36.779 -23.633 -13.621  0.00  0.00    +0.019 C 
ATOM     15  C   UNL     1      38.577 -24.890 -14.633  0.00  0.00    +0.015 C 
ATOM     16  C   UNL     1      37.834 -25.430 -12.398  0.00  0.00    +0.004 C 
ATOM     17  C   UNL     1      38.682 -25.669 -13.480  0.00  0.00    +0.001 C 
BRANCH  13  21
ATOM     18  F   UNL     1      35.477 -25.296 -10.747  0.00  0.00    -0.166 F 
ATOM     19  F   UNL     1      36.577 -23.484 -10.285  0.00  0.00    -0.166 F 
ATOM     20  F   UNL     1      34.887 -23.409 -11.652  0.00  0.00    -0.166 F 
ATOM     21  C   UNL     1      35.977 -24.157 -11.312  0.00  0.00    +0.419 C 
ENDBRANCH  13  21
ENDBRANCH   5  12
BRANCH   6  22
ATOM     22  C   UNL     1      34.897 -19.584 -21.884  0.00  0.00    +0.056 C 
BRANCH  22  23
ATOM     23  C   UNL     1      35.898 -18.431 -21.955  0.00  0.00    +0.093 C 
BRANCH  23  24
ATOM     24  N   UNL     1      35.227 -17.177 -22.135  0.00  0.00    -0.320 N 
ATOM     25  N   UNL     1      33.766 -14.518 -22.666  0.00  0.00    -0.220 N 
ATOM     26  N   UNL     1      33.116 -13.495 -23.253  0.00  0.00    -0.178 NA
ATOM     27  N   UNL     1      34.850 -17.533 -24.469  0.00  0.00    -0.232 NA
ATOM     28  N   UNL     1      33.701 -15.902 -25.870  0.00  0.00    -0.245 NA
ATOM     29  C   UNL     1      34.075 -15.537 -23.520  0.00  0.00    +0.185 C 
ATOM     30  C   UNL     1      34.718 -16.752 -23.373  0.00  0.00    +0.128 C 
ATOM     31  C   UNL     1      33.585 -15.144 -24.755  0.00  0.00    +0.103 C 
ATOM     32  C   UNL     1      33.008 -13.883 -24.528  0.00  0.00    +0.134 C 
ATOM     33  C   UNL     1      34.060 -14.436 -21.254  0.00  0.00    +0.135 C 
ATOM     34  C   UNL     1      34.341 -17.066 -25.634  0.00  0.00    +0.251 C 
ATOM     35  H   UNL     1      35.117 -16.588 -21.354  0.00  0.00    +0.148 HD
ENDBRANCH  23  24
ENDBRANCH  22  23
ENDBRANCH   6  22
TORSDOF 5
ENDMDL
MODEL 3
REMARK VINA RESULT:     -11.8      3.404      5.881
REMARK  Name = 15602701
REMARK  5 active torsions:
REMARK  status: ('A' for Active; 'I' for Inactive)
REMARK    1  A    between atoms: N_5  and  C_12
REMARK    2  A    between atoms: C_6  and  C_22
REMARK    3  A    between atoms: C_13  and  C_21
REMARK    4  A    between atoms: C_22  and  C_23
REMARK    5  A    between atoms: C_23  and  N_24
REMARK                            x       y       z     vdW  Elec       q    Type
REMARK                         _______ _______ _______ _____ _____    ______ ____
ROOT
ATOM      1  S   UNL     1      33.815 -20.120 -20.374  0.00  0.00    -0.056 S 
ATOM      2  O   UNL     1      35.683 -16.424 -22.474  0.00  0.00    -0.252 OA
ATOM      3  N   UNL     1      36.034 -18.942 -20.986  0.00  0.00    -0.223 NA
ATOM      4  N   UNL     1      33.999 -17.862 -21.693  0.00  0.00    -0.248 N 
ATOM      5  N   UNL     1      33.428 -15.937 -22.842  0.00  0.00    -0.268 N 
ATOM      6  C   UNL     1      35.282 -20.834 -19.903  0.00  0.00    +0.031 C 
ATOM      7  C   UNL     1      36.350 -20.097 -20.296  0.00  0.00    +0.103 C 
ATOM      8  C   UNL     1      34.727 -18.852 -21.086  0.00  0.00    +0.166 C 
ATOM      9  C   UNL     1      34.496 -16.706 -22.352  0.00  0.00    +0.310 C 
ATOM     10  H   UNL     1      33.019 -17.963 -21.669  0.00  0.00    +0.158 HD
ATOM     11  H   UNL     1      32.526 -16.290 -22.667  0.00  0.00    +0.156 HD
ENDROOT
BRANCH   5  12
ATOM     12  C   UNL     1      33.489 -14.716 -23.555  0.00  0.00    +0.052 C 
ATOM     13  C   UNL     1      33.413 -13.525 -25.637  0.00  0.00    +0.073 C 
ATOM     14  C   UNL     1      33.354 -14.729 -24.934  0.00  0.00    +0.019 C 
ATOM     15  C   UNL     1      33.680 -13.534 -22.860  0.00  0.00    +0.015 C 
ATOM     16  C   UNL     1      33.605 -12.326 -24.951  0.00  0.00    +0.004 C 
ATOM     17  C   UNL     1      33.739 -12.330 -23.562  0.00  0.00    +0.001 C 
BRANCH  13  21
ATOM     18  F   UNL     1      32.217 -12.770 -27.567  0.00  0.00    -0.166 F 
ATOM     19  F   UNL     1      34.361 -13.025 -27.774  0.00  0.00    -0.166 F 
ATOM     20  F   UNL     1      33.071 -14.769 -27.634  0.00  0.00    -0.166 F 
ATOM     21  C   UNL     1      33.269 -13.520 -27.121  0.00  0.00    +0.419 C 
ENDBRANCH  13  21
ENDBRANCH   5  12
BRANCH   6  22
ATOM     22  C   UNL     1      35.265 -22.137 -19.137  0.00  0.00    +0.056 C 
BRANCH  22  23
ATOM     23  C   UNL     1      33.848 -22.612 -18.816  0.00  0.00    +0.093 C 
BRANCH  23  24
ATOM     24  N   UNL     1      33.759 -23.091 -17.468  0.00  0.00    -0.320 N 
ATOM     25  N   UNL     1      33.421 -24.090 -14.574  0.00  0.00    -0.220 N 
ATOM     26  N   UNL     1      32.911 -24.426 -13.373  0.00  0.00    -0.178 NA
ATOM     27  N   UNL     1      31.413 -22.663 -17.303  0.00  0.00    -0.232 NA
ATOM     28  N   UNL     1      30.137 -23.143 -15.281  0.00  0.00    -0.245 NA
ATOM     29  C   UNL     1      32.500 -23.578 -15.440  0.00  0.00    +0.185 C 
ATOM     30  C   UNL     1      32.558 -23.111 -16.740  0.00  0.00    +0.128 C 
ATOM     31  C   UNL     1      31.300 -23.583 -14.748  0.00  0.00    +0.103 C 
ATOM     32  C   UNL     1      31.615 -24.114 -13.485  0.00  0.00    +0.134 C 
ATOM     33  C   UNL     1      34.830 -24.296 -14.812  0.00  0.00    +0.135 C 
ATOM     34  C   UNL     1      30.289 -22.706 -16.550  0.00  0.00    +0.251 C 
ATOM     35  H   UNL     1      34.578 -23.422 -17.033  0.00  0.00    +0.148 HD
ENDBRANCH  23  24
ENDBRANCH  22  23
ENDBRANCH   6  22
TORSDOF 5
ENDMDL
MODEL 4
REMARK VINA RESULT:     -11.8      6.724     13.208
REMARK  Name = 15602701
REMARK  5 active torsions:
REMARK  status: ('A' for Active; 'I' for Inactive)
REMARK    1  A    between atoms: N_5  and  C_12
REMARK    2  A    between atoms: C_6  and  C_22
REMARK    3  A    between atoms: C_13  and  C_21
REMARK    4  A    between atoms: C_22  and  C_23
REMARK    5  A    between atoms: C_23  and  N_24
REMARK                            x       y       z     vdW  Elec       q    Type
REMARK                         _______ _______ _______ _____ _____    ______ ____
ROOT
ATOM      1  S   UNL     1      33.816 -15.788 -24.868  0.00  0.00    -0.056 S 
ATOM      2  O   UNL     1      35.128 -17.167 -20.633  0.00  0.00    -0.252 OA
ATOM      3  N   UNL     1      34.443 -14.986 -22.491  0.00  0.00    -0.223 NA
ATOM      4  N   UNL     1      34.492 -17.363 -22.885  0.00  0.00    -0.248 N 
ATOM      5  N   UNL     1      34.976 -19.262 -21.655  0.00  0.00    -0.268 N 
ATOM      6  C   UNL     1      33.798 -14.124 -24.531  0.00  0.00    +0.031 C 
ATOM      7  C   UNL     1      34.151 -13.867 -23.247  0.00  0.00    +0.103 C 
ATOM      8  C   UNL     1      34.300 -16.055 -23.243  0.00  0.00    +0.166 C 
ATOM      9  C   UNL     1      34.892 -17.860 -21.616  0.00  0.00    +0.310 C 
ATOM     10  H   UNL     1      34.336 -18.036 -23.588  0.00  0.00    +0.158 HD
ATOM     11  H   UNL     1      34.756 -19.684 -22.517  0.00  0.00    +0.156 HD
ENDROOT
BRANCH   5  12
ATOM     12  C   UNL     1      35.337 -20.143 -20.608  0.00  0.00    +0.052 C 
ATOM     13  C   UNL     1      34.714 -21.779 -18.967  0.00  0.00    +0.073 C 
ATOM     14  C   UNL     1      34.357 -20.910 -19.998  0.00  0.00    +0.019 C 
ATOM     15  C   UNL     1      36.663 -20.221 -20.216  0.00  0.00    +0.015 C 
ATOM     16  C   UNL     1      36.046 -21.870 -18.560  0.00  0.00    +0.004 C 
ATOM     17  C   UNL     1      37.020 -21.090 -19.184  0.00  0.00    +0.001 C 
BRANCH  13  21
ATOM     18  F   UNL     1      33.900 -22.810 -16.967  0.00  0.00    -0.166 F 
ATOM     19  F   UNL     1      32.418 -22.080 -18.371  0.00  0.00    -0.166 F 
ATOM     20  F   UNL     1      33.573 -23.861 -18.842  0.00  0.00    -0.166 F 
ATOM     21  C   UNL     1      33.673 -22.612 -18.299  0.00  0.00    +0.419 C 
ENDBRANCH  13  21
ENDBRANCH   5  12
BRANCH   6  22
ATOM     22  C   UNL     1      33.421 -13.147 -25.619  0.00  0.00    +0.056 C 
BRANCH  22  23
ATOM     23  C   UNL     1      33.929 -11.732 -25.342  0.00  0.00    +0.093 C 
BRANCH  23  24
ATOM     24  N   UNL     1      33.283 -11.169 -24.194  0.00  0.00    -0.320 N 
ATOM     25  N   UNL     1      31.976  -9.832 -21.746  0.00  0.00    -0.220 N 
ATOM     26  N   UNL     1      31.640  -8.964 -20.773  0.00  0.00    -0.178 NA
ATOM     27  N   UNL     1      34.495  -9.112 -24.325  0.00  0.00    -0.232 NA
ATOM     28  N   UNL     1      34.159  -7.294 -22.735  0.00  0.00    -0.245 NA
ATOM     29  C   UNL     1      32.933  -9.362 -22.597  0.00  0.00    +0.185 C 
ATOM     30  C   UNL     1      33.571  -9.882 -23.708  0.00  0.00    +0.128 C 
ATOM     31  C   UNL     1      33.239  -8.090 -22.141  0.00  0.00    +0.103 C 
ATOM     32  C   UNL     1      32.415  -7.902 -21.019  0.00  0.00    +0.134 C 
ATOM     33  C   UNL     1      31.319 -11.118 -21.787  0.00  0.00    +0.135 C 
ATOM     34  C   UNL     1      34.729  -7.883 -23.808  0.00  0.00    +0.251 C 
ATOM     35  H   UNL     1      32.606 -11.707 -23.725  0.00  0.00    +0.148 HD
ENDBRANCH  23  24
ENDBRANCH  22  23
ENDBRANCH   6  22
TORSDOF 5
ENDMDL
MODEL 5
REMARK VINA RESULT:     -11.8      3.313      5.925
REMARK  Name = 15602701
REMARK  5 active torsions:
REMARK  status: ('A' for Active; 'I' for Inactive)
REMARK    1  A    between atoms: N_5  and  C_12
REMARK    2  A    between atoms: C_6  and  C_22
REMARK    3  A    between atoms: C_13  and  C_21
REMARK    4  A    between atoms: C_22  and  C_23
REMARK    5  A    between atoms: C_23  and  N_24
REMARK                            x       y       z     vdW  Elec       q    Type
REMARK                         _______ _______ _______ _____ _____    ______ ____
ROOT
ATOM      1  S   UNL     1      33.634 -19.836 -20.623  0.00  0.00    -0.056 S 
ATOM      2  O   UNL     1      35.291 -15.702 -21.935  0.00  0.00    -0.252 OA
ATOM      3  N   UNL     1      35.782 -18.436 -20.952  0.00  0.00    -0.223 NA
ATOM      4  N   UNL     1      33.691 -17.360 -21.479  0.00  0.00    -0.248 N 
ATOM      5  N   UNL     1      33.014 -15.285 -22.248  0.00  0.00    -0.268 N 
ATOM      6  C   UNL     1      35.137 -20.542 -20.268  0.00  0.00    +0.031 C 
ATOM      7  C   UNL     1      36.161 -19.681 -20.491  0.00  0.00    +0.103 C 
ATOM      8  C   UNL     1      34.472 -18.404 -21.059  0.00  0.00    +0.166 C 
ATOM      9  C   UNL     1      34.123 -16.071 -21.893  0.00  0.00    +0.310 C 
ATOM     10  H   UNL     1      32.719 -17.520 -21.495  0.00  0.00    +0.158 HD
ATOM     11  H   UNL     1      32.133 -15.717 -22.162  0.00  0.00    +0.156 HD
ENDROOT
BRANCH   5  12
ATOM     12  C   UNL     1      33.007 -13.948 -22.711  0.00  0.00    +0.052 C 
ATOM     13  C   UNL     1      32.193 -11.698 -22.536  0.00  0.00    +0.073 C 
ATOM     14  C   UNL     1      32.199 -13.016 -22.079  0.00  0.00    +0.019 C 
ATOM     15  C   UNL     1      33.808 -13.599 -23.785  0.00  0.00    +0.015 C 
ATOM     16  C   UNL     1      32.994 -11.329 -23.617  0.00  0.00    +0.004 C 
ATOM     17  C   UNL     1      33.801 -12.281 -24.242  0.00  0.00    +0.001 C 
BRANCH  13  21
ATOM     18  F   UNL     1      30.300 -11.221 -21.152  0.00  0.00    -0.166 F 
ATOM     19  F   UNL     1      32.005  -9.891 -20.980  0.00  0.00    -0.166 F 
ATOM     20  F   UNL     1      30.749  -9.821 -22.754  0.00  0.00    -0.166 F 
ATOM     21  C   UNL     1      31.331 -10.680 -21.868  0.00  0.00    +0.419 C 
ENDBRANCH  13  21
ENDBRANCH   5  12
BRANCH   6  22
ATOM     22  C   UNL     1      35.192 -21.967 -19.768  0.00  0.00    +0.056 C 
BRANCH  22  23
ATOM     23  C   UNL     1      33.866 -22.433 -19.170  0.00  0.00    +0.093 C 
BRANCH  23  24
ATOM     24  N   UNL     1      34.041 -22.896 -17.825  0.00  0.00    -0.320 N 
ATOM     25  N   UNL     1      34.271 -23.882 -14.916  0.00  0.00    -0.220 N 
ATOM     26  N   UNL     1      33.994 -24.259 -13.653  0.00  0.00    -0.178 NA
ATOM     27  N   UNL     1      31.711 -22.767 -17.308  0.00  0.00    -0.232 NA
ATOM     28  N   UNL     1      30.824 -23.371 -15.118  0.00  0.00    -0.245 NA
ATOM     29  C   UNL     1      33.172 -23.505 -15.632  0.00  0.00    +0.185 C 
ATOM     30  C   UNL     1      32.975 -23.056 -16.925  0.00  0.00    +0.128 C 
ATOM     31  C   UNL     1      32.100 -23.651 -14.767  0.00  0.00    +0.103 C 
ATOM     32  C   UNL     1      32.667 -24.116 -13.567  0.00  0.00    +0.134 C 
ATOM     33  C   UNL     1      35.643 -23.911 -15.364  0.00  0.00    +0.135 C 
ATOM     34  C   UNL     1      30.727 -22.940 -16.394  0.00  0.00    +0.251 C 
ATOM     35  H   UNL     1      34.951 -23.113 -17.519  0.00  0.00    +0.148 HD
ENDBRANCH  23  24
ENDBRANCH  22  23
ENDBRANCH   6  22
TORSDOF 5
ENDMDL
MODEL 6
REMARK VINA RESULT:     -11.6      3.439      5.701
REMARK  Name = 15602701
REMARK  5 active torsions:
REMARK  status: ('A' for Active; 'I' for Inactive)
REMARK    1  A    between atoms: N_5  and  C_12
REMARK    2  A    between atoms: C_6  and  C_22
REMARK    3  A    between atoms: C_13  and  C_21
REMARK    4  A    between atoms: C_22  and  C_23
REMARK    5  A    between atoms: C_23  and  N_24
REMARK                            x       y       z     vdW  Elec       q    Type
REMARK                         _______ _______ _______ _____ _____    ______ ____
ROOT
ATOM      1  S   UNL     1      33.674 -19.780 -20.861  0.00  0.00    -0.056 S 
ATOM      2  O   UNL     1      35.289 -15.553 -21.904  0.00  0.00    -0.252 OA
ATOM      3  N   UNL     1      35.790 -18.298 -20.958  0.00  0.00    -0.223 NA
ATOM      4  N   UNL     1      33.715 -17.277 -21.639  0.00  0.00    -0.248 N 
ATOM      5  N   UNL     1      33.034 -15.203 -22.407  0.00  0.00    -0.268 N 
ATOM      6  C   UNL     1      35.164 -20.445 -20.394  0.00  0.00    +0.031 C 
ATOM      7  C   UNL     1      36.172 -19.543 -20.500  0.00  0.00    +0.103 C 
ATOM      8  C   UNL     1      34.495 -18.307 -21.181  0.00  0.00    +0.166 C 
ATOM      9  C   UNL     1      34.135 -15.962 -21.977  0.00  0.00    +0.310 C 
ATOM     10  H   UNL     1      32.755 -17.470 -21.746  0.00  0.00    +0.158 HD
ATOM     11  H   UNL     1      32.166 -15.667 -22.413  0.00  0.00    +0.156 HD
ENDROOT
BRANCH   5  12
ATOM     12  C   UNL     1      33.019 -13.854 -22.832  0.00  0.00    +0.052 C 
ATOM     13  C   UNL     1      32.215 -11.608 -22.573  0.00  0.00    +0.073 C 
ATOM     14  C   UNL     1      32.229 -12.938 -22.154  0.00  0.00    +0.019 C 
ATOM     15  C   UNL     1      33.795 -13.475 -23.915  0.00  0.00    +0.015 C 
ATOM     16  C   UNL     1      32.991 -11.210 -23.662  0.00  0.00    +0.004 C 
ATOM     17  C   UNL     1      33.780 -12.144 -24.333  0.00  0.00    +0.001 C 
BRANCH  13  21
ATOM     18  F   UNL     1      30.641  -9.809 -22.688  0.00  0.00    -0.166 F 
ATOM     19  F   UNL     1      30.459 -11.171 -21.009  0.00  0.00    -0.166 F 
ATOM     20  F   UNL     1      32.108  -9.756 -21.084  0.00  0.00    -0.166 F 
ATOM     21  C   UNL     1      31.372 -10.609 -21.855  0.00  0.00    +0.419 C 
ENDBRANCH  13  21
ENDBRANCH   5  12
BRANCH   6  22
ATOM     22  C   UNL     1      35.227 -21.882 -19.931  0.00  0.00    +0.056 C 
BRANCH  22  23
ATOM     23  C   UNL     1      35.677 -22.012 -18.477  0.00  0.00    +0.093 C 
BRANCH  23  24
ATOM     24  N   UNL     1      34.606 -22.476 -17.646  0.00  0.00    -0.320 N 
ATOM     25  N   UNL     1      32.406 -23.527 -15.763  0.00  0.00    -0.220 N 
ATOM     26  N   UNL     1      31.746 -24.104 -14.741  0.00  0.00    -0.178 NA
ATOM     27  N   UNL     1      36.072 -23.416 -16.008  0.00  0.00    -0.232 NA
ATOM     28  N   UNL     1      35.247 -24.545 -14.011  0.00  0.00    -0.245 NA
ATOM     29  C   UNL     1      33.763 -23.600 -15.655  0.00  0.00    +0.185 C 
ATOM     30  C   UNL     1      34.815 -23.162 -16.438  0.00  0.00    +0.128 C 
ATOM     31  C   UNL     1      34.003 -24.275 -14.469  0.00  0.00    +0.103 C 
ATOM     32  C   UNL     1      32.726 -24.559 -13.953  0.00  0.00    +0.134 C 
ATOM     33  C   UNL     1      31.641 -22.917 -16.827  0.00  0.00    +0.135 C 
ATOM     34  C   UNL     1      36.208 -24.083 -14.837  0.00  0.00    +0.251 C 
ATOM     35  H   UNL     1      33.680 -22.305 -17.934  0.00  0.00    +0.148 HD
ENDBRANCH  23  24
ENDBRANCH  22  23
ENDBRANCH   6  22
TORSDOF 5
ENDMDL
MODEL 7
REMARK VINA RESULT:     -11.5      1.374      2.482
REMARK  Name = 15602701
REMARK  5 active torsions:
REMARK  status: ('A' for Active; 'I' for Inactive)
REMARK    1  A    between atoms: N_5  and  C_12
REMARK    2  A    between atoms: C_6  and  C_22
REMARK    3  A    between atoms: C_13  and  C_21
REMARK    4  A    between atoms: C_22  and  C_23
REMARK    5  A    between atoms: C_23  and  N_24
REMARK                            x       y       z     vdW  Elec       q    Type
REMARK                         _______ _______ _______ _____ _____    ______ ____
ROOT
ATOM      1  S   UNL     1      35.460 -22.061 -18.471  0.00  0.00    -0.056 S 
ATOM      2  O   UNL     1      32.918 -19.546 -21.432  0.00  0.00    -0.252 OA
ATOM      3  N   UNL     1      33.056 -21.519 -19.250  0.00  0.00    -0.223 NA
ATOM      4  N   UNL     1      34.848 -20.369 -20.376  0.00  0.00    -0.248 N 
ATOM      5  N   UNL     1      35.040 -18.810 -22.075  0.00  0.00    -0.268 N 
ATOM      6  C   UNL     1      34.157 -22.841 -17.713  0.00  0.00    +0.031 C 
ATOM      7  C   UNL     1      32.966 -22.451 -18.234  0.00  0.00    +0.103 C 
ATOM      8  C   UNL     1      34.322 -21.240 -19.459  0.00  0.00    +0.166 C 
ATOM      9  C   UNL     1      34.138 -19.569 -21.312  0.00  0.00    +0.310 C 
ATOM     10  H   UNL     1      35.830 -20.287 -20.389  0.00  0.00    +0.158 HD
ATOM     11  H   UNL     1      35.995 -18.933 -21.866  0.00  0.00    +0.156 HD
ENDROOT
BRANCH   5  12
ATOM     12  C   UNL     1      34.747 -17.890 -23.110  0.00  0.00    +0.052 C 
ATOM     13  C   UNL     1      34.162 -15.669 -23.805  0.00  0.00    +0.073 C 
ATOM     14  C   UNL     1      34.451 -16.576 -22.785  0.00  0.00    +0.019 C 
ATOM     15  C   UNL     1      34.765 -18.321 -24.426  0.00  0.00    +0.015 C 
ATOM     16  C   UNL     1      34.176 -16.088 -25.136  0.00  0.00    +0.004 C 
ATOM     17  C   UNL     1      34.477 -17.415 -25.446  0.00  0.00    +0.001 C 
BRANCH  13  21
ATOM     18  F   UNL     1      34.026 -13.389 -24.518  0.00  0.00    -0.166 F 
ATOM     19  F   UNL     1      32.548 -14.060 -23.081  0.00  0.00    -0.166 F 
ATOM     20  F   UNL     1      34.610 -13.762 -22.457  0.00  0.00    -0.166 F 
ATOM     21  C   UNL     1      33.842 -14.251 -23.474  0.00  0.00    +0.419 C 
ENDBRANCH  13  21
ENDBRANCH   5  12
BRANCH   6  22
ATOM     22  C   UNL     1      34.423 -23.833 -16.605  0.00  0.00    +0.056 C 
BRANCH  22  23
ATOM     23  C   UNL     1      33.985 -23.315 -15.235  0.00  0.00    +0.093 C 
BRANCH  23  24
ATOM     24  N   UNL     1      34.997 -23.551 -14.248  0.00  0.00    -0.320 N 
ATOM     25  N   UNL     1      37.212 -24.181 -12.203  0.00  0.00    -0.220 N 
ATOM     26  N   UNL     1      38.230 -24.758 -11.536  0.00  0.00    -0.178 NA
ATOM     27  N   UNL     1      35.756 -25.570 -15.279  0.00  0.00    -0.232 NA
ATOM     28  N   UNL     1      37.584 -26.898 -14.362  0.00  0.00    -0.245 NA
ATOM     29  C   UNL     1      36.827 -24.864 -13.319  0.00  0.00    +0.185 C 
ATOM     30  C   UNL     1      35.859 -24.660 -14.284  0.00  0.00    +0.128 C 
ATOM     31  C   UNL     1      37.661 -25.969 -13.381  0.00  0.00    +0.103 C 
ATOM     32  C   UNL     1      38.500 -25.850 -12.260  0.00  0.00    +0.134 C 
ATOM     33  C   UNL     1      36.655 -22.951 -11.690  0.00  0.00    +0.135 C 
ATOM     34  C   UNL     1      36.613 -26.618 -15.257  0.00  0.00    +0.251 C 
ATOM     35  H   UNL     1      35.094 -22.905 -13.512  0.00  0.00    +0.148 HD
ENDBRANCH  23  24
ENDBRANCH  22  23
ENDBRANCH   6  22
TORSDOF 5
ENDMDL
MODEL 8
REMARK VINA RESULT:     -11.5      3.308      5.913
REMARK  Name = 15602701
REMARK  5 active torsions:
REMARK  status: ('A' for Active; 'I' for Inactive)
REMARK    1  A    between atoms: N_5  and  C_12
REMARK    2  A    between atoms: C_6  and  C_22
REMARK    3  A    between atoms: C_13  and  C_21
REMARK    4  A    between atoms: C_22  and  C_23
REMARK    5  A    between atoms: C_23  and  N_24
REMARK                            x       y       z     vdW  Elec       q    Type
REMARK                         _______ _______ _______ _____ _____    ______ ____
ROOT
ATOM      1  S   UNL     1      34.225 -19.634 -20.800  0.00  0.00    -0.056 S 
ATOM      2  O   UNL     1      35.808 -16.189 -23.480  0.00  0.00    -0.252 OA
ATOM      3  N   UNL     1      36.352 -18.471 -21.697  0.00  0.00    -0.223 NA
ATOM      4  N   UNL     1      34.235 -17.570 -22.414  0.00  0.00    -0.248 N 
ATOM      5  N   UNL     1      33.517 -15.838 -23.771  0.00  0.00    -0.268 N 
ATOM      6  C   UNL     1      35.745 -20.226 -20.329  0.00  0.00    +0.031 C 
ATOM      7  C   UNL     1      36.756 -19.509 -20.881  0.00  0.00    +0.103 C 
ATOM      8  C   UNL     1      35.038 -18.442 -21.728  0.00  0.00    +0.166 C 
ATOM      9  C   UNL     1      34.644 -16.496 -23.249  0.00  0.00    +0.310 C 
ATOM     10  H   UNL     1      33.263 -17.702 -22.317  0.00  0.00    +0.158 HD
ATOM     11  H   UNL     1      32.642 -16.197 -23.496  0.00  0.00    +0.156 HD
ENDROOT
BRANCH   5  12
ATOM     12  C   UNL     1      33.484 -14.723 -24.641  0.00  0.00    +0.052 C 
ATOM     13  C   UNL     1      33.699 -12.359 -24.991  0.00  0.00    +0.073 C 
ATOM     14  C   UNL     1      33.731 -13.458 -24.132  0.00  0.00    +0.019 C 
ATOM     15  C   UNL     1      33.209 -14.919 -25.984  0.00  0.00    +0.015 C 
ATOM     16  C   UNL     1      33.423 -12.539 -26.346  0.00  0.00    +0.004 C 
ATOM     17  C   UNL     1      33.177 -13.820 -26.842  0.00  0.00    +0.001 C 
BRANCH  13  21
ATOM     18  F   UNL     1      32.936 -10.114 -24.670  0.00  0.00    -0.166 F 
ATOM     19  F   UNL     1      34.187 -10.959 -23.114  0.00  0.00    -0.166 F 
ATOM     20  F   UNL     1      35.060 -10.409 -25.028  0.00  0.00    -0.166 F 
ATOM     21  C   UNL     1      33.963 -10.990 -24.460  0.00  0.00    +0.419 C 
ENDBRANCH  13  21
ENDBRANCH   5  12
BRANCH   6  22
ATOM     22  C   UNL     1      35.828 -21.413 -19.399  0.00  0.00    +0.056 C 
BRANCH  22  23
ATOM     23  C   UNL     1      34.463 -22.044 -19.126  0.00  0.00    +0.093 C 
BRANCH  23  24
ATOM     24  N   UNL     1      34.433 -22.669 -17.837  0.00  0.00    -0.320 N 
ATOM     25  N   UNL     1      34.218 -24.000 -15.068  0.00  0.00    -0.220 N 
ATOM     26  N   UNL     1      33.753 -24.516 -13.913  0.00  0.00    -0.178 NA
ATOM     27  N   UNL     1      32.054 -22.525 -17.647  0.00  0.00    -0.232 NA
ATOM     28  N   UNL     1      30.846 -23.354 -15.698  0.00  0.00    -0.245 NA
ATOM     29  C   UNL     1      33.242 -23.505 -15.882  0.00  0.00    +0.185 C 
ATOM     30  C   UNL     1      33.244 -22.899 -17.125  0.00  0.00    +0.128 C 
ATOM     31  C   UNL     1      32.053 -23.717 -15.204  0.00  0.00    +0.103 C 
ATOM     32  C   UNL     1      32.430 -24.340 -14.002  0.00  0.00    +0.134 C 
ATOM     33  C   UNL     1      35.641 -24.022 -15.315  0.00  0.00    +0.135 C 
ATOM     34  C   UNL     1      30.944 -22.772 -16.912  0.00  0.00    +0.251 C 
ATOM     35  H   UNL     1      35.284 -22.952 -17.433  0.00  0.00    +0.148 HD
ENDBRANCH  23  24
ENDBRANCH  22  23
ENDBRANCH   6  22
TORSDOF 5
ENDMDL
MODEL 9
REMARK VINA RESULT:     -11.4      1.616      2.070
REMARK  Name = 15602701
REMARK  5 active torsions:
REMARK  status: ('A' for Active; 'I' for Inactive)
REMARK    1  A    between atoms: N_5  and  C_12
REMARK    2  A    between atoms: C_6  and  C_22
REMARK    3  A    between atoms: C_13  and  C_21
REMARK    4  A    between atoms: C_22  and  C_23
REMARK    5  A    between atoms: C_23  and  N_24
REMARK                            x       y       z     vdW  Elec       q    Type
REMARK                         _______ _______ _______ _____ _____    ______ ____
ROOT
ATOM      1  S   UNL     1      34.118 -23.302 -16.668  0.00  0.00    -0.056 S 
ATOM      2  O   UNL     1      32.598 -20.408 -19.966  0.00  0.00    -0.252 OA
ATOM      3  N   UNL     1      32.012 -22.307 -17.792  0.00  0.00    -0.223 NA
ATOM      4  N   UNL     1      34.146 -21.574 -18.639  0.00  0.00    -0.248 N 
ATOM      5  N   UNL     1      34.896 -20.134 -20.288  0.00  0.00    -0.268 N 
ATOM      6  C   UNL     1      32.587 -23.781 -16.113  0.00  0.00    +0.031 C 
ATOM      7  C   UNL     1      31.589 -23.174 -16.803  0.00  0.00    +0.103 C 
ATOM      8  C   UNL     1      33.326 -22.295 -17.812  0.00  0.00    +0.166 C 
ATOM      9  C   UNL     1      33.757 -20.674 -19.667  0.00  0.00    +0.310 C 
ATOM     10  H   UNL     1      35.115 -21.694 -18.507  0.00  0.00    +0.158 HD
ATOM     11  H   UNL     1      35.764 -20.442 -19.940  0.00  0.00    +0.156 HD
ENDROOT
BRANCH   5  12
ATOM     12  C   UNL     1      34.949 -19.203 -21.352  0.00  0.00    +0.052 C 
ATOM     13  C   UNL     1      34.706 -18.708 -23.687  0.00  0.00    +0.073 C 
ATOM     14  C   UNL     1      34.654 -19.626 -22.638  0.00  0.00    +0.019 C 
ATOM     15  C   UNL     1      35.293 -17.888 -21.086  0.00  0.00    +0.015 C 
ATOM     16  C   UNL     1      35.051 -17.379 -23.436  0.00  0.00    +0.004 C 
ATOM     17  C   UNL     1      35.345 -16.970 -22.135  0.00  0.00    +0.001 C 
BRANCH  13  21
ATOM     18  F   UNL     1      34.887 -20.379 -25.390  0.00  0.00    -0.166 F 
ATOM     19  F   UNL     1      33.052 -19.224 -25.335  0.00  0.00    -0.166 F 
ATOM     20  F   UNL     1      34.896 -18.298 -26.022  0.00  0.00    -0.166 F 
ATOM     21  C   UNL     1      34.391 -19.145 -25.078  0.00  0.00    +0.419 C 
ENDBRANCH  13  21
ENDBRANCH   5  12
BRANCH   6  22
ATOM     22  C   UNL     1      32.482 -24.775 -14.980  0.00  0.00    +0.056 C 
BRANCH  22  23
ATOM     23  C   UNL     1      33.433 -24.457 -13.828  0.00  0.00    +0.093 C 
BRANCH  23  24
ATOM     24  N   UNL     1      34.730 -25.022 -14.059  0.00  0.00    -0.320 N 
ATOM     25  N   UNL     1      37.571 -26.146 -14.450  0.00  0.00    -0.220 N 
ATOM     26  N   UNL     1      38.893 -26.380 -14.353  0.00  0.00    -0.178 NA
ATOM     27  N   UNL     1      35.802 -23.629 -12.439  0.00  0.00    -0.232 NA
ATOM     28  N   UNL     1      38.193 -23.760 -11.980  0.00  0.00    -0.245 NA
ATOM     29  C   UNL     1      37.120 -25.169 -13.612  0.00  0.00    +0.185 C 
ATOM     30  C   UNL     1      35.881 -24.607 -13.369  0.00  0.00    +0.128 C 
ATOM     31  C   UNL     1      38.238 -24.736 -12.916  0.00  0.00    +0.103 C 
ATOM     32  C   UNL     1      39.296 -25.516 -13.415  0.00  0.00    +0.134 C 
ATOM     33  C   UNL     1      36.796 -26.920 -15.392  0.00  0.00    +0.135 C 
ATOM     34  C   UNL     1      36.946 -23.271 -11.810  0.00  0.00    +0.251 C 
ATOM     35  H   UNL     1      34.817 -25.736 -14.731  0.00  0.00    +0.148 HD
ENDBRANCH  23  24
ENDBRANCH  22  23
ENDBRANCH   6  22
TORSDOF 5
ENDMDL
