MODEL 1
REMARK VINA RESULT:      -8.2      0.000      0.000
REMARK  Name = 1337
REMARK  8 active torsions:
REMARK  status: ('A' for Active; 'I' for Inactive)
REMARK    1  A    between atoms: C_1  and  C_7
REMARK    2  A    between atoms: C_2  and  C_16
REMARK    3  A    between atoms: C_7  and  C_8
REMARK    4  A    between atoms: C_8  and  S_9
REMARK    5  A    between atoms: S_9  and  C_12
REMARK    6  A    between atoms: C_16  and  C_17
REMARK    7  A    between atoms: C_17  and  S_18
REMARK    8  A    between atoms: S_18  and  C_21
REMARK                            x       y       z     vdW  Elec       q    Type
REMARK                         _______ _______ _______ _____ _____    ______ ____
ROOT
ATOM      1  C   UNL     1      34.976 -20.238 -20.512  0.00  0.00    -0.021 C 
ATOM      2  C   UNL     1      33.993 -22.167 -18.753  0.00  0.00    -0.021 C 
ATOM      3  C   UNL     1      35.861 -21.055 -19.807  0.00  0.00    -0.005 C 
ATOM      4  C   UNL     1      35.368 -22.019 -18.928  0.00  0.00    -0.005 C 
ATOM      5  C   UNL     1      33.601 -20.385 -20.337  0.00  0.00    -0.005 C 
ATOM      6  C   UNL     1      33.108 -21.350 -19.458  0.00  0.00    -0.005 C 
ENDROOT
BRANCH   1   7
ATOM      7  C   UNL     1      35.502 -19.207 -21.453  0.00  0.00    +0.038 C 
BRANCH   7   8
ATOM      8  C   UNL     1      34.441 -18.539 -22.344  0.00  0.00    +0.070 C 
BRANCH   8   9
ATOM      9  S   UNL     1      34.796 -18.740 -24.117  0.00  0.00    -0.081 S 
BRANCH   9  12
ATOM     10  N   UNL     1      35.391 -16.200 -23.755  0.00  0.00    -0.338 N 
ATOM     11  N   UNL     1      34.382 -16.733 -25.823  0.00  0.00    -0.280 NA
ATOM     12  C   UNL     1      34.841 -17.065 -24.658  0.00  0.00    +0.145 C 
ATOM     13  H   UNL     1      35.717 -16.536 -22.889  0.00  0.00    +0.144 HD
ATOM     14  H   UNL     1      35.461 -15.242 -23.969  0.00  0.00    +0.144 HD
ATOM     15  H   UNL     1      34.000 -17.420 -26.416  0.00  0.00    +0.189 HD
ENDBRANCH   9  12
ENDBRANCH   8   9
ENDBRANCH   7   8
ENDBRANCH   1   7
BRANCH   2  16
ATOM     16  C   UNL     1      33.467 -23.198 -17.812  0.00  0.00    +0.038 C 
BRANCH  16  17
ATOM     17  C   UNL     1      34.170 -23.249 -16.445  0.00  0.00    +0.070 C 
BRANCH  17  18
ATOM     18  S   UNL     1      32.999 -23.473 -15.069  0.00  0.00    -0.081 S 
BRANCH  18  21
ATOM     19  N   UNL     1      34.856 -25.149 -14.245  0.00  0.00    -0.338 N 
ATOM     20  N   UNL     1      34.023 -23.657 -12.615  0.00  0.00    -0.280 NA
ATOM     21  C   UNL     1      34.049 -24.132 -13.819  0.00  0.00    +0.145 C 
ATOM     22  H   UNL     1      34.814 -25.451 -15.181  0.00  0.00    +0.144 HD
ATOM     23  H   UNL     1      35.479 -25.579 -13.616  0.00  0.00    +0.144 HD
ATOM     24  H   UNL     1      33.409 -22.920 -12.390  0.00  0.00    +0.189 HD
ENDBRANCH  18  21
ENDBRANCH  17  18
ENDBRANCH  16  17
ENDBRANCH   2  16
TORSDOF 8
ENDMDL
MODEL 2
REMARK VINA RESULT:      -8.1      1.830      1.964
REMARK  Name = 1337
REMARK  8 active torsions:
REMARK  status: ('A' for Active; 'I' for Inactive)
REMARK    1  A    between atoms: C_1  and  C_7
REMARK    2  A    between atoms: C_2  and  C_16
REMARK    3  A    between atoms: C_7  and  C_8
REMARK    4  A    between atoms: C_8  and  S_9
REMARK    5  A    between atoms: S_9  and  C_12
REMARK    6  A    between atoms: C_16  and  C_17
REMARK    7  A    between atoms: C_17  and  S_18
REMARK    8  A    between atoms: S_18  and  C_21
REMARK                            x       y       z     vdW  Elec       q    Type
REMARK                         _______ _______ _______ _____ _____    ______ ____
ROOT
ATOM      1  C   UNL     1      34.809 -20.320 -20.633  0.00  0.00    -0.021 C 
ATOM      2  C   UNL     1      34.308 -22.117 -18.559  0.00  0.00    -0.021 C 
ATOM      3  C   UNL     1      35.873 -20.900 -19.940  0.00  0.00    -0.005 C 
ATOM      4  C   UNL     1      35.621 -21.798 -18.903  0.00  0.00    -0.005 C 
ATOM      5  C   UNL     1      33.497 -20.639 -20.289  0.00  0.00    -0.005 C 
ATOM      6  C   UNL     1      33.245 -21.538 -19.252  0.00  0.00    -0.005 C 
ENDROOT
BRANCH   1   7
ATOM      7  C   UNL     1      35.077 -19.359 -21.742  0.00  0.00    +0.038 C 
BRANCH   7   8
ATOM      8  C   UNL     1      35.565 -17.971 -21.295  0.00  0.00    +0.070 C 
BRANCH   8   9
ATOM      9  S   UNL     1      34.246 -16.718 -21.355  0.00  0.00    -0.081 S 
BRANCH   9  12
ATOM     10  N   UNL     1      34.459 -14.360 -22.508  0.00  0.00    -0.338 N 
ATOM     11  N   UNL     1      35.509 -16.151 -23.632  0.00  0.00    -0.280 NA
ATOM     12  C   UNL     1      34.814 -15.672 -22.651  0.00  0.00    +0.145 C 
ATOM     13  H   UNL     1      33.927 -14.077 -21.729  0.00  0.00    +0.144 HD
ATOM     14  H   UNL     1      34.732 -13.699 -23.183  0.00  0.00    +0.144 HD
ATOM     15  H   UNL     1      35.724 -17.112 -23.661  0.00  0.00    +0.189 HD
ENDBRANCH   9  12
ENDBRANCH   8   9
ENDBRANCH   7   8
ENDBRANCH   1   7
BRANCH   2  16
ATOM     16  C   UNL     1      34.040 -23.078 -17.451  0.00  0.00    +0.038 C 
BRANCH  16  17
ATOM     17  C   UNL     1      35.023 -22.999 -16.270  0.00  0.00    +0.070 C 
BRANCH  17  18
ATOM     18  S   UNL     1      34.697 -24.267 -15.007  0.00  0.00    -0.081 S 
BRANCH  18  21
ATOM     19  N   UNL     1      35.894 -26.613 -14.943  0.00  0.00    -0.338 N 
ATOM     20  N   UNL     1      37.281 -24.765 -15.435  0.00  0.00    -0.280 NA
ATOM     21  C   UNL     1      36.129 -25.283 -15.151  0.00  0.00    +0.145 C 
ATOM     22  H   UNL     1      34.985 -26.925 -14.731  0.00  0.00    +0.144 HD
ATOM     23  H   UNL     1      36.634 -27.258 -15.005  0.00  0.00    +0.144 HD
ATOM     24  H   UNL     1      37.364 -23.793 -15.570  0.00  0.00    +0.189 HD
ENDBRANCH  18  21
ENDBRANCH  17  18
ENDBRANCH  16  17
ENDBRANCH   2  16
TORSDOF 8
ENDMDL
MODEL 3
REMARK VINA RESULT:      -8.1      1.759      8.946
REMARK  Name = 1337
REMARK  8 active torsions:
REMARK  status: ('A' for Active; 'I' for Inactive)
REMARK    1  A    between atoms: C_1  and  C_7
REMARK    2  A    between atoms: C_2  and  C_16
REMARK    3  A    between atoms: C_7  and  C_8
REMARK    4  A    between atoms: C_8  and  S_9
REMARK    5  A    between atoms: S_9  and  C_12
REMARK    6  A    between atoms: C_16  and  C_17
REMARK    7  A    between atoms: C_17  and  S_18
REMARK    8  A    between atoms: S_18  and  C_21
REMARK                            x       y       z     vdW  Elec       q    Type
REMARK                         _______ _______ _______ _____ _____    ______ ____
ROOT
ATOM      1  C   UNL     1      34.210 -22.024 -18.719  0.00  0.00    -0.021 C 
ATOM      2  C   UNL     1      34.640 -20.162 -20.752  0.00  0.00    -0.021 C 
ATOM      3  C   UNL     1      35.510 -21.732 -19.135  0.00  0.00    -0.005 C 
ATOM      4  C   UNL     1      35.724 -20.801 -20.151  0.00  0.00    -0.005 C 
ATOM      5  C   UNL     1      33.126 -21.385 -19.320  0.00  0.00    -0.005 C 
ATOM      6  C   UNL     1      33.340 -20.454 -20.337  0.00  0.00    -0.005 C 
ENDROOT
BRANCH   1   7
ATOM      7  C   UNL     1      33.981 -23.019 -17.633  0.00  0.00    +0.038 C 
BRANCH   7   8
ATOM      8  C   UNL     1      34.973 -22.942 -16.460  0.00  0.00    +0.070 C 
BRANCH   8   9
ATOM      9  S   UNL     1      34.602 -24.152 -15.153  0.00  0.00    -0.081 S 
BRANCH   9  12
ATOM     10  N   UNL     1      35.802 -26.488 -14.956  0.00  0.00    -0.338 N 
ATOM     11  N   UNL     1      37.206 -24.649 -15.430  0.00  0.00    -0.280 NA
ATOM     12  C   UNL     1      36.042 -25.164 -15.192  0.00  0.00    +0.145 C 
ATOM     13  H   UNL     1      34.884 -26.798 -14.783  0.00  0.00    +0.144 HD
ATOM     14  H   UNL     1      36.546 -27.132 -14.959  0.00  0.00    +0.144 HD
ATOM     15  H   UNL     1      37.294 -23.682 -15.590  0.00  0.00    +0.189 HD
ENDBRANCH   9  12
ENDBRANCH   8   9
ENDBRANCH   7   8
ENDBRANCH   1   7
BRANCH   2  16
ATOM     16  C   UNL     1      34.870 -19.168 -21.839  0.00  0.00    +0.038 C 
BRANCH  16  17
ATOM     17  C   UNL     1      35.406 -17.805 -21.370  0.00  0.00    +0.070 C 
BRANCH  17  18
ATOM     18  S   UNL     1      34.167 -16.480 -21.519  0.00  0.00    -0.081 S 
BRANCH  18  21
ATOM     19  N   UNL     1      35.388 -16.339 -23.847  0.00  0.00    -0.338 N 
ATOM     20  N   UNL     1      34.663 -14.282 -22.942  0.00  0.00    -0.280 NA
ATOM     21  C   UNL     1      34.789 -15.569 -22.891  0.00  0.00    +0.145 C 
ATOM     22  H   UNL     1      35.443 -17.315 -23.731  0.00  0.00    +0.144 HD
ATOM     23  H   UNL     1      35.764 -15.918 -24.653  0.00  0.00    +0.144 HD
ATOM     24  H   UNL     1      34.216 -13.802 -22.208  0.00  0.00    +0.189 HD
ENDBRANCH  18  21
ENDBRANCH  17  18
ENDBRANCH  16  17
ENDBRANCH   2  16
TORSDOF 8
ENDMDL
MODEL 4
REMARK VINA RESULT:      -8.1      0.639      9.207
REMARK  Name = 1337
REMARK  8 active torsions:
REMARK  status: ('A' for Active; 'I' for Inactive)
REMARK    1  A    between atoms: C_1  and  C_7
REMARK    2  A    between atoms: C_2  and  C_16
REMARK    3  A    between atoms: C_7  and  C_8
REMARK    4  A    between atoms: C_8  and  S_9
REMARK    5  A    between atoms: S_9  and  C_12
REMARK    6  A    between atoms: C_16  and  C_17
REMARK    7  A    between atoms: C_17  and  S_18
REMARK    8  A    between atoms: S_18  and  C_21
REMARK                            x       y       z     vdW  Elec       q    Type
REMARK                         _______ _______ _______ _____ _____    ______ ____
ROOT
ATOM      1  C   UNL     1      34.088 -22.098 -18.943  0.00  0.00    -0.021 C 
ATOM      2  C   UNL     1      35.169 -20.080 -20.536  0.00  0.00    -0.021 C 
ATOM      3  C   UNL     1      35.472 -21.966 -19.058  0.00  0.00    -0.005 C 
ATOM      4  C   UNL     1      36.012 -20.957 -19.855  0.00  0.00    -0.005 C 
ATOM      5  C   UNL     1      33.245 -21.221 -19.624  0.00  0.00    -0.005 C 
ATOM      6  C   UNL     1      33.785 -20.212 -20.421  0.00  0.00    -0.005 C 
ENDROOT
BRANCH   1   7
ATOM      7  C   UNL     1      33.510 -23.177 -18.091  0.00  0.00    +0.038 C 
BRANCH   7   8
ATOM      8  C   UNL     1      33.992 -23.181 -16.630  0.00  0.00    +0.070 C 
BRANCH   8   9
ATOM      9  S   UNL     1      32.632 -23.441 -15.449  0.00  0.00    -0.081 S 
BRANCH   9  12
ATOM     10  N   UNL     1      34.703 -23.366 -13.824  0.00  0.00    -0.338 N 
ATOM     11  N   UNL     1      33.012 -24.916 -13.262  0.00  0.00    -0.280 NA
ATOM     12  C   UNL     1      33.505 -23.993 -14.025  0.00  0.00    +0.145 C 
ATOM     13  H   UNL     1      35.006 -22.672 -14.453  0.00  0.00    +0.144 HD
ATOM     14  H   UNL     1      35.262 -23.607 -13.051  0.00  0.00    +0.144 HD
ATOM     15  H   UNL     1      32.140 -25.319 -13.477  0.00  0.00    +0.189 HD
ENDBRANCH   9  12
ENDBRANCH   8   9
ENDBRANCH   7   8
ENDBRANCH   1   7
BRANCH   2  16
ATOM     16  C   UNL     1      35.747 -19.001 -21.388  0.00  0.00    +0.038 C 
BRANCH  16  17
ATOM     17  C   UNL     1      34.722 -18.207 -22.215  0.00  0.00    +0.070 C 
BRANCH  17  18
ATOM     18  S   UNL     1      34.951 -18.430 -24.007  0.00  0.00    -0.081 S 
BRANCH  18  21
ATOM     19  N   UNL     1      35.003 -15.820 -23.660  0.00  0.00    -0.338 N 
ATOM     20  N   UNL     1      34.389 -16.557 -25.818  0.00  0.00    -0.280 NA
ATOM     21  C   UNL     1      34.748 -16.783 -24.595  0.00  0.00    +0.145 C 
ATOM     22  H   UNL     1      35.272 -16.078 -22.749  0.00  0.00    +0.144 HD
ATOM     23  H   UNL     1      34.918 -14.869 -23.898  0.00  0.00    +0.144 HD
ATOM     24  H   UNL     1      34.224 -17.311 -26.430  0.00  0.00    +0.189 HD
ENDBRANCH  18  21
ENDBRANCH  17  18
ENDBRANCH  16  17
ENDBRANCH   2  16
TORSDOF 8
ENDMDL
MODEL 5
REMARK VINA RESULT:      -8.1      1.096      1.731
REMARK  Name = 1337
REMARK  8 active torsions:
REMARK  status: ('A' for Active; 'I' for Inactive)
REMARK    1  A    between atoms: C_1  and  C_7
REMARK    2  A    between atoms: C_2  and  C_16
REMARK    3  A    between atoms: C_7  and  C_8
REMARK    4  A    between atoms: C_8  and  S_9
REMARK    5  A    between atoms: S_9  and  C_12
REMARK    6  A    between atoms: C_16  and  C_17
REMARK    7  A    between atoms: C_17  and  S_18
REMARK    8  A    between atoms: S_18  and  C_21
REMARK                            x       y       z     vdW  Elec       q    Type
REMARK                         _______ _______ _______ _____ _____    ______ ____
ROOT
ATOM      1  C   UNL     1      35.031 -20.169 -20.580  0.00  0.00    -0.021 C 
ATOM      2  C   UNL     1      33.982 -22.077 -18.836  0.00  0.00    -0.021 C 
ATOM      3  C   UNL     1      33.650 -20.288 -20.425  0.00  0.00    -0.005 C 
ATOM      4  C   UNL     1      33.126 -21.242 -19.553  0.00  0.00    -0.005 C 
ATOM      5  C   UNL     1      35.887 -21.004 -19.863  0.00  0.00    -0.005 C 
ATOM      6  C   UNL     1      35.364 -21.958 -18.991  0.00  0.00    -0.005 C 
ENDROOT
BRANCH   1   7
ATOM      7  C   UNL     1      35.592 -19.149 -21.512  0.00  0.00    +0.038 C 
BRANCH   7   8
ATOM      8  C   UNL     1      34.554 -18.210 -22.149  0.00  0.00    +0.070 C 
BRANCH   8   9
ATOM      9  S   UNL     1      34.681 -16.506 -21.522  0.00  0.00    -0.081 S 
BRANCH   9  12
ATOM     10  N   UNL     1      35.312 -16.352 -24.074  0.00  0.00    -0.338 N 
ATOM     11  N   UNL     1      34.654 -14.326 -23.055  0.00  0.00    -0.280 NA
ATOM     12  C   UNL     1      34.892 -15.598 -23.015  0.00  0.00    +0.145 C 
ATOM     13  H   UNL     1      35.470 -17.316 -23.959  0.00  0.00    +0.144 HD
ATOM     14  H   UNL     1      35.456 -15.931 -24.952  0.00  0.00    +0.144 HD
ATOM     15  H   UNL     1      34.353 -13.855 -22.244  0.00  0.00    +0.189 HD
ENDBRANCH   9  12
ENDBRANCH   8   9
ENDBRANCH   7   8
ENDBRANCH   1   7
BRANCH   2  16
ATOM     16  C   UNL     1      33.421 -23.097 -17.904  0.00  0.00    +0.038 C 
BRANCH  16  17
ATOM     17  C   UNL     1      34.139 -23.202 -16.548  0.00  0.00    +0.070 C 
BRANCH  17  18
ATOM     18  S   UNL     1      32.985 -23.492 -15.170  0.00  0.00    -0.081 S 
BRANCH  18  21
ATOM     19  N   UNL     1      34.874 -25.161 -14.407  0.00  0.00    -0.338 N 
ATOM     20  N   UNL     1      34.042 -23.717 -12.734  0.00  0.00    -0.280 NA
ATOM     21  C   UNL     1      34.060 -24.165 -13.948  0.00  0.00    +0.145 C 
ATOM     22  H   UNL     1      34.824 -25.443 -15.348  0.00  0.00    +0.144 HD
ATOM     23  H   UNL     1      35.511 -25.596 -13.795  0.00  0.00    +0.144 HD
ATOM     24  H   UNL     1      33.422 -22.994 -12.484  0.00  0.00    +0.189 HD
ENDBRANCH  18  21
ENDBRANCH  17  18
ENDBRANCH  16  17
ENDBRANCH   2  16
TORSDOF 8
ENDMDL
MODEL 6
REMARK VINA RESULT:      -8.0      2.435      8.902
REMARK  Name = 1337
REMARK  8 active torsions:
REMARK  status: ('A' for Active; 'I' for Inactive)
REMARK    1  A    between atoms: C_1  and  C_7
REMARK    2  A    between atoms: C_2  and  C_16
REMARK    3  A    between atoms: C_7  and  C_8
REMARK    4  A    between atoms: C_8  and  S_9
REMARK    5  A    between atoms: S_9  and  C_12
REMARK    6  A    between atoms: C_16  and  C_17
REMARK    7  A    between atoms: C_17  and  S_18
REMARK    8  A    between atoms: S_18  and  C_21
REMARK                            x       y       z     vdW  Elec       q    Type
REMARK                         _______ _______ _______ _____ _____    ______ ____
ROOT
ATOM      1  C   UNL     1      33.854 -22.135 -18.726  0.00  0.00    -0.021 C 
ATOM      2  C   UNL     1      35.024 -20.316 -20.489  0.00  0.00    -0.021 C 
ATOM      3  C   UNL     1      35.243 -22.075 -18.848  0.00  0.00    -0.005 C 
ATOM      4  C   UNL     1      35.827 -21.166 -19.729  0.00  0.00    -0.005 C 
ATOM      5  C   UNL     1      33.051 -21.285 -19.486  0.00  0.00    -0.005 C 
ATOM      6  C   UNL     1      33.635 -20.375 -20.368  0.00  0.00    -0.005 C 
ENDROOT
BRANCH   1   7
ATOM      7  C   UNL     1      33.229 -23.107 -17.784  0.00  0.00    +0.038 C 
BRANCH   7   8
ATOM      8  C   UNL     1      31.993 -22.582 -17.034  0.00  0.00    +0.070 C 
BRANCH   8   9
ATOM      9  S   UNL     1      31.225 -23.854 -15.983  0.00  0.00    -0.081 S 
BRANCH   9  12
ATOM     10  N   UNL     1      28.688 -24.235 -15.388  0.00  0.00    -0.338 N 
ATOM     11  N   UNL     1      29.127 -22.544 -16.978  0.00  0.00    -0.280 NA
ATOM     12  C   UNL     1      29.516 -23.475 -16.165  0.00  0.00    +0.145 C 
ATOM     13  H   UNL     1      29.066 -24.924 -14.795  0.00  0.00    +0.144 HD
ATOM     14  H   UNL     1      27.715 -24.094 -15.420  0.00  0.00    +0.144 HD
ATOM     15  H   UNL     1      29.790 -22.041 -17.504  0.00  0.00    +0.189 HD
ENDBRANCH   9  12
ENDBRANCH   8   9
ENDBRANCH   7   8
ENDBRANCH   1   7
BRANCH   2  16
ATOM     16  C   UNL     1      35.649 -19.344 -21.431  0.00  0.00    +0.038 C 
BRANCH  16  17
ATOM     17  C   UNL     1      34.656 -18.482 -22.229  0.00  0.00    +0.070 C 
BRANCH  17  18
ATOM     18  S   UNL     1      34.773 -18.767 -24.023  0.00  0.00    -0.081 S 
BRANCH  18  21
ATOM     19  N   UNL     1      35.396 -16.224 -23.743  0.00  0.00    -0.338 N 
ATOM     20  N   UNL     1      34.483 -16.834 -25.834  0.00  0.00    -0.280 NA
ATOM     21  C   UNL     1      34.876 -17.120 -24.635  0.00  0.00    +0.145 C 
ATOM     22  H   UNL     1      35.671 -16.525 -22.848  0.00  0.00    +0.144 HD
ATOM     23  H   UNL     1      35.494 -15.278 -23.997  0.00  0.00    +0.144 HD
ATOM     24  H   UNL     1      34.119 -17.541 -26.415  0.00  0.00    +0.189 HD
ENDBRANCH  18  21
ENDBRANCH  17  18
ENDBRANCH  16  17
ENDBRANCH   2  16
TORSDOF 8
ENDMDL
MODEL 7
REMARK VINA RESULT:      -8.0      0.982      1.697
REMARK  Name = 1337
REMARK  8 active torsions:
REMARK  status: ('A' for Active; 'I' for Inactive)
REMARK    1  A    between atoms: C_1  and  C_7
REMARK    2  A    between atoms: C_2  and  C_16
REMARK    3  A    between atoms: C_7  and  C_8
REMARK    4  A    between atoms: C_8  and  S_9
REMARK    5  A    between atoms: S_9  and  C_12
REMARK    6  A    between atoms: C_16  and  C_17
REMARK    7  A    between atoms: C_17  and  S_18
REMARK    8  A    between atoms: S_18  and  C_21
REMARK                            x       y       z     vdW  Elec       q    Type
REMARK                         _______ _______ _______ _____ _____    ______ ____
ROOT
ATOM      1  C   UNL     1      35.219 -20.216 -20.570  0.00  0.00    -0.021 C 
ATOM      2  C   UNL     1      34.479 -22.031 -18.585  0.00  0.00    -0.021 C 
ATOM      3  C   UNL     1      33.868 -20.466 -20.322  0.00  0.00    -0.005 C 
ATOM      4  C   UNL     1      33.499 -21.374 -19.329  0.00  0.00    -0.005 C 
ATOM      5  C   UNL     1      36.198 -20.873 -19.827  0.00  0.00    -0.005 C 
ATOM      6  C   UNL     1      35.829 -21.781 -18.834  0.00  0.00    -0.005 C 
ENDROOT
BRANCH   1   7
ATOM      7  C   UNL     1      35.614 -19.245 -21.631  0.00  0.00    +0.038 C 
BRANCH   7   8
ATOM      8  C   UNL     1      34.443 -18.614 -22.403  0.00  0.00    +0.070 C 
BRANCH   8   9
ATOM      9  S   UNL     1      34.608 -18.816 -24.204  0.00  0.00    -0.081 S 
BRANCH   9  12
ATOM     10  N   UNL     1      35.542 -16.378 -23.859  0.00  0.00    -0.338 N 
ATOM     11  N   UNL     1      34.319 -16.737 -25.847  0.00  0.00    -0.280 NA
ATOM     12  C   UNL     1      34.821 -17.149 -24.727  0.00  0.00    +0.145 C 
ATOM     13  H   UNL     1      35.889 -16.770 -23.025  0.00  0.00    +0.144 HD
ATOM     14  H   UNL     1      35.714 -15.432 -24.067  0.00  0.00    +0.144 HD
ATOM     15  H   UNL     1      33.811 -17.358 -26.417  0.00  0.00    +0.189 HD
ENDBRANCH   9  12
ENDBRANCH   8   9
ENDBRANCH   7   8
ENDBRANCH   1   7
BRANCH   2  16
ATOM     16  C   UNL     1      34.083 -23.001 -17.524  0.00  0.00    +0.038 C 
BRANCH  16  17
ATOM     17  C   UNL     1      34.938 -22.951 -16.247  0.00  0.00    +0.070 C 
BRANCH  17  18
ATOM     18  S   UNL     1      34.309 -24.056 -14.945  0.00  0.00    -0.081 S 
BRANCH  18  21
ATOM     19  N   UNL     1      35.931 -25.228 -13.233  0.00  0.00    -0.338 N 
ATOM     20  N   UNL     1      36.517 -25.438 -15.511  0.00  0.00    -0.280 NA
ATOM     21  C   UNL     1      35.742 -25.007 -14.568  0.00  0.00    +0.145 C 
ATOM     22  H   UNL     1      35.293 -24.864 -12.579  0.00  0.00    +0.144 HD
ATOM     23  H   UNL     1      36.706 -25.752 -12.926  0.00  0.00    +0.144 HD
ATOM     24  H   UNL     1      36.308 -25.234 -16.452  0.00  0.00    +0.189 HD
ENDBRANCH  18  21
ENDBRANCH  17  18
ENDBRANCH  16  17
ENDBRANCH   2  16
TORSDOF 8
ENDMDL
MODEL 8
REMARK VINA RESULT:      -7.9      1.288      9.107
REMARK  Name = 1337
REMARK  8 active torsions:
REMARK  status: ('A' for Active; 'I' for Inactive)
REMARK    1  A    between atoms: C_1  and  C_7
REMARK    2  A    between atoms: C_2  and  C_16
REMARK    3  A    between atoms: C_7  and  C_8
REMARK    4  A    between atoms: C_8  and  S_9
REMARK    5  A    between atoms: S_9  and  C_12
REMARK    6  A    between atoms: C_16  and  C_17
REMARK    7  A    between atoms: C_17  and  S_18
REMARK    8  A    between atoms: S_18  and  C_21
REMARK                            x       y       z     vdW  Elec       q    Type
REMARK                         _______ _______ _______ _____ _____    ______ ____
ROOT
ATOM      1  C   UNL     1      34.086 -22.167 -18.953  0.00  0.00    -0.021 C 
ATOM      2  C   UNL     1      35.121 -20.072 -20.478  0.00  0.00    -0.021 C 
ATOM      3  C   UNL     1      33.225 -21.325 -19.658  0.00  0.00    -0.005 C 
ATOM      4  C   UNL     1      33.743 -20.277 -20.420  0.00  0.00    -0.005 C 
ATOM      5  C   UNL     1      35.464 -21.962 -19.011  0.00  0.00    -0.005 C 
ATOM      6  C   UNL     1      35.982 -20.914 -19.773  0.00  0.00    -0.005 C 
ENDROOT
BRANCH   1   7
ATOM      7  C   UNL     1      33.533 -23.286 -18.139  0.00  0.00    +0.038 C 
BRANCH   7   8
ATOM      8  C   UNL     1      33.747 -23.154 -16.622  0.00  0.00    +0.070 C 
BRANCH   8   9
ATOM      9  S   UNL     1      32.219 -23.444 -15.675  0.00  0.00    -0.081 S 
BRANCH   9  12
ATOM     10  N   UNL     1      33.647 -24.948 -14.052  0.00  0.00    -0.338 N 
ATOM     11  N   UNL     1      32.584 -23.088 -13.059  0.00  0.00    -0.280 NA
ATOM     12  C   UNL     1      32.861 -23.831 -14.083  0.00  0.00    +0.145 C 
ATOM     13  H   UNL     1      33.808 -25.458 -14.879  0.00  0.00    +0.144 HD
ATOM     14  H   UNL     1      34.052 -25.242 -13.205  0.00  0.00    +0.144 HD
ATOM     15  H   UNL     1      32.007 -22.297 -13.166  0.00  0.00    +0.189 HD
ENDBRANCH   9  12
ENDBRANCH   8   9
ENDBRANCH   7   8
ENDBRANCH   1   7
BRANCH   2  16
ATOM     16  C   UNL     1      35.674 -18.952 -21.292  0.00  0.00    +0.038 C 
BRANCH  16  17
ATOM     17  C   UNL     1      34.658 -18.251 -22.208  0.00  0.00    +0.070 C 
BRANCH  17  18
ATOM     18  S   UNL     1      34.203 -16.596 -21.604  0.00  0.00    -0.081 S 
BRANCH  18  21
ATOM     19  N   UNL     1      34.527 -14.244 -22.743  0.00  0.00    -0.338 N 
ATOM     20  N   UNL     1      35.530 -16.070 -23.854  0.00  0.00    -0.280 NA
ATOM     21  C   UNL     1      34.836 -15.567 -22.885  0.00  0.00    +0.145 C 
ATOM     22  H   UNL     1      33.992 -13.943 -21.975  0.00  0.00    +0.144 HD
ATOM     23  H   UNL     1      34.840 -13.592 -23.411  0.00  0.00    +0.144 HD
ATOM     24  H   UNL     1      35.708 -17.039 -23.882  0.00  0.00    +0.189 HD
ENDBRANCH  18  21
ENDBRANCH  17  18
ENDBRANCH  16  17
ENDBRANCH   2  16
TORSDOF 8
ENDMDL
MODEL 9
REMARK VINA RESULT:      -7.6      2.293      9.052
REMARK  Name = 1337
REMARK  8 active torsions:
REMARK  status: ('A' for Active; 'I' for Inactive)
REMARK    1  A    between atoms: C_1  and  C_7
REMARK    2  A    between atoms: C_2  and  C_16
REMARK    3  A    between atoms: C_7  and  C_8
REMARK    4  A    between atoms: C_8  and  S_9
REMARK    5  A    between atoms: S_9  and  C_12
REMARK    6  A    between atoms: C_16  and  C_17
REMARK    7  A    between atoms: C_17  and  S_18
REMARK    8  A    between atoms: S_18  and  C_21
REMARK                            x       y       z     vdW  Elec       q    Type
REMARK                         _______ _______ _______ _____ _____    ______ ____
ROOT
ATOM      1  C   UNL     1      34.989 -22.863 -16.607  0.00  0.00    -0.021 C 
ATOM      2  C   UNL     1      35.449 -21.622 -19.063  0.00  0.00    -0.021 C 
ATOM      3  C   UNL     1      33.983 -22.835 -17.574  0.00  0.00    -0.005 C 
ATOM      4  C   UNL     1      34.214 -22.215 -18.802  0.00  0.00    -0.005 C 
ATOM      5  C   UNL     1      36.224 -22.270 -16.868  0.00  0.00    -0.005 C 
ATOM      6  C   UNL     1      36.455 -21.650 -18.096  0.00  0.00    -0.005 C 
ENDROOT
BRANCH   1   7
ATOM      7  C   UNL     1      34.743 -23.526 -15.294  0.00  0.00    +0.038 C 
BRANCH   7   8
ATOM      8  C   UNL     1      35.172 -25.001 -15.221  0.00  0.00    +0.070 C 
BRANCH   8   9
ATOM      9  S   UNL     1      36.554 -25.268 -14.067  0.00  0.00    -0.081 S 
BRANCH   9  12
ATOM     10  N   UNL     1      38.725 -26.721 -14.390  0.00  0.00    -0.338 N 
ATOM     11  N   UNL     1      36.977 -27.133 -15.923  0.00  0.00    -0.280 NA
ATOM     12  C   UNL     1      37.479 -26.506 -14.907  0.00  0.00    +0.145 C 
ATOM     13  H   UNL     1      39.032 -26.200 -13.613  0.00  0.00    +0.144 HD
ATOM     14  H   UNL     1      39.316 -27.397 -14.793  0.00  0.00    +0.144 HD
ATOM     15  H   UNL     1      36.068 -26.918 -16.234  0.00  0.00    +0.189 HD
ENDBRANCH   9  12
ENDBRANCH   8   9
ENDBRANCH   7   8
ENDBRANCH   1   7
BRANCH   2  16
ATOM     16  C   UNL     1      35.695 -20.959 -20.376  0.00  0.00    +0.038 C 
BRANCH  16  17
ATOM     17  C   UNL     1      34.562 -20.040 -20.862  0.00  0.00    +0.070 C 
BRANCH  17  18
ATOM     18  S   UNL     1      34.916 -19.297 -22.485  0.00  0.00    -0.081 S 
BRANCH  18  21
ATOM     19  N   UNL     1      35.675 -16.848 -23.087  0.00  0.00    -0.338 N 
ATOM     20  N   UNL     1      35.245 -17.258 -20.801  0.00  0.00    -0.280 NA
ATOM     21  C   UNL     1      35.311 -17.641 -22.035  0.00  0.00    +0.145 C 
ATOM     22  H   UNL     1      35.700 -17.219 -23.998  0.00  0.00    +0.144 HD
ATOM     23  H   UNL     1      35.911 -15.905 -22.932  0.00  0.00    +0.144 HD
ATOM     24  H   UNL     1      34.973 -17.895 -20.101  0.00  0.00    +0.189 HD
ENDBRANCH  18  21
ENDBRANCH  17  18
ENDBRANCH  16  17
ENDBRANCH   2  16
TORSDOF 8
ENDMDL
