MODEL 1
REMARK VINA RESULT:     -10.0      0.000      0.000
REMARK  Name = 5288783
REMARK  8 active torsions:
REMARK  status: ('A' for Active; 'I' for Inactive)
REMARK    1  A    between atoms: C_2  and  C_24
REMARK    2  A    between atoms: C_11  and  C_12
REMARK    3  A    between atoms: C_16  and  O_20
REMARK    4  A    between atoms: C_17  and  O_22
REMARK    5  A    between atoms: C_24  and  C_26
REMARK    6  A    between atoms: C_27  and  C_28
REMARK    7  A    between atoms: C_28  and  C_29
REMARK    8  A    between atoms: C_28  and  O_32
REMARK                            x       y       z     vdW  Elec       q    Type
REMARK                         _______ _______ _______ _____ _____    ______ ____
ROOT
ATOM      1  C   UNL     1      33.839 -15.730 -22.898  0.00  0.00    +0.004 C 
ATOM      2  C   UNL     1      33.582 -17.082 -22.190  0.00  0.00    +0.004 C 
ATOM      3  C   UNL     1      32.640 -14.921 -22.345  0.00  0.00    +0.018 C 
ATOM      4  C   UNL     1      33.152 -16.679 -20.761  0.00  0.00    +0.001 C 
ATOM      5  C   UNL     1      32.675 -15.218 -20.845  0.00  0.00    +0.004 C 
ATOM      6  C   UNL     1      33.725 -15.784 -24.435  0.00  0.00    +0.001 C 
ATOM      7  C   UNL     1      32.626 -13.518 -22.891  0.00  0.00    -0.045 C 
ATOM      8  C   UNL     1      35.213 -15.133 -22.500  0.00  0.00    +0.000 C 
ATOM      9  C   UNL     1      33.655 -14.375 -25.052  0.00  0.00    +0.004 C 
ATOM     10  C   UNL     1      32.584 -13.481 -24.405  0.00  0.00    +0.022 C 
ATOM     11  C   UNL     1      32.643 -12.402 -22.149  0.00  0.00    -0.009 C 
ENDROOT
BRANCH  11  12
ATOM     12  C   UNL     1      32.622 -11.076 -22.715  0.00  0.00    -0.005 C 
ATOM     13  C   UNL     1      32.044 -10.026 -22.111  0.00  0.00    -0.021 C 
ATOM     14  C   UNL     1      32.095  -8.640 -22.703  0.00  0.00    +0.055 C 
ATOM     15  C   UNL     1      31.359 -10.127 -20.825  0.00  0.00    +0.000 C 
ATOM     16  C   UNL     1      32.558  -7.594 -21.686  0.00  0.00    +0.118 C 
ATOM     17  C   UNL     1      31.725  -9.074 -19.804  0.00  0.00    +0.135 C 
ATOM     18  C   UNL     1      31.717  -7.666 -20.407  0.00  0.00    +0.063 C 
ATOM     19  C   UNL     1      30.422 -11.057 -20.572  0.00  0.00    -0.003 C 
BRANCH  16  20
ATOM     20  O   UNL     1      32.425  -6.302 -22.271  0.00  0.00    -0.384 OA
ATOM     21  H   UNL     1      32.407  -5.631 -21.572  0.00  0.00    +0.210 HD
ENDBRANCH  16  20
BRANCH  17  22
ATOM     22  O   UNL     1      33.029  -9.373 -19.302  0.00  0.00    -0.380 OA
ATOM     23  H   UNL     1      33.679  -8.785 -19.718  0.00  0.00    +0.211 HD
ENDBRANCH  17  22
ENDBRANCH  11  12
BRANCH   2  24
ATOM     24  C   UNL     1      34.729 -18.083 -22.204  0.00  0.00    +0.022 C 
ATOM     25  C   UNL     1      34.681 -18.943 -23.470  0.00  0.00    +0.005 C 
BRANCH  24  26
ATOM     26  C   UNL     1      34.674 -18.964 -20.980  0.00  0.00    -0.029 C 
ATOM     27  C   UNL     1      34.089 -20.171 -20.953  0.00  0.00    -0.002 C 
BRANCH  27  28
ATOM     28  C   UNL     1      34.032 -21.046 -19.732  0.00  0.00    +0.132 C 
BRANCH  28  29
ATOM     29  C   UNL     1      35.230 -21.932 -19.547  0.00  0.00    +0.031 C 
ATOM     30  C   UNL     1      36.581 -21.377 -19.851  0.00  0.00    +0.003 C 
ATOM     31  C   UNL     1      36.173 -21.635 -18.431  0.00  0.00    +0.003 C 
ENDBRANCH  28  29
BRANCH  28  32
ATOM     32  O   UNL     1      32.859 -21.860 -19.810  0.00  0.00    -0.380 OA
ATOM     33  H   UNL     1      32.578 -22.109 -18.916  0.00  0.00    +0.211 HD
ENDBRANCH  28  32
ENDBRANCH  27  28
ENDBRANCH  24  26
ENDBRANCH   2  24
TORSDOF 8
ENDMDL
MODEL 2
REMARK VINA RESULT:      -8.8      2.831      5.412
REMARK  Name = 5288783
REMARK  8 active torsions:
REMARK  status: ('A' for Active; 'I' for Inactive)
REMARK    1  A    between atoms: C_2  and  C_24
REMARK    2  A    between atoms: C_11  and  C_12
REMARK    3  A    between atoms: C_16  and  O_20
REMARK    4  A    between atoms: C_17  and  O_22
REMARK    5  A    between atoms: C_24  and  C_26
REMARK    6  A    between atoms: C_27  and  C_28
REMARK    7  A    between atoms: C_28  and  C_29
REMARK    8  A    between atoms: C_28  and  O_32
REMARK                            x       y       z     vdW  Elec       q    Type
REMARK                         _______ _______ _______ _____ _____    ______ ____
ROOT
ATOM      1  C   UNL     1      32.101 -11.609 -21.757  0.00  0.00    +0.004 C 
ATOM      2  C   UNL     1      32.991 -12.832 -22.082  0.00  0.00    +0.004 C 
ATOM      3  C   UNL     1      32.831 -10.531 -22.597  0.00  0.00    +0.018 C 
ATOM      4  C   UNL     1      33.279 -12.692 -23.595  0.00  0.00    +0.001 C 
ATOM      5  C   UNL     1      33.030 -11.215 -23.951  0.00  0.00    +0.004 C 
ATOM      6  C   UNL     1      32.130 -11.177 -20.277  0.00  0.00    +0.001 C 
ATOM      7  C   UNL     1      32.168  -9.187 -22.460  0.00  0.00    -0.045 C 
ATOM      8  C   UNL     1      30.634 -11.840 -22.203  0.00  0.00    +0.000 C 
ATOM      9  C   UNL     1      31.510  -9.781 -20.078  0.00  0.00    +0.004 C 
ATOM     10  C   UNL     1      32.093  -8.717 -21.022  0.00  0.00    +0.022 C 
ATOM     11  C   UNL     1      31.691  -8.456 -23.477  0.00  0.00    -0.009 C 
ENDROOT
BRANCH  11  12
ATOM     12  C   UNL     1      31.068  -7.168 -23.300  0.00  0.00    -0.005 C 
ATOM     13  C   UNL     1      31.621  -6.019 -23.719  0.00  0.00    -0.021 C 
ATOM     14  C   UNL     1      30.913  -4.695 -23.572  0.00  0.00    +0.055 C 
ATOM     15  C   UNL     1      32.923  -5.957 -24.380  0.00  0.00    +0.000 C 
ATOM     16  C   UNL     1      30.890  -3.905 -24.883  0.00  0.00    +0.118 C 
ATOM     17  C   UNL     1      32.976  -5.128 -25.644  0.00  0.00    +0.135 C 
ATOM     18  C   UNL     1      32.302  -3.765 -25.462  0.00  0.00    +0.063 C 
ATOM     19  C   UNL     1      34.020  -6.548 -23.879  0.00  0.00    -0.003 C 
BRANCH  16  20
ATOM     20  O   UNL     1      30.352  -2.611 -24.623  0.00  0.00    -0.384 OA
ATOM     21  H   UNL     1      29.666  -2.409 -25.277  0.00  0.00    +0.210 HD
ENDBRANCH  16  20
BRANCH  17  22
ATOM     22  O   UNL     1      32.315  -5.855 -26.682  0.00  0.00    -0.380 OA
ATOM     23  H   UNL     1      32.322  -6.801 -26.469  0.00  0.00    +0.211 HD
ENDBRANCH  17  22
ENDBRANCH  11  12
BRANCH   2  24
ATOM     24  C   UNL     1      32.430 -14.197 -21.711  0.00  0.00    +0.022 C 
ATOM     25  C   UNL     1      32.706 -14.513 -20.238  0.00  0.00    +0.005 C 
BRANCH  24  26
ATOM     26  C   UNL     1      33.026 -15.270 -22.589  0.00  0.00    -0.029 C 
ATOM     27  C   UNL     1      34.133 -15.962 -22.277  0.00  0.00    -0.002 C 
BRANCH  27  28
ATOM     28  C   UNL     1      34.728 -17.027 -23.156  0.00  0.00    +0.132 C 
BRANCH  28  29
ATOM     29  C   UNL     1      35.374 -18.157 -22.407  0.00  0.00    +0.031 C 
ATOM     30  C   UNL     1      34.802 -18.561 -21.090  0.00  0.00    +0.003 C 
ATOM     31  C   UNL     1      34.639 -19.449 -22.289  0.00  0.00    +0.003 C 
ENDBRANCH  28  29
BRANCH  28  32
ATOM     32  O   UNL     1      35.698 -16.421 -24.012  0.00  0.00    -0.380 OA
ATOM     33  H   UNL     1      35.407 -16.495 -24.934  0.00  0.00    +0.211 HD
ENDBRANCH  28  32
ENDBRANCH  27  28
ENDBRANCH  24  26
ENDBRANCH   2  24
TORSDOF 8
ENDMDL
MODEL 3
REMARK VINA RESULT:      -8.4      3.455     11.248
REMARK  Name = 5288783
REMARK  8 active torsions:
REMARK  status: ('A' for Active; 'I' for Inactive)
REMARK    1  A    between atoms: C_2  and  C_24
REMARK    2  A    between atoms: C_11  and  C_12
REMARK    3  A    between atoms: C_16  and  O_20
REMARK    4  A    between atoms: C_17  and  O_22
REMARK    5  A    between atoms: C_24  and  C_26
REMARK    6  A    between atoms: C_27  and  C_28
REMARK    7  A    between atoms: C_28  and  C_29
REMARK    8  A    between atoms: C_28  and  O_32
REMARK                            x       y       z     vdW  Elec       q    Type
REMARK                         _______ _______ _______ _____ _____    ______ ____
ROOT
ATOM      1  C   UNL     1      31.986  -7.914 -21.820  0.00  0.00    +0.004 C 
ATOM      2  C   UNL     1      31.334  -6.872 -22.761  0.00  0.00    +0.004 C 
ATOM      3  C   UNL     1      31.084  -9.135 -22.129  0.00  0.00    +0.018 C 
ATOM      4  C   UNL     1      31.044  -7.667 -24.055  0.00  0.00    +0.001 C 
ATOM      5  C   UNL     1      31.028  -9.155 -23.657  0.00  0.00    +0.004 C 
ATOM      6  C   UNL     1      31.861  -7.582 -20.320  0.00  0.00    +0.001 C 
ATOM      7  C   UNL     1      31.493 -10.337 -21.321  0.00  0.00    -0.045 C 
ATOM      8  C   UNL     1      33.475  -8.148 -22.179  0.00  0.00    +0.000 C 
ATOM      9  C   UNL     1      32.218  -8.792 -19.436  0.00  0.00    +0.004 C 
ATOM     10  C   UNL     1      31.465 -10.074 -19.829  0.00  0.00    +0.022 C 
ATOM     11  C   UNL     1      31.844 -11.525 -21.830  0.00  0.00    -0.009 C 
ENDROOT
BRANCH  11  12
ATOM     12  C   UNL     1      32.224 -12.654 -21.016  0.00  0.00    -0.005 C 
ATOM     13  C   UNL     1      32.709 -13.798 -21.522  0.00  0.00    -0.021 C 
ATOM     14  C   UNL     1      33.153 -14.935 -20.637  0.00  0.00    +0.055 C 
ATOM     15  C   UNL     1      32.885 -14.021 -22.956  0.00  0.00    +0.000 C 
ATOM     16  C   UNL     1      34.550 -15.441 -21.005  0.00  0.00    +0.118 C 
ATOM     17  C   UNL     1      34.223 -14.590 -23.370  0.00  0.00    +0.135 C 
ATOM     18  C   UNL     1      34.633 -15.780 -22.498  0.00  0.00    +0.063 C 
ATOM     19  C   UNL     1      31.909 -13.792 -23.851  0.00  0.00    -0.003 C 
BRANCH  16  20
ATOM     20  O   UNL     1      34.826 -16.609 -20.237  0.00  0.00    -0.384 OA
ATOM     21  H   UNL     1      34.407 -17.377 -20.654  0.00  0.00    +0.210 HD
ENDBRANCH  16  20
BRANCH  17  22
ATOM     22  O   UNL     1      35.201 -13.554 -23.260  0.00  0.00    -0.380 OA
ATOM     23  H   UNL     1      35.385 -13.188 -24.139  0.00  0.00    +0.211 HD
ENDBRANCH  17  22
ENDBRANCH  11  12
BRANCH   2  24
ATOM     24  C   UNL     1      32.126  -5.597 -23.014  0.00  0.00    +0.022 C 
ATOM     25  C   UNL     1      31.423  -4.390 -22.388  0.00  0.00    +0.005 C 
BRANCH  24  26
ATOM     26  C   UNL     1      32.310  -5.376 -24.496  0.00  0.00    -0.029 C 
ATOM     27  C   UNL     1      31.982  -4.239 -25.128  0.00  0.00    -0.002 C 
BRANCH  27  28
ATOM     28  C   UNL     1      32.163  -4.022 -26.605  0.00  0.00    +0.132 C 
BRANCH  28  29
ATOM     29  C   UNL     1      33.237  -4.865 -27.228  0.00  0.00    +0.031 C 
ATOM     30  C   UNL     1      33.769  -4.472 -28.566  0.00  0.00    +0.003 C 
ATOM     31  C   UNL     1      34.614  -4.303 -27.338  0.00  0.00    +0.003 C 
ENDBRANCH  28  29
BRANCH  28  32
ATOM     32  O   UNL     1      32.465  -2.642 -26.828  0.00  0.00    -0.380 OA
ATOM     33  H   UNL     1      31.729  -2.222 -27.298  0.00  0.00    +0.211 HD
ENDBRANCH  28  32
ENDBRANCH  27  28
ENDBRANCH  24  26
ENDBRANCH   2  24
TORSDOF 8
ENDMDL
MODEL 4
REMARK VINA RESULT:      -8.1      1.222      1.443
REMARK  Name = 5288783
REMARK  8 active torsions:
REMARK  status: ('A' for Active; 'I' for Inactive)
REMARK    1  A    between atoms: C_2  and  C_24
REMARK    2  A    between atoms: C_11  and  C_12
REMARK    3  A    between atoms: C_16  and  O_20
REMARK    4  A    between atoms: C_17  and  O_22
REMARK    5  A    between atoms: C_24  and  C_26
REMARK    6  A    between atoms: C_27  and  C_28
REMARK    7  A    between atoms: C_28  and  C_29
REMARK    8  A    between atoms: C_28  and  O_32
REMARK                            x       y       z     vdW  Elec       q    Type
REMARK                         _______ _______ _______ _____ _____    ______ ____
ROOT
ATOM      1  C   UNL     1      33.602 -14.712 -22.631  0.00  0.00    +0.004 C 
ATOM      2  C   UNL     1      33.745 -15.928 -21.684  0.00  0.00    +0.004 C 
ATOM      3  C   UNL     1      32.375 -14.027 -21.982  0.00  0.00    +0.018 C 
ATOM      4  C   UNL     1      33.489 -15.339 -20.278  0.00  0.00    +0.001 C 
ATOM      5  C   UNL     1      32.721 -14.022 -20.492  0.00  0.00    +0.004 C 
ATOM      6  C   UNL     1      33.245 -15.077 -24.086  0.00  0.00    +0.001 C 
ATOM      7  C   UNL     1      31.988 -12.777 -22.725  0.00  0.00    -0.045 C 
ATOM      8  C   UNL     1      34.875 -13.828 -22.615  0.00  0.00    +0.000 C 
ATOM      9  C   UNL     1      32.790 -13.844 -24.888  0.00  0.00    +0.004 C 
ATOM     10  C   UNL     1      31.686 -13.036 -24.187  0.00  0.00    +0.022 C 
ATOM     11  C   UNL     1      31.904 -11.553 -22.185  0.00  0.00    -0.009 C 
ENDROOT
BRANCH  11  12
ATOM     12  C   UNL     1      31.523 -10.382 -22.935  0.00  0.00    -0.005 C 
ATOM     13  C   UNL     1      31.546  -9.141 -22.425  0.00  0.00    -0.021 C 
ATOM     14  C   UNL     1      31.198  -7.932 -23.256  0.00  0.00    +0.055 C 
ATOM     15  C   UNL     1      31.943  -8.854 -21.048  0.00  0.00    +0.000 C 
ATOM     16  C   UNL     1      32.258  -6.832 -23.148  0.00  0.00    +0.118 C 
ATOM     17  C   UNL     1      32.935  -7.727 -20.875  0.00  0.00    +0.135 C 
ATOM     18  C   UNL     1      32.539  -6.487 -21.681  0.00  0.00    +0.063 C 
ATOM     19  C   UNL     1      31.426  -9.505 -19.992  0.00  0.00    -0.003 C 
BRANCH  16  20
ATOM     20  O   UNL     1      31.781  -5.674 -23.827  0.00  0.00    -0.384 OA
ATOM     21  H   UNL     1      31.491  -5.919 -24.719  0.00  0.00    +0.210 HD
ENDBRANCH  16  20
BRANCH  17  22
ATOM     22  O   UNL     1      34.216  -8.190 -21.306  0.00  0.00    -0.380 OA
ATOM     23  H   UNL     1      34.835  -7.444 -21.342  0.00  0.00    +0.211 HD
ENDBRANCH  17  22
ENDBRANCH  11  12
BRANCH   2  24
ATOM     24  C   UNL     1      35.051 -16.706 -21.772  0.00  0.00    +0.022 C 
ATOM     25  C   UNL     1      35.390 -17.032 -23.229  0.00  0.00    +0.005 C 
BRANCH  24  26
ATOM     26  C   UNL     1      34.961 -17.979 -20.966  0.00  0.00    -0.029 C 
ATOM     27  C   UNL     1      33.950 -18.856 -21.064  0.00  0.00    -0.002 C 
BRANCH  27  28
ATOM     28  C   UNL     1      33.860 -20.122 -20.257  0.00  0.00    +0.132 C 
BRANCH  28  29
ATOM     29  C   UNL     1      35.053 -21.025 -20.387  0.00  0.00    +0.031 C 
ATOM     30  C   UNL     1      36.091 -20.995 -19.316  0.00  0.00    +0.003 C 
ATOM     31  C   UNL     1      35.180 -22.179 -19.451  0.00  0.00    +0.003 C 
ENDBRANCH  28  29
BRANCH  28  32
ATOM     32  O   UNL     1      32.689 -20.835 -20.660  0.00  0.00    -0.380 OA
ATOM     33  H   UNL     1      32.925 -21.490 -21.335  0.00  0.00    +0.211 HD
ENDBRANCH  28  32
ENDBRANCH  27  28
ENDBRANCH  24  26
ENDBRANCH   2  24
TORSDOF 8
ENDMDL
MODEL 5
REMARK VINA RESULT:      -7.7      3.286     11.082
REMARK  Name = 5288783
REMARK  8 active torsions:
REMARK  status: ('A' for Active; 'I' for Inactive)
REMARK    1  A    between atoms: C_2  and  C_24
REMARK    2  A    between atoms: C_11  and  C_12
REMARK    3  A    between atoms: C_16  and  O_20
REMARK    4  A    between atoms: C_17  and  O_22
REMARK    5  A    between atoms: C_24  and  C_26
REMARK    6  A    between atoms: C_27  and  C_28
REMARK    7  A    between atoms: C_28  and  C_29
REMARK    8  A    between atoms: C_28  and  O_32
REMARK                            x       y       z     vdW  Elec       q    Type
REMARK                         _______ _______ _______ _____ _____    ______ ____
ROOT
ATOM      1  C   UNL     1      32.312  -9.559 -22.686  0.00  0.00    +0.004 C 
ATOM      2  C   UNL     1      32.574  -8.448 -23.732  0.00  0.00    +0.004 C 
ATOM      3  C   UNL     1      32.867 -10.778 -23.464  0.00  0.00    +0.018 C 
ATOM      4  C   UNL     1      33.972  -8.790 -24.297  0.00  0.00    +0.001 C 
ATOM      5  C   UNL     1      34.215 -10.279 -23.986  0.00  0.00    +0.004 C 
ATOM      6  C   UNL     1      30.821  -9.809 -22.384  0.00  0.00    +0.001 C 
ATOM      7  C   UNL     1      32.730 -12.046 -22.665  0.00  0.00    -0.045 C 
ATOM      8  C   UNL     1      33.071  -9.281 -21.363  0.00  0.00    +0.000 C 
ATOM      9  C   UNL     1      30.609 -11.124 -21.611  0.00  0.00    +0.004 C 
ATOM     10  C   UNL     1      31.297 -12.332 -22.266  0.00  0.00    +0.022 C 
ATOM     11  C   UNL     1      33.741 -12.859 -22.331  0.00  0.00    -0.009 C 
ENDROOT
BRANCH  11  12
ATOM     12  C   UNL     1      33.562 -14.071 -21.568  0.00  0.00    -0.005 C 
ATOM     13  C   UNL     1      33.576 -15.295 -22.117  0.00  0.00    -0.021 C 
ATOM     14  C   UNL     1      33.447 -16.543 -21.281  0.00  0.00    +0.055 C 
ATOM     15  C   UNL     1      33.755 -15.523 -23.549  0.00  0.00    +0.000 C 
ATOM     16  C   UNL     1      34.540 -17.567 -21.600  0.00  0.00    +0.118 C 
ATOM     17  C   UNL     1      34.772 -16.577 -23.922  0.00  0.00    +0.135 C 
ATOM     18  C   UNL     1      34.592 -17.859 -23.104  0.00  0.00    +0.063 C 
ATOM     19  C   UNL     1      33.030 -14.883 -24.482  0.00  0.00    -0.003 C 
BRANCH  16  20
ATOM     20  O   UNL     1      34.255 -18.770 -20.892  0.00  0.00    -0.384 OA
ATOM     21  H   UNL     1      33.295 -18.898 -20.845  0.00  0.00    +0.210 HD
ENDBRANCH  16  20
BRANCH  17  22
ATOM     22  O   UNL     1      36.076 -16.041 -23.693  0.00  0.00    -0.380 OA
ATOM     23  H   UNL     1      36.736 -16.591 -24.142  0.00  0.00    +0.211 HD
ENDBRANCH  17  22
ENDBRANCH  11  12
BRANCH   2  24
ATOM     24  C   UNL     1      32.470  -7.012 -23.238  0.00  0.00    +0.022 C 
ATOM     25  C   UNL     1      31.082  -6.742 -22.649  0.00  0.00    +0.005 C 
BRANCH  24  26
ATOM     26  C   UNL     1      32.751  -6.046 -24.363  0.00  0.00    -0.029 C 
ATOM     27  C   UNL     1      31.855  -5.164 -24.831  0.00  0.00    -0.002 C 
BRANCH  27  28
ATOM     28  C   UNL     1      32.135  -4.204 -25.954  0.00  0.00    +0.132 C 
BRANCH  28  29
ATOM     29  C   UNL     1      33.315  -4.575 -26.806  0.00  0.00    +0.031 C 
ATOM     30  C   UNL     1      33.194  -4.449 -28.287  0.00  0.00    +0.003 C 
ATOM     31  C   UNL     1      34.053  -3.491 -27.515  0.00  0.00    +0.003 C 
ENDBRANCH  28  29
BRANCH  28  32
ATOM     32  O   UNL     1      32.351  -2.905 -25.399  0.00  0.00    -0.380 OA
ATOM     33  H   UNL     1      32.043  -2.231 -26.024  0.00  0.00    +0.211 HD
ENDBRANCH  28  32
ENDBRANCH  27  28
ENDBRANCH  24  26
ENDBRANCH   2  24
TORSDOF 8
ENDMDL
MODEL 6
REMARK VINA RESULT:      -7.2      3.564     11.135
REMARK  Name = 5288783
REMARK  8 active torsions:
REMARK  status: ('A' for Active; 'I' for Inactive)
REMARK    1  A    between atoms: C_2  and  C_24
REMARK    2  A    between atoms: C_11  and  C_12
REMARK    3  A    between atoms: C_16  and  O_20
REMARK    4  A    between atoms: C_17  and  O_22
REMARK    5  A    between atoms: C_24  and  C_26
REMARK    6  A    between atoms: C_27  and  C_28
REMARK    7  A    between atoms: C_28  and  C_29
REMARK    8  A    between atoms: C_28  and  O_32
REMARK                            x       y       z     vdW  Elec       q    Type
REMARK                         _______ _______ _______ _____ _____    ______ ____
ROOT
ATOM      1  C   UNL     1      32.823  -7.707 -23.079  0.00  0.00    +0.004 C 
ATOM      2  C   UNL     1      32.480  -6.817 -21.860  0.00  0.00    +0.004 C 
ATOM      3  C   UNL     1      33.156  -9.029 -22.344  0.00  0.00    +0.018 C 
ATOM      4  C   UNL     1      31.656  -7.747 -20.939  0.00  0.00    +0.001 C 
ATOM      5  C   UNL     1      31.994  -9.189 -21.361  0.00  0.00    +0.004 C 
ATOM      6  C   UNL     1      34.071  -7.257 -23.864  0.00  0.00    +0.001 C 
ATOM      7  C   UNL     1      33.548 -10.112 -23.313  0.00  0.00    -0.045 C 
ATOM      8  C   UNL     1      31.618  -7.833 -24.046  0.00  0.00    +0.000 C 
ATOM      9  C   UNL     1      34.555  -8.346 -24.839  0.00  0.00    +0.004 C 
ATOM     10  C   UNL     1      34.730  -9.722 -24.176  0.00  0.00    +0.022 C 
ATOM     11  C   UNL     1      32.945 -11.303 -23.424  0.00  0.00    -0.009 C 
ENDROOT
BRANCH  11  12
ATOM     12  C   UNL     1      33.359 -12.315 -24.364  0.00  0.00    -0.005 C 
ATOM     13  C   UNL     1      33.860 -13.504 -23.994  0.00  0.00    -0.021 C 
ATOM     14  C   UNL     1      34.226 -14.562 -25.003  0.00  0.00    +0.055 C 
ATOM     15  C   UNL     1      34.055 -13.884 -22.596  0.00  0.00    +0.000 C 
ATOM     16  C   UNL     1      33.621 -15.925 -24.656  0.00  0.00    +0.118 C 
ATOM     17  C   UNL     1      33.539 -15.253 -22.213  0.00  0.00    +0.135 C 
ATOM     18  C   UNL     1      33.967 -16.327 -23.218  0.00  0.00    +0.063 C 
ATOM     19  C   UNL     1      34.696 -13.102 -21.713  0.00  0.00    -0.003 C 
BRANCH  16  20
ATOM     20  O   UNL     1      34.141 -16.896 -25.560  0.00  0.00    -0.384 OA
ATOM     21  H   UNL     1      34.548 -17.619 -25.058  0.00  0.00    +0.210 HD
ENDBRANCH  16  20
BRANCH  17  22
ATOM     22  O   UNL     1      32.113 -15.192 -22.155  0.00  0.00    -0.380 OA
ATOM     23  H   UNL     1      31.765 -16.045 -21.851  0.00  0.00    +0.211 HD
ENDBRANCH  17  22
ENDBRANCH  11  12
BRANCH   2  24
ATOM     24  C   UNL     1      31.774  -5.502 -22.157  0.00  0.00    +0.022 C 
ATOM     25  C   UNL     1      30.314  -5.556 -21.700  0.00  0.00    +0.005 C 
BRANCH  24  26
ATOM     26  C   UNL     1      31.843  -5.189 -23.632  0.00  0.00    -0.029 C 
ATOM     27  C   UNL     1      31.736  -3.951 -24.139  0.00  0.00    -0.002 C 
BRANCH  27  28
ATOM     28  C   UNL     1      31.801  -3.641 -25.609  0.00  0.00    +0.132 C 
BRANCH  28  29
ATOM     29  C   UNL     1      32.385  -4.740 -26.449  0.00  0.00    +0.031 C 
ATOM     30  C   UNL     1      32.956  -4.393 -27.783  0.00  0.00    +0.003 C 
ATOM     31  C   UNL     1      33.862  -4.777 -26.650  0.00  0.00    +0.003 C 
ENDBRANCH  28  29
BRANCH  28  32
ATOM     32  O   UNL     1      32.576  -2.453 -25.789  0.00  0.00    -0.380 OA
ATOM     33  H   UNL     1      32.022  -1.761 -26.181  0.00  0.00    +0.211 HD
ENDBRANCH  28  32
ENDBRANCH  27  28
ENDBRANCH  24  26
ENDBRANCH   2  24
TORSDOF 8
ENDMDL
