MODEL 1
REMARK VINA RESULT:     -11.8      0.000      0.000
REMARK  Name = 25114442
REMARK  7 active torsions:
REMARK  status: ('A' for Active; 'I' for Inactive)
REMARK    1  A    between atoms: C_3  and  C_15
REMARK    2  A    between atoms: C_3  and  C_18
REMARK    3  A    between atoms: C_6  and  C_8
REMARK    4  A    between atoms: C_15  and  O_16
REMARK    5  A    between atoms: C_18  and  O_19
REMARK    6  A    between atoms: O_19  and  C_20
REMARK    7  A    between atoms: C_28  and  O_30
REMARK                            x       y       z     vdW  Elec       q    Type
REMARK                         _______ _______ _______ _____ _____    ______ ____
ROOT
ATOM      1  O   UNL     1      32.046 -23.087 -12.616  0.00  0.00    -0.270 OA
ATOM      2  N   UNL     1      33.445 -23.945 -14.230  0.00  0.00    -0.275 N 
ATOM      3  C   UNL     1      35.288 -23.962 -15.117  0.00  0.00    +0.166 C 
ATOM      4  C   UNL     1      33.906 -24.519 -15.479  0.00  0.00    +0.110 C 
ATOM      5  C   UNL     1      34.777 -23.757 -13.686  0.00  0.00    +0.110 C 
ATOM      6  C   UNL     1      32.225 -23.567 -13.732  0.00  0.00    +0.249 C 
ENDROOT
BRANCH   6   8
ATOM      7  F   UNL     1      27.791 -24.199 -17.101  0.00  0.00    -0.204 F 
ATOM      8  C   UNL     1      31.058 -23.734 -14.620  0.00  0.00    +0.054 C 
ATOM      9  C   UNL     1      30.224 -24.842 -14.474  0.00  0.00    +0.007 C 
ATOM     10  C   UNL     1      30.788 -22.783 -15.603  0.00  0.00    +0.007 C 
ATOM     11  C   UNL     1      29.121 -25.000 -15.312  0.00  0.00    +0.030 C 
ATOM     12  C   UNL     1      29.685 -22.940 -16.442  0.00  0.00    +0.030 C 
ATOM     13  C   UNL     1      28.851 -24.048 -16.296  0.00  0.00    +0.140 C 
ENDBRANCH   6   8
BRANCH   3  15
ATOM     14  O   UNL     1      36.413 -26.155 -15.380  0.00  0.00    -0.250 OA
ATOM     15  C   UNL     1      36.485 -24.932 -15.288  0.00  0.00    +0.320 C 
BRANCH  15  16
ATOM     16  O   UNL     1      37.679 -24.278 -15.330  0.00  0.00    -0.480 OA
ATOM     17  H   UNL     1      38.129 -24.176 -16.145  0.00  0.00    +0.295 HD
ENDBRANCH  15  16
ENDBRANCH   3  15
BRANCH   3  18
ATOM     18  C   UNL     1      35.563 -22.642 -15.809  0.00  0.00    +0.219 C 
BRANCH  18  19
ATOM     19  O   UNL     1      36.078 -22.909 -17.113  0.00  0.00    -0.475 OA
BRANCH  19  20
ATOM     20  C   UNL     1      35.592 -22.155 -18.137  0.00  0.00    +0.139 C 
ATOM     21  C   UNL     1      36.440 -21.285 -18.823  0.00  0.00    +0.037 C 
ATOM     22  C   UNL     1      34.252 -22.251 -18.498  0.00  0.00    +0.037 C 
ATOM     23  C   UNL     1      35.955 -20.499 -19.882  0.00  0.00    +0.003 C 
ATOM     24  C   UNL     1      34.592 -20.597 -20.249  0.00  0.00    +0.003 C 
ATOM     25  C   UNL     1      33.753 -21.479 -19.548  0.00  0.00    +0.003 C 
ATOM     26  C   UNL     1      36.795 -19.618 -20.583  0.00  0.00    +0.003 C 
ATOM     27  C   UNL     1      34.109 -19.811 -21.308  0.00  0.00    +0.037 C 
ATOM     28  C   UNL     1      34.956 -18.942 -21.994  0.00  0.00    +0.139 C 
ATOM     29  C   UNL     1      36.296 -18.844 -21.633  0.00  0.00    +0.037 C 
BRANCH  28  30
ATOM     30  O   UNL     1      34.470 -18.185 -23.016  0.00  0.00    -0.471 OA
ATOM     31  C   UNL     1      34.671 -18.678 -24.340  0.00  0.00    +0.252 C 
ENDBRANCH  28  30
ENDBRANCH  19  20
ENDBRANCH  18  19
ENDBRANCH   3  18
TORSDOF 7
ENDMDL
MODEL 2
REMARK VINA RESULT:     -11.0      0.713      1.436
REMARK  Name = 25114442
REMARK  7 active torsions:
REMARK  status: ('A' for Active; 'I' for Inactive)
REMARK    1  A    between atoms: C_3  and  C_15
REMARK    2  A    between atoms: C_3  and  C_18
REMARK    3  A    between atoms: C_6  and  C_8
REMARK    4  A    between atoms: C_15  and  O_16
REMARK    5  A    between atoms: C_18  and  O_19
REMARK    6  A    between atoms: O_19  and  C_20
REMARK    7  A    between atoms: C_28  and  O_30
REMARK                            x       y       z     vdW  Elec       q    Type
REMARK                         _______ _______ _______ _____ _____    ______ ____
ROOT
ATOM      1  O   UNL     1      32.139 -22.766 -12.620  0.00  0.00    -0.270 OA
ATOM      2  N   UNL     1      33.534 -23.878 -14.074  0.00  0.00    -0.275 N 
ATOM      3  C   UNL     1      35.368 -24.028 -14.967  0.00  0.00    +0.166 C 
ATOM      4  C   UNL     1      33.992 -24.659 -15.208  0.00  0.00    +0.110 C 
ATOM      5  C   UNL     1      34.868 -23.578 -13.589  0.00  0.00    +0.110 C 
ATOM      6  C   UNL     1      32.314 -23.434 -13.635  0.00  0.00    +0.249 C 
ENDROOT
BRANCH   6   8
ATOM      7  F   UNL     1      27.856 -24.714 -16.782  0.00  0.00    -0.204 F 
ATOM      8  C   UNL     1      31.141 -23.772 -14.464  0.00  0.00    +0.054 C 
ATOM      9  C   UNL     1      30.428 -24.945 -14.219  0.00  0.00    +0.007 C 
ATOM     10  C   UNL     1      30.744 -22.916 -15.492  0.00  0.00    +0.007 C 
ATOM     11  C   UNL     1      29.318 -25.263 -15.001  0.00  0.00    +0.030 C 
ATOM     12  C   UNL     1      29.634 -23.235 -16.275  0.00  0.00    +0.030 C 
ATOM     13  C   UNL     1      28.921 -24.408 -16.030  0.00  0.00    +0.140 C 
ENDBRANCH   6   8
BRANCH   3  15
ATOM     14  O   UNL     1      36.579 -26.152 -14.562  0.00  0.00    -0.250 OA
ATOM     15  C   UNL     1      36.578 -24.996 -14.979  0.00  0.00    +0.320 C 
BRANCH  15  16
ATOM     16  O   UNL     1      37.692 -24.427 -15.518  0.00  0.00    -0.480 OA
ATOM     17  H   UNL     1      38.522 -24.532 -15.098  0.00  0.00    +0.295 HD
ENDBRANCH  15  16
ENDBRANCH   3  15
BRANCH   3  18
ATOM     18  C   UNL     1      35.616 -22.847 -15.886  0.00  0.00    +0.219 C 
BRANCH  18  19
ATOM     19  O   UNL     1      35.264 -23.224 -17.217  0.00  0.00    -0.475 OA
BRANCH  19  20
ATOM     20  C   UNL     1      35.370 -22.268 -18.179  0.00  0.00    +0.139 C 
ATOM     21  C   UNL     1      34.230 -21.827 -18.851  0.00  0.00    +0.037 C 
ATOM     22  C   UNL     1      36.616 -21.732 -18.494  0.00  0.00    +0.037 C 
ATOM     23  C   UNL     1      34.322 -20.841 -19.847  0.00  0.00    +0.003 C 
ATOM     24  C   UNL     1      35.588 -20.295 -20.168  0.00  0.00    +0.003 C 
ATOM     25  C   UNL     1      36.725 -20.752 -19.481  0.00  0.00    +0.003 C 
ATOM     26  C   UNL     1      33.184 -20.384 -20.533  0.00  0.00    +0.003 C 
ATOM     27  C   UNL     1      35.679 -19.310 -21.164  0.00  0.00    +0.037 C 
ATOM     28  C   UNL     1      34.539 -18.868 -21.835  0.00  0.00    +0.139 C 
ATOM     29  C   UNL     1      33.293 -19.405 -21.521  0.00  0.00    +0.037 C 
BRANCH  28  30
ATOM     30  O   UNL     1      34.645 -17.914 -22.800  0.00  0.00    -0.471 OA
ATOM     31  C   UNL     1      34.941 -16.587 -22.369  0.00  0.00    +0.252 C 
ENDBRANCH  28  30
ENDBRANCH  19  20
ENDBRANCH  18  19
ENDBRANCH   3  18
TORSDOF 7
ENDMDL
MODEL 3
REMARK VINA RESULT:     -10.9      5.712      9.582
REMARK  Name = 25114442
REMARK  7 active torsions:
REMARK  status: ('A' for Active; 'I' for Inactive)
REMARK    1  A    between atoms: C_3  and  C_15
REMARK    2  A    between atoms: C_3  and  C_18
REMARK    3  A    between atoms: C_6  and  C_8
REMARK    4  A    between atoms: C_15  and  O_16
REMARK    5  A    between atoms: C_18  and  O_19
REMARK    6  A    between atoms: O_19  and  C_20
REMARK    7  A    between atoms: C_28  and  O_30
REMARK                            x       y       z     vdW  Elec       q    Type
REMARK                         _______ _______ _______ _____ _____    ______ ____
ROOT
ATOM      1  O   UNL     1      37.270 -19.440 -20.599  0.00  0.00    -0.270 OA
ATOM      2  N   UNL     1      35.625 -18.948 -22.132  0.00  0.00    -0.275 N 
ATOM      3  C   UNL     1      34.790 -17.606 -23.431  0.00  0.00    +0.166 C 
ATOM      4  C   UNL     1      34.343 -18.935 -22.810  0.00  0.00    +0.110 C 
ATOM      5  C   UNL     1      36.219 -17.932 -22.981  0.00  0.00    +0.110 C 
ATOM      6  C   UNL     1      36.122 -19.567 -21.014  0.00  0.00    +0.249 C 
ENDROOT
BRANCH   6   8
ATOM      7  F   UNL     1      32.588 -22.820 -18.127  0.00  0.00    -0.204 F 
ATOM      8  C   UNL     1      35.191 -20.424 -20.255  0.00  0.00    +0.054 C 
ATOM      9  C   UNL     1      35.687 -21.450 -19.450  0.00  0.00    +0.007 C 
ATOM     10  C   UNL     1      33.816 -20.207 -20.340  0.00  0.00    +0.007 C 
ATOM     11  C   UNL     1      34.808 -22.259 -18.731  0.00  0.00    +0.030 C 
ATOM     12  C   UNL     1      32.936 -21.018 -19.622  0.00  0.00    +0.030 C 
ATOM     13  C   UNL     1      33.432 -22.043 -18.817  0.00  0.00    +0.140 C 
ENDBRANCH   6   8
BRANCH   3  15
ATOM     14  O   UNL     1      33.814 -18.137 -25.646  0.00  0.00    -0.250 OA
ATOM     15  C   UNL     1      34.567 -17.453 -24.957  0.00  0.00    +0.320 C 
BRANCH  15  16
ATOM     16  O   UNL     1      35.312 -16.446 -25.491  0.00  0.00    -0.480 OA
ATOM     17  H   UNL     1      36.083 -16.150 -25.050  0.00  0.00    +0.295 HD
ENDBRANCH  15  16
ENDBRANCH   3  15
BRANCH   3  18
ATOM     18  C   UNL     1      34.224 -16.415 -22.682  0.00  0.00    +0.219 C 
BRANCH  18  19
ATOM     19  O   UNL     1      33.579 -15.553 -23.619  0.00  0.00    -0.475 OA
BRANCH  19  20
ATOM     20  C   UNL     1      33.170 -14.338 -23.162  0.00  0.00    +0.139 C 
ATOM     21  C   UNL     1      33.505 -13.181 -23.866  0.00  0.00    +0.037 C 
ATOM     22  C   UNL     1      32.419 -14.251 -21.993  0.00  0.00    +0.037 C 
ATOM     23  C   UNL     1      33.091 -11.919 -23.408  0.00  0.00    +0.003 C 
ATOM     24  C   UNL     1      32.328 -11.830 -22.219  0.00  0.00    +0.003 C 
ATOM     25  C   UNL     1      31.999 -13.005 -21.524  0.00  0.00    +0.003 C 
ATOM     26  C   UNL     1      33.419 -10.744 -24.104  0.00  0.00    +0.003 C 
ATOM     27  C   UNL     1      31.914 -10.568 -21.763  0.00  0.00    +0.037 C 
ATOM     28  C   UNL     1      32.249  -9.411 -22.466  0.00  0.00    +0.139 C 
ATOM     29  C   UNL     1      33.001  -9.498 -23.634  0.00  0.00    +0.037 C 
BRANCH  28  30
ATOM     30  O   UNL     1      31.843  -8.195 -22.008  0.00  0.00    -0.471 OA
ATOM     31  C   UNL     1      32.368  -7.767 -20.753  0.00  0.00    +0.252 C 
ENDBRANCH  28  30
ENDBRANCH  19  20
ENDBRANCH  18  19
ENDBRANCH   3  18
TORSDOF 7
ENDMDL
MODEL 4
REMARK VINA RESULT:      -9.7      6.913     12.265
REMARK  Name = 25114442
REMARK  7 active torsions:
REMARK  status: ('A' for Active; 'I' for Inactive)
REMARK    1  A    between atoms: C_3  and  C_15
REMARK    2  A    between atoms: C_3  and  C_18
REMARK    3  A    between atoms: C_6  and  C_8
REMARK    4  A    between atoms: C_15  and  O_16
REMARK    5  A    between atoms: C_18  and  O_19
REMARK    6  A    between atoms: O_19  and  C_20
REMARK    7  A    between atoms: C_28  and  O_30
REMARK                            x       y       z     vdW  Elec       q    Type
REMARK                         _______ _______ _______ _____ _____    ______ ____
ROOT
ATOM      1  O   UNL     1      31.380 -11.696 -22.273  0.00  0.00    -0.270 OA
ATOM      2  N   UNL     1      32.739 -12.837 -23.739  0.00  0.00    -0.275 N 
ATOM      3  C   UNL     1      33.640 -14.591 -24.283  0.00  0.00    +0.166 C 
ATOM      4  C   UNL     1      33.797 -13.121 -24.690  0.00  0.00    +0.110 C 
ATOM      5  C   UNL     1      32.306 -14.217 -23.627  0.00  0.00    +0.110 C 
ATOM      6  C   UNL     1      32.327 -11.723 -23.054  0.00  0.00    +0.249 C 
ENDROOT
BRANCH   6   8
ATOM      7  F   UNL     1      35.270  -7.021 -23.847  0.00  0.00    -0.204 F 
ATOM      8  C   UNL     1      33.101 -10.485 -23.264  0.00  0.00    +0.054 C 
ATOM      9  C   UNL     1      32.737  -9.314 -22.599  0.00  0.00    +0.007 C 
ATOM     10  C   UNL     1      34.198 -10.486 -24.125  0.00  0.00    +0.007 C 
ATOM     11  C   UNL     1      33.470  -8.144 -22.796  0.00  0.00    +0.030 C 
ATOM     12  C   UNL     1      34.931  -9.315 -24.323  0.00  0.00    +0.030 C 
ATOM     13  C   UNL     1      34.567  -8.144 -23.658  0.00  0.00    +0.140 C 
ENDBRANCH   6   8
BRANCH   3  15
ATOM     14  O   UNL     1      32.995 -15.461 -26.512  0.00  0.00    -0.250 OA
ATOM     15  C   UNL     1      33.575 -15.620 -25.440  0.00  0.00    +0.320 C 
BRANCH  15  16
ATOM     16  O   UNL     1      34.250 -16.767 -25.152  0.00  0.00    -0.480 OA
ATOM     17  H   UNL     1      35.142 -16.865 -25.418  0.00  0.00    +0.295 HD
ENDBRANCH  15  16
ENDBRANCH   3  15
BRANCH   3  18
ATOM     18  C   UNL     1      34.675 -15.004 -23.254  0.00  0.00    +0.219 C 
BRANCH  18  19
ATOM     19  O   UNL     1      33.997 -15.518 -22.108  0.00  0.00    -0.475 OA
BRANCH  19  20
ATOM     20  C   UNL     1      34.341 -16.769 -21.696  0.00  0.00    +0.139 C 
ATOM     21  C   UNL     1      33.359 -17.642 -21.227  0.00  0.00    +0.037 C 
ATOM     22  C   UNL     1      35.672 -17.176 -21.740  0.00  0.00    +0.037 C 
ATOM     23  C   UNL     1      33.696 -18.936 -20.797  0.00  0.00    +0.003 C 
ATOM     24  C   UNL     1      35.049 -19.350 -20.842  0.00  0.00    +0.003 C 
ATOM     25  C   UNL     1      36.025 -18.458 -21.317  0.00  0.00    +0.003 C 
ATOM     26  C   UNL     1      32.720 -19.827 -20.322  0.00  0.00    +0.003 C 
ATOM     27  C   UNL     1      35.385 -20.643 -20.412  0.00  0.00    +0.037 C 
ATOM     28  C   UNL     1      34.404 -21.516 -19.944  0.00  0.00    +0.139 C 
ATOM     29  C   UNL     1      33.073 -21.110 -19.898  0.00  0.00    +0.037 C 
BRANCH  28  30
ATOM     30  O   UNL     1      34.748 -22.766 -19.528  0.00  0.00    -0.471 OA
ATOM     31  C   UNL     1      33.931 -23.362 -18.522  0.00  0.00    +0.252 C 
ENDBRANCH  28  30
ENDBRANCH  19  20
ENDBRANCH  18  19
ENDBRANCH   3  18
TORSDOF 7
ENDMDL
MODEL 5
REMARK VINA RESULT:      -9.6      4.309      9.334
REMARK  Name = 25114442
REMARK  7 active torsions:
REMARK  status: ('A' for Active; 'I' for Inactive)
REMARK    1  A    between atoms: C_3  and  C_15
REMARK    2  A    between atoms: C_3  and  C_18
REMARK    3  A    between atoms: C_6  and  C_8
REMARK    4  A    between atoms: C_15  and  O_16
REMARK    5  A    between atoms: C_18  and  O_19
REMARK    6  A    between atoms: O_19  and  C_20
REMARK    7  A    between atoms: C_28  and  O_30
REMARK                            x       y       z     vdW  Elec       q    Type
REMARK                         _______ _______ _______ _____ _____    ______ ____
ROOT
ATOM      1  O   UNL     1      33.858 -16.439 -24.641  0.00  0.00    -0.270 OA
ATOM      2  N   UNL     1      34.956 -17.030 -22.707  0.00  0.00    -0.275 N 
ATOM      3  C   UNL     1      35.765 -18.498 -21.535  0.00  0.00    +0.166 C 
ATOM      4  C   UNL     1      35.400 -17.024 -21.326  0.00  0.00    +0.110 C 
ATOM      5  C   UNL     1      35.635 -18.267 -23.044  0.00  0.00    +0.110 C 
ATOM      6  C   UNL     1      34.103 -16.258 -23.452  0.00  0.00    +0.249 C 
ENDROOT
BRANCH   6   8
ATOM      7  F   UNL     1      31.507 -12.055 -20.804  0.00  0.00    -0.204 F 
ATOM      8  C   UNL     1      33.421 -15.151 -22.754  0.00  0.00    +0.054 C 
ATOM      9  C   UNL     1      33.244 -13.926 -23.397  0.00  0.00    +0.007 C 
ATOM     10  C   UNL     1      32.950 -15.331 -21.453  0.00  0.00    +0.007 C 
ATOM     11  C   UNL     1      32.598 -12.880 -22.738  0.00  0.00    +0.030 C 
ATOM     12  C   UNL     1      32.304 -14.284 -20.794  0.00  0.00    +0.030 C 
ATOM     13  C   UNL     1      32.127 -13.059 -21.437  0.00  0.00    +0.140 C 
ENDBRANCH   6   8
BRANCH   3  15
ATOM     14  O   UNL     1      38.183 -19.016 -21.699  0.00  0.00    -0.250 OA
ATOM     15  C   UNL     1      37.160 -18.939 -21.023  0.00  0.00    +0.320 C 
BRANCH  15  16
ATOM     16  O   UNL     1      37.152 -19.244 -19.696  0.00  0.00    -0.480 OA
ATOM     17  H   UNL     1      36.420 -19.694 -19.323  0.00  0.00    +0.295 HD
ENDBRANCH  15  16
ENDBRANCH   3  15
BRANCH   3  18
ATOM     18  C   UNL     1      34.684 -19.426 -21.014  0.00  0.00    +0.219 C 
BRANCH  18  19
ATOM     19  O   UNL     1      35.255 -20.717 -20.804  0.00  0.00    -0.475 OA
BRANCH  19  20
ATOM     20  C   UNL     1      34.861 -21.394 -19.690  0.00  0.00    +0.139 C 
ATOM     21  C   UNL     1      35.783 -21.666 -18.679  0.00  0.00    +0.037 C 
ATOM     22  C   UNL     1      33.541 -21.815 -19.561  0.00  0.00    +0.037 C 
ATOM     23  C   UNL     1      35.394 -22.364 -17.524  0.00  0.00    +0.003 C 
ATOM     24  C   UNL     1      34.051 -22.791 -17.392  0.00  0.00    +0.003 C 
ATOM     25  C   UNL     1      33.137 -22.508 -18.420  0.00  0.00    +0.003 C 
ATOM     26  C   UNL     1      36.309 -22.646 -16.496  0.00  0.00    +0.003 C 
ATOM     27  C   UNL     1      33.663 -23.488 -16.237  0.00  0.00    +0.037 C 
ATOM     28  C   UNL     1      34.584 -23.760 -15.226  0.00  0.00    +0.139 C 
ATOM     29  C   UNL     1      35.905 -23.341 -15.354  0.00  0.00    +0.037 C 
BRANCH  28  30
ATOM     30  O   UNL     1      34.192 -24.440 -14.113  0.00  0.00    -0.471 OA
ATOM     31  C   UNL     1      34.879 -24.146 -12.898  0.00  0.00    +0.252 C 
ENDBRANCH  28  30
ENDBRANCH  19  20
ENDBRANCH  18  19
ENDBRANCH   3  18
TORSDOF 7
ENDMDL
MODEL 6
REMARK VINA RESULT:      -9.0     10.524     15.257
REMARK  Name = 25114442
REMARK  7 active torsions:
REMARK  status: ('A' for Active; 'I' for Inactive)
REMARK    1  A    between atoms: C_3  and  C_15
REMARK    2  A    between atoms: C_3  and  C_18
REMARK    3  A    between atoms: C_6  and  C_8
REMARK    4  A    between atoms: C_15  and  O_16
REMARK    5  A    between atoms: C_18  and  O_19
REMARK    6  A    between atoms: O_19  and  C_20
REMARK    7  A    between atoms: C_28  and  O_30
REMARK                            x       y       z     vdW  Elec       q    Type
REMARK                         _______ _______ _______ _____ _____    ______ ____
ROOT
ATOM      1  O   UNL     1      34.589  -7.186 -23.983  0.00  0.00    -0.270 OA
ATOM      2  N   UNL     1      32.957  -7.807 -22.483  0.00  0.00    -0.275 N 
ATOM      3  C   UNL     1      32.022  -9.293 -21.434  0.00  0.00    +0.166 C 
ATOM      4  C   UNL     1      31.709  -7.824 -21.744  0.00  0.00    +0.110 C 
ATOM      5  C   UNL     1      33.460  -9.035 -21.896  0.00  0.00    +0.110 C 
ATOM      6  C   UNL     1      33.480  -7.026 -23.481  0.00  0.00    +0.249 C 
ENDROOT
BRANCH   6   8
ATOM      7  F   UNL     1      30.240  -2.885 -25.422  0.00  0.00    -0.204 F 
ATOM      8  C   UNL     1      32.628  -5.935 -23.992  0.00  0.00    +0.054 C 
ATOM      9  C   UNL     1      32.724  -5.542 -25.326  0.00  0.00    +0.007 C 
ATOM     10  C   UNL     1      31.725  -5.299 -23.140  0.00  0.00    +0.007 C 
ATOM     11  C   UNL     1      31.918  -4.512 -25.810  0.00  0.00    +0.030 C 
ATOM     12  C   UNL     1      30.919  -4.268 -23.623  0.00  0.00    +0.030 C 
ATOM     13  C   UNL     1      31.015  -3.875 -24.958  0.00  0.00    +0.140 C 
ENDBRANCH   6   8
BRANCH   3  15
ATOM     14  O   UNL     1      32.709  -9.716 -19.090  0.00  0.00    -0.250 OA
ATOM     15  C   UNL     1      31.840  -9.736 -19.959  0.00  0.00    +0.320 C 
BRANCH  15  16
ATOM     16  O   UNL     1      30.575 -10.168 -19.700  0.00  0.00    -0.480 OA
ATOM     17  H   UNL     1      30.439 -10.931 -19.175  0.00  0.00    +0.295 HD
ENDBRANCH  15  16
ENDBRANCH   3  15
BRANCH   3  18
ATOM     18  C   UNL     1      31.292 -10.235 -22.371  0.00  0.00    +0.219 C 
BRANCH  18  19
ATOM     19  O   UNL     1      31.151 -11.500 -21.727  0.00  0.00    -0.475 OA
BRANCH  19  20
ATOM     20  C   UNL     1      32.023 -12.480 -22.089  0.00  0.00    +0.139 C 
ATOM     21  C   UNL     1      32.356 -13.486 -21.182  0.00  0.00    +0.037 C 
ATOM     22  C   UNL     1      32.584 -12.477 -23.363  0.00  0.00    +0.037 C 
ATOM     23  C   UNL     1      33.255 -14.504 -21.540  0.00  0.00    +0.003 C 
ATOM     24  C   UNL     1      33.825 -14.502 -22.835  0.00  0.00    +0.003 C 
ATOM     25  C   UNL     1      33.479 -13.481 -23.736  0.00  0.00    +0.003 C 
ATOM     26  C   UNL     1      33.601 -15.526 -20.639  0.00  0.00    +0.003 C 
ATOM     27  C   UNL     1      34.724 -15.520 -23.192  0.00  0.00    +0.037 C 
ATOM     28  C   UNL     1      35.056 -16.526 -22.285  0.00  0.00    +0.139 C 
ATOM     29  C   UNL     1      34.497 -16.529 -21.011  0.00  0.00    +0.037 C 
BRANCH  28  30
ATOM     30  O   UNL     1      35.931 -17.505 -22.647  0.00  0.00    -0.471 OA
ATOM     31  C   UNL     1      35.467 -18.477 -23.582  0.00  0.00    +0.252 C 
ENDBRANCH  28  30
ENDBRANCH  19  20
ENDBRANCH  18  19
ENDBRANCH   3  18
TORSDOF 7
ENDMDL
MODEL 7
REMARK VINA RESULT:      -8.9      4.568      9.870
REMARK  Name = 25114442
REMARK  7 active torsions:
REMARK  status: ('A' for Active; 'I' for Inactive)
REMARK    1  A    between atoms: C_3  and  C_15
REMARK    2  A    between atoms: C_3  and  C_18
REMARK    3  A    between atoms: C_6  and  C_8
REMARK    4  A    between atoms: C_15  and  O_16
REMARK    5  A    between atoms: C_18  and  O_19
REMARK    6  A    between atoms: O_19  and  C_20
REMARK    7  A    between atoms: C_28  and  O_30
REMARK                            x       y       z     vdW  Elec       q    Type
REMARK                         _______ _______ _______ _____ _____    ______ ____
ROOT
ATOM      1  O   UNL     1      33.589 -16.430 -25.297  0.00  0.00    -0.270 OA
ATOM      2  N   UNL     1      34.765 -16.814 -23.355  0.00  0.00    -0.275 N 
ATOM      3  C   UNL     1      35.482 -18.148 -21.981  0.00  0.00    +0.166 C 
ATOM      4  C   UNL     1      35.321 -16.624 -22.029  0.00  0.00    +0.110 C 
ATOM      5  C   UNL     1      35.254 -18.173 -23.496  0.00  0.00    +0.110 C 
ATOM      6  C   UNL     1      33.954 -16.077 -24.179  0.00  0.00    +0.249 C 
ENDROOT
BRANCH   6   8
ATOM      7  F   UNL     1      32.132 -11.155 -22.214  0.00  0.00    -0.204 F 
ATOM      8  C   UNL     1      33.475 -14.781 -23.661  0.00  0.00    +0.054 C 
ATOM      9  C   UNL     1      33.805 -13.600 -24.325  0.00  0.00    +0.007 C 
ATOM     10  C   UNL     1      32.690 -14.738 -22.509  0.00  0.00    +0.007 C 
ATOM     11  C   UNL     1      33.352 -12.375 -23.836  0.00  0.00    +0.030 C 
ATOM     12  C   UNL     1      32.237 -13.512 -22.019  0.00  0.00    +0.030 C 
ATOM     13  C   UNL     1      32.567 -12.331 -22.683  0.00  0.00    +0.140 C 
ENDBRANCH   6   8
BRANCH   3  15
ATOM     14  O   UNL     1      37.854 -18.842 -22.170  0.00  0.00    -0.250 OA
ATOM     15  C   UNL     1      36.850 -18.678 -21.480  0.00  0.00    +0.320 C 
BRANCH  15  16
ATOM     16  O   UNL     1      36.841 -18.957 -20.147  0.00  0.00    -0.480 OA
ATOM     17  H   UNL     1      36.512 -18.326 -19.539  0.00  0.00    +0.295 HD
ENDBRANCH  15  16
ENDBRANCH   3  15
BRANCH   3  18
ATOM     18  C   UNL     1      34.342 -18.812 -21.232  0.00  0.00    +0.219 C 
BRANCH  18  19
ATOM     19  O   UNL     1      34.471 -20.227 -21.366  0.00  0.00    -0.475 OA
BRANCH  19  20
ATOM     20  C   UNL     1      34.502 -20.958 -20.218  0.00  0.00    +0.139 C 
ATOM     21  C   UNL     1      33.309 -21.311 -19.586  0.00  0.00    +0.037 C 
ATOM     22  C   UNL     1      35.722 -21.350 -19.675  0.00  0.00    +0.037 C 
ATOM     23  C   UNL     1      33.323 -22.064 -18.401  0.00  0.00    +0.003 C 
ATOM     24  C   UNL     1      34.563 -22.464 -17.848  0.00  0.00    +0.003 C 
ATOM     25  C   UNL     1      35.754 -22.099 -18.498  0.00  0.00    +0.003 C 
ATOM     26  C   UNL     1      32.132 -22.430 -17.752  0.00  0.00    +0.003 C 
ATOM     27  C   UNL     1      34.576 -23.217 -16.663  0.00  0.00    +0.037 C 
ATOM     28  C   UNL     1      33.384 -23.571 -16.032  0.00  0.00    +0.139 C 
ATOM     29  C   UNL     1      32.163 -23.178 -16.574  0.00  0.00    +0.037 C 
BRANCH  28  30
ATOM     30  O   UNL     1      33.414 -24.300 -14.882  0.00  0.00    -0.471 OA
ATOM     31  C   UNL     1      32.478 -23.946 -13.865  0.00  0.00    +0.252 C 
ENDBRANCH  28  30
ENDBRANCH  19  20
ENDBRANCH  18  19
ENDBRANCH   3  18
TORSDOF 7
ENDMDL
