MODEL 1
REMARK VINA RESULT:      -6.7      0.000      0.000
REMARK  Name = 5287463
REMARK  5 active torsions:
REMARK  status: ('A' for Active; 'I' for Inactive)
REMARK    1  A    between atoms: C_1  and  O_9
REMARK    2  A    between atoms: C_2  and  C_8
REMARK    3  A    between atoms: O_9  and  P_10
REMARK    4  A    between atoms: P_10  and  O_12
REMARK    5  A    between atoms: P_10  and  O_14
REMARK                            x       y       z     vdW  Elec       q    Type
REMARK                         _______ _______ _______ _____ _____    ______ ____
ROOT
ATOM      1  C   UNL     1      37.934 -24.138 -14.317  0.00  0.00    +0.152 C 
ATOM      2  C   UNL     1      36.892 -24.368 -13.417  0.00  0.00    +0.077 C 
ATOM      3  C   UNL     1      37.686 -23.459 -15.510  0.00  0.00    +0.038 C 
ATOM      4  C   UNL     1      35.605 -23.919 -13.710  0.00  0.00    +0.006 C 
ATOM      5  C   UNL     1      36.399 -23.010 -15.803  0.00  0.00    +0.003 C 
ATOM      6  C   UNL     1      35.358 -23.240 -14.904  0.00  0.00    +0.000 C 
ENDROOT
BRANCH   2   8
ATOM      7  O   UNL     1      37.063 -26.302 -12.064  0.00  0.00    -0.283 OA
ATOM      8  C   UNL     1      37.129 -25.074 -12.165  0.00  0.00    +0.237 C 
ENDBRANCH   2   8
BRANCH   1   9
ATOM      9  O   UNL     1      39.198 -24.568 -14.047  0.00  0.00    -0.403 OA
BRANCH   9  10
ATOM     10  P   UNL     1      39.848 -25.949 -14.584  0.00  0.00    +0.528 P 
ATOM     11  O   UNL     1      41.006 -26.467 -13.781  0.00  0.00    -0.216 OA
BRANCH  10  12
ATOM     12  O   UNL     1      38.586 -26.952 -14.722  0.00  0.00    -0.293 OA
ATOM     13  H   UNL     1      37.768 -26.470 -14.524  0.00  0.00    +0.223 HD
ENDBRANCH  10  12
BRANCH  10  14
ATOM     14  O   UNL     1      40.204 -25.601 -16.123  0.00  0.00    -0.293 OA
ATOM     15  H   UNL     1      41.165 -25.500 -16.218  0.00  0.00    +0.223 HD
ENDBRANCH  10  14
ENDBRANCH   9  10
ENDBRANCH   1   9
TORSDOF 5
ENDMDL
MODEL 2
REMARK VINA RESULT:      -6.7     12.290     13.664
REMARK  Name = 5287463
REMARK  5 active torsions:
REMARK  status: ('A' for Active; 'I' for Inactive)
REMARK    1  A    between atoms: C_1  and  O_9
REMARK    2  A    between atoms: C_2  and  C_8
REMARK    3  A    between atoms: O_9  and  P_10
REMARK    4  A    between atoms: P_10  and  O_12
REMARK    5  A    between atoms: P_10  and  O_14
REMARK                            x       y       z     vdW  Elec       q    Type
REMARK                         _______ _______ _______ _____ _____    ______ ____
ROOT
ATOM      1  C   UNL     1      34.918 -16.557 -22.938  0.00  0.00    +0.152 C 
ATOM      2  C   UNL     1      34.850 -17.609 -23.853  0.00  0.00    +0.077 C 
ATOM      3  C   UNL     1      34.986 -16.827 -21.571  0.00  0.00    +0.038 C 
ATOM      4  C   UNL     1      34.848 -18.928 -23.401  0.00  0.00    +0.006 C 
ATOM      5  C   UNL     1      34.985 -18.147 -21.119  0.00  0.00    +0.003 C 
ATOM      6  C   UNL     1      34.916 -19.197 -22.034  0.00  0.00    +0.000 C 
ENDROOT
BRANCH   2   8
ATOM      7  O   UNL     1      33.714 -17.166 -25.882  0.00  0.00    -0.283 OA
ATOM      8  C   UNL     1      34.778 -17.349 -25.284  0.00  0.00    +0.237 C 
ENDBRANCH   2   8
BRANCH   1   9
ATOM      9  O   UNL     1      34.922 -15.262 -23.360  0.00  0.00    -0.403 OA
BRANCH   9  10
ATOM     10  P   UNL     1      33.629 -14.290 -23.395  0.00  0.00    +0.528 P 
ATOM     11  O   UNL     1      32.627 -14.515 -22.299  0.00  0.00    -0.216 OA
BRANCH  10  12
ATOM     12  O   UNL     1      34.256 -12.801 -23.476  0.00  0.00    -0.293 OA
ATOM     13  H   UNL     1      35.038 -12.748 -22.904  0.00  0.00    +0.223 HD
ENDBRANCH  10  12
BRANCH  10  14
ATOM     14  O   UNL     1      33.049 -14.521 -24.887  0.00  0.00    -0.293 OA
ATOM     15  H   UNL     1      33.775 -14.771 -25.481  0.00  0.00    +0.223 HD
ENDBRANCH  10  14
ENDBRANCH   9  10
ENDBRANCH   1   9
TORSDOF 5
ENDMDL
MODEL 3
REMARK VINA RESULT:      -6.6      1.557      2.511
REMARK  Name = 5287463
REMARK  5 active torsions:
REMARK  status: ('A' for Active; 'I' for Inactive)
REMARK    1  A    between atoms: C_1  and  O_9
REMARK    2  A    between atoms: C_2  and  C_8
REMARK    3  A    between atoms: O_9  and  P_10
REMARK    4  A    between atoms: P_10  and  O_12
REMARK    5  A    between atoms: P_10  and  O_14
REMARK                            x       y       z     vdW  Elec       q    Type
REMARK                         _______ _______ _______ _____ _____    ______ ____
ROOT
ATOM      1  C   UNL     1      37.976 -25.349 -13.431  0.00  0.00    +0.152 C 
ATOM      2  C   UNL     1      36.796 -25.088 -14.127  0.00  0.00    +0.077 C 
ATOM      3  C   UNL     1      38.206 -24.739 -12.197  0.00  0.00    +0.038 C 
ATOM      4  C   UNL     1      35.847 -24.217 -13.591  0.00  0.00    +0.006 C 
ATOM      5  C   UNL     1      37.257 -23.869 -11.660  0.00  0.00    +0.003 C 
ATOM      6  C   UNL     1      36.078 -23.608 -12.357  0.00  0.00    +0.000 C 
ENDROOT
BRANCH   2   8
ATOM      7  O   UNL     1      36.222 -26.901 -15.536  0.00  0.00    -0.283 OA
ATOM      8  C   UNL     1      36.536 -25.713 -15.416  0.00  0.00    +0.237 C 
ENDBRANCH   2   8
BRANCH   1   9
ATOM      9  O   UNL     1      38.915 -26.197 -13.937  0.00  0.00    -0.403 OA
BRANCH   9  10
ATOM     10  P   UNL     1      40.374 -25.755 -14.479  0.00  0.00    +0.528 P 
ATOM     11  O   UNL     1      40.849 -24.408 -14.017  0.00  0.00    -0.216 OA
BRANCH  10  12
ATOM     12  O   UNL     1      41.331 -27.003 -14.099  0.00  0.00    -0.293 OA
ATOM     13  H   UNL     1      41.238 -27.697 -14.771  0.00  0.00    +0.223 HD
ENDBRANCH  10  12
BRANCH  10  14
ATOM     14  O   UNL     1      40.216 -25.894 -16.083  0.00  0.00    -0.293 OA
ATOM     15  H   UNL     1      40.894 -26.500 -16.423  0.00  0.00    +0.223 HD
ENDBRANCH  10  14
ENDBRANCH   9  10
ENDBRANCH   1   9
TORSDOF 5
ENDMDL
MODEL 4
REMARK VINA RESULT:      -6.6      5.040      6.291
REMARK  Name = 5287463
REMARK  5 active torsions:
REMARK  status: ('A' for Active; 'I' for Inactive)
REMARK    1  A    between atoms: C_1  and  O_9
REMARK    2  A    between atoms: C_2  and  C_8
REMARK    3  A    between atoms: O_9  and  P_10
REMARK    4  A    between atoms: P_10  and  O_12
REMARK    5  A    between atoms: P_10  and  O_14
REMARK                            x       y       z     vdW  Elec       q    Type
REMARK                         _______ _______ _______ _____ _____    ______ ____
ROOT
ATOM      1  C   UNL     1      35.648 -21.650 -19.038  0.00  0.00    +0.152 C 
ATOM      2  C   UNL     1      34.262 -21.807 -19.079  0.00  0.00    +0.077 C 
ATOM      3  C   UNL     1      36.265 -20.693 -19.845  0.00  0.00    +0.038 C 
ATOM      4  C   UNL     1      33.494 -21.008 -19.925  0.00  0.00    +0.006 C 
ATOM      5  C   UNL     1      35.496 -19.893 -20.691  0.00  0.00    +0.003 C 
ATOM      6  C   UNL     1      34.111 -20.051 -20.731  0.00  0.00    +0.000 C 
ENDROOT
BRANCH   2   8
ATOM      7  O   UNL     1      33.590 -24.004 -18.513  0.00  0.00    -0.283 OA
ATOM      8  C   UNL     1      33.599 -22.800 -18.246  0.00  0.00    +0.237 C 
ENDBRANCH   2   8
BRANCH   1   9
ATOM      9  O   UNL     1      36.416 -22.420 -18.217  0.00  0.00    -0.403 OA
BRANCH   9  10
ATOM     10  P   UNL     1      36.833 -22.036 -16.702  0.00  0.00    +0.528 P 
ATOM     11  O   UNL     1      35.729 -22.132 -15.689  0.00  0.00    -0.216 OA
BRANCH  10  12
ATOM     12  O   UNL     1      38.136 -22.949 -16.407  0.00  0.00    -0.293 OA
ATOM     13  H   UNL     1      37.874 -23.726 -15.889  0.00  0.00    +0.223 HD
ENDBRANCH  10  12
BRANCH  10  14
ATOM     14  O   UNL     1      37.460 -20.554 -16.869  0.00  0.00    -0.293 OA
ATOM     15  H   UNL     1      37.207 -20.191 -17.733  0.00  0.00    +0.223 HD
ENDBRANCH  10  14
ENDBRANCH   9  10
ENDBRANCH   1   9
TORSDOF 5
ENDMDL
MODEL 5
REMARK VINA RESULT:      -6.5      1.268      2.586
REMARK  Name = 5287463
REMARK  5 active torsions:
REMARK  status: ('A' for Active; 'I' for Inactive)
REMARK    1  A    between atoms: C_1  and  O_9
REMARK    2  A    between atoms: C_2  and  C_8
REMARK    3  A    between atoms: O_9  and  P_10
REMARK    4  A    between atoms: P_10  and  O_12
REMARK    5  A    between atoms: P_10  and  O_14
REMARK                            x       y       z     vdW  Elec       q    Type
REMARK                         _______ _______ _______ _____ _____    ______ ____
ROOT
ATOM      1  C   UNL     1      38.122 -24.332 -13.565  0.00  0.00    +0.152 C 
ATOM      2  C   UNL     1      37.117 -23.656 -14.256  0.00  0.00    +0.077 C 
ATOM      3  C   UNL     1      37.883 -24.807 -12.275  0.00  0.00    +0.038 C 
ATOM      4  C   UNL     1      35.873 -23.453 -13.657  0.00  0.00    +0.006 C 
ATOM      5  C   UNL     1      36.639 -24.605 -11.677  0.00  0.00    +0.003 C 
ATOM      6  C   UNL     1      35.635 -23.928 -12.367  0.00  0.00    +0.000 C 
ENDROOT
BRANCH   2   8
ATOM      7  O   UNL     1      36.447 -23.047 -16.443  0.00  0.00    -0.283 OA
ATOM      8  C   UNL     1      37.345 -23.152 -15.603  0.00  0.00    +0.237 C 
ENDBRANCH   2   8
BRANCH   1   9
ATOM      9  O   UNL     1      39.343 -24.541 -14.133  0.00  0.00    -0.403 OA
BRANCH   9  10
ATOM     10  P   UNL     1      39.923 -25.980 -14.592  0.00  0.00    +0.528 P 
ATOM     11  O   UNL     1      41.046 -26.516 -13.752  0.00  0.00    -0.216 OA
BRANCH  10  12
ATOM     12  O   UNL     1      38.611 -26.922 -14.691  0.00  0.00    -0.293 OA
ATOM     13  H   UNL     1      37.947 -26.618 -14.053  0.00  0.00    +0.223 HD
ENDBRANCH  10  12
BRANCH  10  14
ATOM     14  O   UNL     1      40.309 -25.731 -16.143  0.00  0.00    -0.293 OA
ATOM     15  H   UNL     1      39.971 -26.464 -16.682  0.00  0.00    +0.223 HD
ENDBRANCH  10  14
ENDBRANCH   9  10
ENDBRANCH   1   9
TORSDOF 5
ENDMDL
MODEL 6
REMARK VINA RESULT:      -6.5     12.144     13.395
REMARK  Name = 5287463
REMARK  5 active torsions:
REMARK  status: ('A' for Active; 'I' for Inactive)
REMARK    1  A    between atoms: C_1  and  O_9
REMARK    2  A    between atoms: C_2  and  C_8
REMARK    3  A    between atoms: O_9  and  P_10
REMARK    4  A    between atoms: P_10  and  O_12
REMARK    5  A    between atoms: P_10  and  O_14
REMARK                            x       y       z     vdW  Elec       q    Type
REMARK                         _______ _______ _______ _____ _____    ______ ____
ROOT
ATOM      1  C   UNL     1      34.838 -16.368 -23.029  0.00  0.00    +0.152 C 
ATOM      2  C   UNL     1      34.756 -16.798 -21.704  0.00  0.00    +0.077 C 
ATOM      3  C   UNL     1      34.887 -17.304 -24.063  0.00  0.00    +0.038 C 
ATOM      4  C   UNL     1      34.723 -18.162 -21.414  0.00  0.00    +0.006 C 
ATOM      5  C   UNL     1      34.854 -18.667 -23.773  0.00  0.00    +0.003 C 
ATOM      6  C   UNL     1      34.772 -19.097 -22.449  0.00  0.00    +0.000 C 
ENDROOT
BRANCH   2   8
ATOM      7  O   UNL     1      33.673 -15.239 -20.291  0.00  0.00    -0.283 OA
ATOM      8  C   UNL     1      34.703 -15.839 -20.610  0.00  0.00    +0.237 C 
ENDBRANCH   2   8
BRANCH   1   9
ATOM      9  O   UNL     1      34.870 -15.041 -23.333  0.00  0.00    -0.403 OA
BRANCH   9  10
ATOM     10  P   UNL     1      33.626 -14.189 -23.920  0.00  0.00    +0.528 P 
ATOM     11  O   UNL     1      33.120 -14.634 -25.262  0.00  0.00    -0.216 OA
BRANCH  10  12
ATOM     12  O   UNL     1      32.538 -14.202 -22.722  0.00  0.00    -0.293 OA
ATOM     13  H   UNL     1      32.205 -15.105 -22.599  0.00  0.00    +0.223 HD
ENDBRANCH  10  12
BRANCH  10  14
ATOM     14  O   UNL     1      34.184 -12.671 -23.886  0.00  0.00    -0.293 OA
ATOM     15  H   UNL     1      33.630 -12.110 -24.451  0.00  0.00    +0.223 HD
ENDBRANCH  10  14
ENDBRANCH   9  10
ENDBRANCH   1   9
TORSDOF 5
ENDMDL
MODEL 7
REMARK VINA RESULT:      -6.4      9.195     10.402
REMARK  Name = 5287463
REMARK  5 active torsions:
REMARK  status: ('A' for Active; 'I' for Inactive)
REMARK    1  A    between atoms: C_1  and  O_9
REMARK    2  A    between atoms: C_2  and  C_8
REMARK    3  A    between atoms: O_9  and  P_10
REMARK    4  A    between atoms: P_10  and  O_12
REMARK    5  A    between atoms: P_10  and  O_14
REMARK                            x       y       z     vdW  Elec       q    Type
REMARK                         _______ _______ _______ _____ _____    ______ ____
ROOT
ATOM      1  C   UNL     1      34.901 -18.924 -21.094  0.00  0.00    +0.152 C 
ATOM      2  C   UNL     1      34.325 -20.039 -20.485  0.00  0.00    +0.077 C 
ATOM      3  C   UNL     1      36.289 -18.788 -21.127  0.00  0.00    +0.038 C 
ATOM      4  C   UNL     1      35.135 -21.016 -19.907  0.00  0.00    +0.006 C 
ATOM      5  C   UNL     1      37.100 -19.766 -20.550  0.00  0.00    +0.003 C 
ATOM      6  C   UNL     1      36.524 -20.879 -19.940  0.00  0.00    +0.000 C 
ENDROOT
BRANCH   2   8
ATOM      7  O   UNL     1      32.277 -20.591 -19.435  0.00  0.00    -0.283 OA
ATOM      8  C   UNL     1      32.878 -20.201 -20.440  0.00  0.00    +0.237 C 
ENDBRANCH   2   8
BRANCH   1   9
ATOM      9  O   UNL     1      34.127 -17.960 -21.665  0.00  0.00    -0.403 OA
BRANCH   9  10
ATOM     10  P   UNL     1      34.457 -16.376 -21.661  0.00  0.00    +0.528 P 
ATOM     11  O   UNL     1      35.348 -15.904 -22.774  0.00  0.00    -0.216 OA
BRANCH  10  12
ATOM     12  O   UNL     1      33.004 -15.669 -21.580  0.00  0.00    -0.293 OA
ATOM     13  H   UNL     1      32.313 -16.337 -21.708  0.00  0.00    +0.223 HD
ENDBRANCH  10  12
BRANCH  10  14
ATOM     14  O   UNL     1      35.059 -16.140 -20.178  0.00  0.00    -0.293 OA
ATOM     15  H   UNL     1      35.790 -16.760 -20.024  0.00  0.00    +0.223 HD
ENDBRANCH  10  14
ENDBRANCH   9  10
ENDBRANCH   1   9
TORSDOF 5
ENDMDL
MODEL 8
REMARK VINA RESULT:      -6.3      4.167      5.118
REMARK  Name = 5287463
REMARK  5 active torsions:
REMARK  status: ('A' for Active; 'I' for Inactive)
REMARK    1  A    between atoms: C_1  and  O_9
REMARK    2  A    between atoms: C_2  and  C_8
REMARK    3  A    between atoms: O_9  and  P_10
REMARK    4  A    between atoms: P_10  and  O_12
REMARK    5  A    between atoms: P_10  and  O_14
REMARK                            x       y       z     vdW  Elec       q    Type
REMARK                         _______ _______ _______ _____ _____    ______ ____
ROOT
ATOM      1  C   UNL     1      35.465 -24.642 -13.762  0.00  0.00    +0.152 C 
ATOM      2  C   UNL     1      36.161 -25.045 -12.622  0.00  0.00    +0.077 C 
ATOM      3  C   UNL     1      35.739 -25.238 -14.994  0.00  0.00    +0.038 C 
ATOM      4  C   UNL     1      37.132 -26.042 -12.714  0.00  0.00    +0.006 C 
ATOM      5  C   UNL     1      36.710 -26.236 -15.085  0.00  0.00    +0.003 C 
ATOM      6  C   UNL     1      37.406 -26.638 -13.945  0.00  0.00    +0.000 C 
ENDROOT
BRANCH   2   8
ATOM      7  O   UNL     1      35.285 -25.019 -10.424  0.00  0.00    -0.283 OA
ATOM      8  C   UNL     1      35.890 -24.436 -11.328  0.00  0.00    +0.237 C 
ENDBRANCH   2   8
BRANCH   1   9
ATOM      9  O   UNL     1      34.512 -23.670 -13.694  0.00  0.00    -0.403 OA
BRANCH   9  10
ATOM     10  P   UNL     1      32.930 -23.898 -13.942  0.00  0.00    +0.528 P 
ATOM     11  O   UNL     1      32.480 -23.774 -15.369  0.00  0.00    -0.216 OA
BRANCH  10  12
ATOM     12  O   UNL     1      32.618 -25.317 -13.229  0.00  0.00    -0.293 OA
ATOM     13  H   UNL     1      32.336 -25.163 -12.314  0.00  0.00    +0.223 HD
ENDBRANCH  10  12
BRANCH  10  14
ATOM     14  O   UNL     1      32.253 -22.829 -12.934  0.00  0.00    -0.293 OA
ATOM     15  H   UNL     1      31.711 -23.300 -12.280  0.00  0.00    +0.223 HD
ENDBRANCH  10  14
ENDBRANCH   9  10
ENDBRANCH   1   9
TORSDOF 5
ENDMDL
MODEL 9
REMARK VINA RESULT:      -6.3     11.237     12.588
REMARK  Name = 5287463
REMARK  5 active torsions:
REMARK  status: ('A' for Active; 'I' for Inactive)
REMARK    1  A    between atoms: C_1  and  O_9
REMARK    2  A    between atoms: C_2  and  C_8
REMARK    3  A    between atoms: O_9  and  P_10
REMARK    4  A    between atoms: P_10  and  O_12
REMARK    5  A    between atoms: P_10  and  O_14
REMARK                            x       y       z     vdW  Elec       q    Type
REMARK                         _______ _______ _______ _____ _____    ______ ____
ROOT
ATOM      1  C   UNL     1      35.004 -16.832 -23.338  0.00  0.00    +0.152 C 
ATOM      2  C   UNL     1      35.358 -18.119 -22.931  0.00  0.00    +0.077 C 
ATOM      3  C   UNL     1      34.382 -16.638 -24.572  0.00  0.00    +0.038 C 
ATOM      4  C   UNL     1      35.091 -19.211 -23.757  0.00  0.00    +0.006 C 
ATOM      5  C   UNL     1      34.114 -17.730 -25.397  0.00  0.00    +0.003 C 
ATOM      6  C   UNL     1      34.469 -19.016 -24.990  0.00  0.00    +0.000 C 
ENDROOT
BRANCH   2   8
ATOM      7  O   UNL     1      35.392 -18.377 -20.579  0.00  0.00    -0.283 OA
ATOM      8  C   UNL     1      36.008 -18.343 -21.647  0.00  0.00    +0.237 C 
ENDBRANCH   2   8
BRANCH   1   9
ATOM      9  O   UNL     1      35.255 -15.753 -22.546  0.00  0.00    -0.403 OA
BRANCH   9  10
ATOM     10  P   UNL     1      34.169 -15.021 -21.597  0.00  0.00    +0.528 P 
ATOM     11  O   UNL     1      33.502 -13.817 -22.196  0.00  0.00    -0.216 OA
BRANCH  10  12
ATOM     12  O   UNL     1      33.177 -16.214 -21.137  0.00  0.00    -0.293 OA
ATOM     13  H   UNL     1      32.544 -16.399 -21.847  0.00  0.00    +0.223 HD
ENDBRANCH  10  12
BRANCH  10  14
ATOM     14  O   UNL     1      35.016 -14.715 -20.253  0.00  0.00    -0.293 OA
ATOM     15  H   UNL     1      35.020 -13.759 -20.084  0.00  0.00    +0.223 HD
ENDBRANCH  10  14
ENDBRANCH   9  10
ENDBRANCH   1   9
TORSDOF 5
ENDMDL
