MODEL 1
REMARK VINA RESULT:      -9.2      0.000      0.000
REMARK  Name = 447450
REMARK  12 active torsions:
REMARK  status: ('A' for Active; 'I' for Inactive)
REMARK    1  A    between atoms: C_1  and  C_9
REMARK    2  A    between atoms: C_2  and  N_23
REMARK    3  A    between atoms: N_8  and  C_11
REMARK    4  A    between atoms: C_11  and  C_12
REMARK    5  A    between atoms: C_12  and  S_13
REMARK    6  A    between atoms: S_13  and  S_14
REMARK    7  A    between atoms: S_14  and  C_15
REMARK    8  A    between atoms: C_15  and  C_16
REMARK    9  A    between atoms: C_16  and  N_18
REMARK   10  A    between atoms: C_24  and  C_28
REMARK   11  A    between atoms: CA_29  and  C_33
REMARK   12  A    between atoms: C_33  and  O_34
REMARK                            x       y       z     vdW  Elec       q    Type
REMARK                         _______ _______ _______ _____ _____    ______ ____
ROOT
ATOM      1  C   UNL     1      34.842 -20.169 -21.309  0.00  0.00    +0.077 C 
ATOM      2  C   UNL     1      35.846 -17.957 -23.017  0.00  0.00    +0.072 C 
ATOM      3  C   UNL     1      35.730 -19.070 -20.725  0.00  0.00    +0.011 C 
ATOM      4  C   UNL     1      34.029 -19.663 -22.501  0.00  0.00    +0.011 C 
ATOM      5  C   UNL     1      36.627 -18.443 -21.791  0.00  0.00    +0.020 C 
ATOM      6  C   UNL     1      34.929 -19.050 -23.573  0.00  0.00    +0.020 C 
ENDROOT
BRANCH   1   9
ATOM      7  O   UNL     1      32.817 -20.172 -20.047  0.00  0.00    -0.275 OA
ATOM      8  N   UNL     1      34.469 -21.730 -19.532  0.00  0.00    -0.303 N 
ATOM      9  C   UNL     1      33.919 -20.677 -20.244  0.00  0.00    +0.222 C 
ATOM     10  H   UNL     1      35.365 -22.049 -19.784  0.00  0.00    +0.149 HD
BRANCH   8  11
ATOM     11  C   UNL     1      33.790 -22.383 -18.437  0.00  0.00    +0.102 C 
BRANCH  11  12
ATOM     12  C   UNL     1      34.722 -22.743 -17.288  0.00  0.00    +0.090 C 
BRANCH  12  13
ATOM     13  S   UNL     1      36.365 -21.984 -17.473  0.00  0.00    -0.080 S 
BRANCH  13  14
ATOM     14  S   UNL     1      37.321 -22.665 -15.786  0.00  0.00    -0.080 S 
BRANCH  14  15
ATOM     15  C   UNL     1      36.096 -23.807 -15.102  0.00  0.00    +0.090 C 
BRANCH  15  16
ATOM     16  C   UNL     1      36.623 -25.233 -15.015  0.00  0.00    +0.102 C 
BRANCH  16  18
ATOM     17  O   UNL     1      38.606 -26.085 -13.074  0.00  0.00    -0.275 OA
ATOM     18  N   UNL     1      38.046 -25.319 -15.200  0.00  0.00    -0.303 N 
ATOM     19  C   UNL     1      38.922 -25.739 -14.209  0.00  0.00    +0.223 C 
ATOM     20  C   UNL     1      40.353 -25.760 -14.675  0.00  0.00    +0.095 C 
ATOM     21  H   UNL     1      38.418 -25.066 -16.075  0.00  0.00    +0.149 HD
ENDBRANCH  16  18
ENDBRANCH  15  16
ENDBRANCH  14  15
ENDBRANCH  13  14
ENDBRANCH  12  13
ENDBRANCH  11  12
ENDBRANCH   8  11
ENDBRANCH   1   9
BRANCH   2  23
ATOM     22  O   UNL     1      34.575 -16.214 -24.912  0.00  0.00    -0.268 OA
ATOM     23  N   UNL     1      35.097 -16.757 -22.719  0.00  0.00    -0.301 N 
ATOM     24  C   UNL     1      34.518 -15.978 -23.708  0.00  0.00    +0.265 C 
ATOM     25  H   UNL     1      34.993 -16.484 -21.779  0.00  0.00    +0.150 HD
BRANCH  24  28
ATOM     26  N   UNL     1      33.626 -13.799 -24.166  0.00  0.00    -0.236 NA
ATOM     27  N   UNL     1      32.699 -13.517 -21.534  0.00  0.00    -0.234 NA
ATOM     28  C   UNL     1      33.802 -14.763 -23.241  0.00  0.00    +0.158 C 
ATOM     29  CA  UNL     1      33.348 -14.624 -21.947  0.00  0.00    +0.179 C 
ATOM     30  C   UNL     1      32.978 -12.692 -23.752  0.00  0.00    +0.120 C 
ATOM     31  C   UNL     1      32.522 -12.553 -22.460  0.00  0.00    +0.120 C 
BRANCH  29  33
ATOM     32  OXT UNL     1      32.771 -16.613 -20.751  0.00  0.00    -0.243 OA
ATOM     33  C   UNL     1      33.530 -15.657 -20.941  0.00  0.00    +0.358 C 
BRANCH  33  34
ATOM     34  O   UNL     1      34.656 -15.470 -20.200  0.00  0.00    -0.476 OA
ATOM     35  H   UNL     1      35.361 -16.084 -20.257  0.00  0.00    +0.295 HD
ENDBRANCH  33  34
ENDBRANCH  29  33
ENDBRANCH  24  28
ENDBRANCH   2  23
TORSDOF 12
ENDMDL
MODEL 2
REMARK VINA RESULT:      -9.1      3.133      4.836
REMARK  Name = 447450
REMARK  12 active torsions:
REMARK  status: ('A' for Active; 'I' for Inactive)
REMARK    1  A    between atoms: C_1  and  C_9
REMARK    2  A    between atoms: C_2  and  N_23
REMARK    3  A    between atoms: N_8  and  C_11
REMARK    4  A    between atoms: C_11  and  C_12
REMARK    5  A    between atoms: C_12  and  S_13
REMARK    6  A    between atoms: S_13  and  S_14
REMARK    7  A    between atoms: S_14  and  C_15
REMARK    8  A    between atoms: C_15  and  C_16
REMARK    9  A    between atoms: C_16  and  N_18
REMARK   10  A    between atoms: C_24  and  C_28
REMARK   11  A    between atoms: CA_29  and  C_33
REMARK   12  A    between atoms: C_33  and  O_34
REMARK                            x       y       z     vdW  Elec       q    Type
REMARK                         _______ _______ _______ _____ _____    ______ ____
ROOT
ATOM      1  C   UNL     1      34.772 -20.198 -21.275  0.00  0.00    +0.077 C 
ATOM      2  C   UNL     1      35.865 -18.012 -22.963  0.00  0.00    +0.072 C 
ATOM      3  C   UNL     1      35.656 -19.108 -20.669  0.00  0.00    +0.011 C 
ATOM      4  C   UNL     1      34.007 -19.688 -22.497  0.00  0.00    +0.011 C 
ATOM      5  C   UNL     1      36.598 -18.501 -21.709  0.00  0.00    +0.020 C 
ATOM      6  C   UNL     1      34.951 -19.096 -23.542  0.00  0.00    +0.020 C 
ENDROOT
BRANCH   1   9
ATOM      7  O   UNL     1      32.717 -20.147 -20.066  0.00  0.00    -0.275 OA
ATOM      8  N   UNL     1      34.305 -21.760 -19.523  0.00  0.00    -0.303 N 
ATOM      9  C   UNL     1      33.807 -20.685 -20.239  0.00  0.00    +0.222 C 
ATOM     10  H   UNL     1      35.197 -22.105 -19.755  0.00  0.00    +0.149 HD
BRANCH   8  11
ATOM     11  C   UNL     1      33.578 -22.400 -18.450  0.00  0.00    +0.102 C 
BRANCH  11  12
ATOM     12  C   UNL     1      34.471 -22.809 -17.287  0.00  0.00    +0.090 C 
BRANCH  12  13
ATOM     13  S   UNL     1      33.513 -23.415 -15.865  0.00  0.00    -0.080 S 
BRANCH  13  14
ATOM     14  S   UNL     1      31.586 -23.117 -16.514  0.00  0.00    -0.080 S 
BRANCH  14  15
ATOM     15  C   UNL     1      30.665 -23.136 -14.957  0.00  0.00    +0.090 C 
BRANCH  15  16
ATOM     16  C   UNL     1      29.247 -23.664 -15.133  0.00  0.00    +0.102 C 
BRANCH  16  18
ATOM     17  O   UNL     1      27.736 -24.003 -17.588  0.00  0.00    -0.275 OA
ATOM     18  N   UNL     1      28.366 -22.714 -15.755  0.00  0.00    -0.303 N 
ATOM     19  C   UNL     1      27.681 -22.964 -16.936  0.00  0.00    +0.223 C 
ATOM     20  C   UNL     1      26.809 -21.811 -17.352  0.00  0.00    +0.095 C 
ATOM     21  H   UNL     1      28.242 -21.839 -15.320  0.00  0.00    +0.149 HD
ENDBRANCH  16  18
ENDBRANCH  15  16
ENDBRANCH  14  15
ENDBRANCH  13  14
ENDBRANCH  12  13
ENDBRANCH  11  12
ENDBRANCH   8  11
ENDBRANCH   1   9
BRANCH   2  23
ATOM     22  O   UNL     1      34.673 -16.271 -24.910  0.00  0.00    -0.268 OA
ATOM     23  N   UNL     1      35.125 -16.800 -22.698  0.00  0.00    -0.301 N 
ATOM     24  C   UNL     1      34.585 -16.023 -23.711  0.00  0.00    +0.265 C 
ATOM     25  H   UNL     1      34.998 -16.516 -21.764  0.00  0.00    +0.150 HD
BRANCH  24  28
ATOM     26  N   UNL     1      33.716 -13.846 -24.220  0.00  0.00    -0.236 NA
ATOM     27  N   UNL     1      32.759 -13.507 -21.606  0.00  0.00    -0.234 NA
ATOM     28  C   UNL     1      33.873 -14.793 -23.275  0.00  0.00    +0.158 C 
ATOM     29  CA  UNL     1      33.404 -14.627 -21.991  0.00  0.00    +0.179 C 
ATOM     30  C   UNL     1      33.072 -12.726 -23.836  0.00  0.00    +0.120 C 
ATOM     31  C   UNL     1      32.601 -12.560 -22.552  0.00  0.00    +0.120 C 
BRANCH  29  33
ATOM     32  OXT UNL     1      32.802 -16.596 -20.773  0.00  0.00    -0.243 OA
ATOM     33  C   UNL     1      33.565 -15.642 -20.963  0.00  0.00    +0.358 C 
BRANCH  33  34
ATOM     34  O   UNL     1      34.675 -15.441 -20.201  0.00  0.00    -0.476 OA
ATOM     35  H   UNL     1      35.243 -14.719 -20.383  0.00  0.00    +0.295 HD
ENDBRANCH  33  34
ENDBRANCH  29  33
ENDBRANCH  24  28
ENDBRANCH   2  23
TORSDOF 12
ENDMDL
MODEL 3
REMARK VINA RESULT:      -8.9      1.443      1.829
REMARK  Name = 447450
REMARK  12 active torsions:
REMARK  status: ('A' for Active; 'I' for Inactive)
REMARK    1  A    between atoms: C_1  and  C_9
REMARK    2  A    between atoms: C_2  and  N_23
REMARK    3  A    between atoms: N_8  and  C_11
REMARK    4  A    between atoms: C_11  and  C_12
REMARK    5  A    between atoms: C_12  and  S_13
REMARK    6  A    between atoms: S_13  and  S_14
REMARK    7  A    between atoms: S_14  and  C_15
REMARK    8  A    between atoms: C_15  and  C_16
REMARK    9  A    between atoms: C_16  and  N_18
REMARK   10  A    between atoms: C_24  and  C_28
REMARK   11  A    between atoms: CA_29  and  C_33
REMARK   12  A    between atoms: C_33  and  O_34
REMARK                            x       y       z     vdW  Elec       q    Type
REMARK                         _______ _______ _______ _____ _____    ______ ____
ROOT
ATOM      1  C   UNL     1      35.281 -20.077 -21.396  0.00  0.00    +0.077 C 
ATOM      2  C   UNL     1      35.619 -17.804 -23.277  0.00  0.00    +0.072 C 
ATOM      3  C   UNL     1      36.165 -18.885 -21.032  0.00  0.00    +0.011 C 
ATOM      4  C   UNL     1      34.160 -19.676 -22.356  0.00  0.00    +0.011 C 
ATOM      5  C   UNL     1      36.714 -18.188 -22.277  0.00  0.00    +0.020 C 
ATOM      6  C   UNL     1      34.712 -18.993 -23.607  0.00  0.00    +0.020 C 
ENDROOT
BRANCH   1   9
ATOM      7  O   UNL     1      33.524 -20.463 -19.828  0.00  0.00    -0.275 OA
ATOM      8  N   UNL     1      35.621 -21.389 -19.423  0.00  0.00    -0.303 N 
ATOM      9  C   UNL     1      34.694 -20.658 -20.145  0.00  0.00    +0.222 C 
ATOM     10  H   UNL     1      36.534 -21.475 -19.781  0.00  0.00    +0.149 HD
BRANCH   8  11
ATOM     11  C   UNL     1      35.313 -22.033 -18.166  0.00  0.00    +0.102 C 
BRANCH  11  12
ATOM     12  C   UNL     1      36.492 -22.054 -17.203  0.00  0.00    +0.090 C 
BRANCH  12  13
ATOM     13  S   UNL     1      36.058 -22.797 -15.601  0.00  0.00    -0.080 S 
BRANCH  13  14
ATOM     14  S   UNL     1      37.744 -23.898 -15.190  0.00  0.00    -0.080 S 
BRANCH  14  15
ATOM     15  C   UNL     1      37.070 -25.572 -15.062  0.00  0.00    +0.090 C 
BRANCH  15  16
ATOM     16  C   UNL     1      37.225 -26.149 -13.661  0.00  0.00    +0.102 C 
BRANCH  16  18
ATOM     17  O   UNL     1      37.905 -24.482 -11.385  0.00  0.00    -0.275 OA
ATOM     18  N   UNL     1      36.323 -25.563 -12.708  0.00  0.00    -0.303 N 
ATOM     19  C   UNL     1      36.741 -24.776 -11.644  0.00  0.00    +0.223 C 
ATOM     20  C   UNL     1      35.592 -24.270 -10.815  0.00  0.00    +0.095 C 
ATOM     21  H   UNL     1      35.359 -25.730 -12.814  0.00  0.00    +0.149 HD
ENDBRANCH  16  18
ENDBRANCH  15  16
ENDBRANCH  14  15
ENDBRANCH  13  14
ENDBRANCH  12  13
ENDBRANCH  11  12
ENDBRANCH   8  11
ENDBRANCH   1   9
BRANCH   2  23
ATOM     22  O   UNL     1      34.157 -15.924 -24.881  0.00  0.00    -0.268 OA
ATOM     23  N   UNL     1      34.844 -16.681 -22.800  0.00  0.00    -0.301 N 
ATOM     24  C   UNL     1      34.170 -15.825 -23.657  0.00  0.00    +0.265 C 
ATOM     25  H   UNL     1      34.793 -16.519 -21.830  0.00  0.00    +0.150 HD
BRANCH  24  28
ATOM     26  N   UNL     1      32.969 -13.758 -23.848  0.00  0.00    -0.236 NA
ATOM     27  N   UNL     1      32.589 -13.608 -21.074  0.00  0.00    -0.234 NA
ATOM     28  C   UNL     1      33.440 -14.704 -23.012  0.00  0.00    +0.158 C 
ATOM     29  CA  UNL     1      33.254 -14.630 -21.649  0.00  0.00    +0.179 C 
ATOM     30  C   UNL     1      32.305 -12.736 -23.273  0.00  0.00    +0.120 C 
ATOM     31  C   UNL     1      32.118 -12.663 -21.911  0.00  0.00    +0.120 C 
BRANCH  29  33
ATOM     32  OXT UNL     1      34.813 -15.577 -20.101  0.00  0.00    -0.243 OA
ATOM     33  C   UNL     1      33.755 -15.645 -20.737  0.00  0.00    +0.358 C 
BRANCH  33  34
ATOM     34  O   UNL     1      32.923 -16.717 -20.641  0.00  0.00    -0.476 OA
ATOM     35  H   UNL     1      32.561 -17.100 -21.416  0.00  0.00    +0.295 HD
ENDBRANCH  33  34
ENDBRANCH  29  33
ENDBRANCH  24  28
ENDBRANCH   2  23
TORSDOF 12
ENDMDL
MODEL 4
REMARK VINA RESULT:      -8.8      4.449     11.379
REMARK  Name = 447450
REMARK  12 active torsions:
REMARK  status: ('A' for Active; 'I' for Inactive)
REMARK    1  A    between atoms: C_1  and  C_9
REMARK    2  A    between atoms: C_2  and  N_23
REMARK    3  A    between atoms: N_8  and  C_11
REMARK    4  A    between atoms: C_11  and  C_12
REMARK    5  A    between atoms: C_12  and  S_13
REMARK    6  A    between atoms: S_13  and  S_14
REMARK    7  A    between atoms: S_14  and  C_15
REMARK    8  A    between atoms: C_15  and  C_16
REMARK    9  A    between atoms: C_16  and  N_18
REMARK   10  A    between atoms: C_24  and  C_28
REMARK   11  A    between atoms: CA_29  and  C_33
REMARK   12  A    between atoms: C_33  and  O_34
REMARK                            x       y       z     vdW  Elec       q    Type
REMARK                         _______ _______ _______ _____ _____    ______ ____
ROOT
ATOM      1  C   UNL     1      34.291 -16.954 -21.566  0.00  0.00    +0.077 C 
ATOM      2  C   UNL     1      34.892 -19.862 -21.533  0.00  0.00    +0.072 C 
ATOM      3  C   UNL     1      33.242 -17.964 -21.102  0.00  0.00    +0.011 C 
ATOM      4  C   UNL     1      35.712 -17.462 -21.319  0.00  0.00    +0.011 C 
ATOM      5  C   UNL     1      33.465 -19.339 -21.732  0.00  0.00    +0.020 C 
ATOM      6  C   UNL     1      35.937 -18.830 -21.963  0.00  0.00    +0.020 C 
ENDROOT
BRANCH   1   9
ATOM      7  O   UNL     1      34.890 -15.241 -20.018  0.00  0.00    -0.275 OA
ATOM      8  N   UNL     1      32.897 -15.041 -21.205  0.00  0.00    -0.303 N 
ATOM      9  C   UNL     1      34.083 -15.658 -20.843  0.00  0.00    +0.222 C 
ATOM     10  H   UNL     1      32.331 -15.475 -21.882  0.00  0.00    +0.149 HD
BRANCH   8  11
ATOM     11  C   UNL     1      32.452 -13.790 -20.635  0.00  0.00    +0.102 C 
BRANCH  11  12
ATOM     12  C   UNL     1      32.363 -12.667 -21.659  0.00  0.00    +0.090 C 
BRANCH  12  13
ATOM     13  S   UNL     1      30.992 -11.525 -21.310  0.00  0.00    -0.080 S 
BRANCH  13  14
ATOM     14  S   UNL     1      31.515 -10.814 -19.454  0.00  0.00    -0.080 S 
BRANCH  14  15
ATOM     15  C   UNL     1      32.197  -9.189 -19.860  0.00  0.00    +0.090 C 
BRANCH  15  16
ATOM     16  C   UNL     1      31.941  -8.803 -21.310  0.00  0.00    +0.102 C 
BRANCH  16  18
ATOM     17  O   UNL     1      32.646  -6.535 -22.978  0.00  0.00    -0.275 OA
ATOM     18  N   UNL     1      33.150  -8.616 -22.065  0.00  0.00    -0.303 N 
ATOM     19  C   UNL     1      33.402  -7.493 -22.840  0.00  0.00    +0.223 C 
ATOM     20  C   UNL     1      34.752  -7.541 -23.504  0.00  0.00    +0.095 C 
ATOM     21  H   UNL     1      33.835  -9.323 -22.031  0.00  0.00    +0.149 HD
ENDBRANCH  16  18
ENDBRANCH  15  16
ENDBRANCH  14  15
ENDBRANCH  13  14
ENDBRANCH  12  13
ENDBRANCH  11  12
ENDBRANCH   8  11
ENDBRANCH   1   9
BRANCH   2  23
ATOM     22  O   UNL     1      36.074 -22.330 -20.665  0.00  0.00    -0.268 OA
ATOM     23  N   UNL     1      35.110 -20.280 -20.168  0.00  0.00    -0.301 N 
ATOM     24  C   UNL     1      35.691 -21.498 -19.847  0.00  0.00    +0.265 C 
ATOM     25  H   UNL     1      34.836 -19.679 -19.438  0.00  0.00    +0.150 HD
BRANCH  24  28
ATOM     26  N   UNL     1      36.950 -21.339 -17.812  0.00  0.00    -0.236 NA
ATOM     27  N   UNL     1      34.991 -22.739 -16.374  0.00  0.00    -0.234 NA
ATOM     28  C   UNL     1      35.823 -21.791 -18.397  0.00  0.00    +0.158 C 
ATOM     29  CA  UNL     1      34.861 -22.479 -17.691  0.00  0.00    +0.179 C 
ATOM     30  C   UNL     1      37.081 -21.600 -16.496  0.00  0.00    +0.120 C 
ATOM     31  C   UNL     1      36.118 -22.287 -15.790  0.00  0.00    +0.120 C 
BRANCH  29  33
ATOM     32  OXT UNL     1      32.512 -22.494 -18.143  0.00  0.00    -0.243 OA
ATOM     33  C   UNL     1      33.641 -22.970 -18.309  0.00  0.00    +0.358 C 
BRANCH  33  34
ATOM     34  O   UNL     1      33.861 -24.039 -19.121  0.00  0.00    -0.476 OA
ATOM     35  H   UNL     1      34.433 -24.728 -18.844  0.00  0.00    +0.295 HD
ENDBRANCH  33  34
ENDBRANCH  29  33
ENDBRANCH  24  28
ENDBRANCH   2  23
TORSDOF 12
ENDMDL
MODEL 5
REMARK VINA RESULT:      -8.8      1.584      2.230
REMARK  Name = 447450
REMARK  12 active torsions:
REMARK  status: ('A' for Active; 'I' for Inactive)
REMARK    1  A    between atoms: C_1  and  C_9
REMARK    2  A    between atoms: C_2  and  N_23
REMARK    3  A    between atoms: N_8  and  C_11
REMARK    4  A    between atoms: C_11  and  C_12
REMARK    5  A    between atoms: C_12  and  S_13
REMARK    6  A    between atoms: S_13  and  S_14
REMARK    7  A    between atoms: S_14  and  C_15
REMARK    8  A    between atoms: C_15  and  C_16
REMARK    9  A    between atoms: C_16  and  N_18
REMARK   10  A    between atoms: C_24  and  C_28
REMARK   11  A    between atoms: CA_29  and  C_33
REMARK   12  A    between atoms: C_33  and  O_34
REMARK                            x       y       z     vdW  Elec       q    Type
REMARK                         _______ _______ _______ _____ _____    ______ ____
ROOT
ATOM      1  C   UNL     1      35.542 -20.265 -21.116  0.00  0.00    +0.077 C 
ATOM      2  C   UNL     1      35.490 -17.972 -23.003  0.00  0.00    +0.072 C 
ATOM      3  C   UNL     1      36.315 -18.982 -20.810  0.00  0.00    +0.011 C 
ATOM      4  C   UNL     1      34.316 -19.990 -21.989  0.00  0.00    +0.011 C 
ATOM      5  C   UNL     1      36.691 -18.232 -22.088  0.00  0.00    +0.020 C 
ATOM      6  C   UNL     1      34.697 -19.253 -23.273  0.00  0.00    +0.020 C 
ENDROOT
BRANCH   1   9
ATOM      7  O   UNL     1      33.932 -21.066 -19.549  0.00  0.00    -0.275 OA
ATOM      8  N   UNL     1      36.194 -21.246 -19.032  0.00  0.00    -0.303 N 
ATOM      9  C   UNL     1      35.116 -20.904 -19.830  0.00  0.00    +0.222 C 
ATOM     10  H   UNL     1      37.102 -21.065 -19.368  0.00  0.00    +0.149 HD
BRANCH   8  11
ATOM     11  C   UNL     1      36.052 -21.856 -17.730  0.00  0.00    +0.102 C 
BRANCH  11  12
ATOM     12  C   UNL     1      37.237 -21.587 -16.814  0.00  0.00    +0.090 C 
BRANCH  12  13
ATOM     13  S   UNL     1      37.172 -22.584 -15.294  0.00  0.00    -0.080 S 
BRANCH  13  14
ATOM     14  S   UNL     1      35.536 -23.774 -15.656  0.00  0.00    -0.080 S 
BRANCH  14  15
ATOM     15  C   UNL     1      35.763 -25.094 -14.441  0.00  0.00    +0.090 C 
BRANCH  15  16
ATOM     16  C   UNL     1      36.597 -26.245 -14.990  0.00  0.00    +0.102 C 
BRANCH  16  18
ATOM     17  O   UNL     1      38.811 -26.110 -13.118  0.00  0.00    -0.275 OA
ATOM     18  N   UNL     1      37.956 -25.871 -15.271  0.00  0.00    -0.303 N 
ATOM     19  C   UNL     1      38.954 -25.834 -14.307  0.00  0.00    +0.223 C 
ATOM     20  C   UNL     1      40.289 -25.435 -14.874  0.00  0.00    +0.095 C 
ATOM     21  H   UNL     1      38.191 -25.627 -16.195  0.00  0.00    +0.149 HD
ENDBRANCH  16  18
ENDBRANCH  15  16
ENDBRANCH  14  15
ENDBRANCH  13  14
ENDBRANCH  12  13
ENDBRANCH  11  12
ENDBRANCH   8  11
ENDBRANCH   1   9
BRANCH   2  23
ATOM     22  O   UNL     1      35.248 -15.274 -23.955  0.00  0.00    -0.268 OA
ATOM     23  N   UNL     1      34.634 -16.940 -22.463  0.00  0.00    -0.301 N 
ATOM     24  C   UNL     1      34.587 -15.660 -22.995  0.00  0.00    +0.265 C 
ATOM     25  H   UNL     1      34.064 -17.153 -21.690  0.00  0.00    +0.150 HD
BRANCH  24  28
ATOM     26  N   UNL     1      33.475 -14.935 -20.997  0.00  0.00    -0.236 NA
ATOM     27  N   UNL     1      32.247 -12.800 -22.338  0.00  0.00    -0.234 NA
ATOM     28  C   UNL     1      33.676 -14.708 -22.311  0.00  0.00    +0.158 C 
ATOM     29  CA  UNL     1      33.072 -13.659 -22.969  0.00  0.00    +0.179 C 
ATOM     30  C   UNL     1      32.649 -14.077 -20.367  0.00  0.00    +0.120 C 
ATOM     31  C   UNL     1      32.047 -13.028 -21.025  0.00  0.00    +0.120 C 
BRANCH  29  33
ATOM     32  OXT UNL     1      33.935 -12.463 -24.852  0.00  0.00    -0.243 OA
ATOM     33  C   UNL     1      33.282 -13.402 -24.384  0.00  0.00    +0.358 C 
BRANCH  33  34
ATOM     34  O   UNL     1      32.673 -14.324 -25.178  0.00  0.00    -0.476 OA
ATOM     35  H   UNL     1      33.118 -15.119 -25.399  0.00  0.00    +0.295 HD
ENDBRANCH  33  34
ENDBRANCH  29  33
ENDBRANCH  24  28
ENDBRANCH   2  23
TORSDOF 12
ENDMDL
MODEL 6
REMARK VINA RESULT:      -8.8      2.378      3.119
REMARK  Name = 447450
REMARK  12 active torsions:
REMARK  status: ('A' for Active; 'I' for Inactive)
REMARK    1  A    between atoms: C_1  and  C_9
REMARK    2  A    between atoms: C_2  and  N_23
REMARK    3  A    between atoms: N_8  and  C_11
REMARK    4  A    between atoms: C_11  and  C_12
REMARK    5  A    between atoms: C_12  and  S_13
REMARK    6  A    between atoms: S_13  and  S_14
REMARK    7  A    between atoms: S_14  and  C_15
REMARK    8  A    between atoms: C_15  and  C_16
REMARK    9  A    between atoms: C_16  and  N_18
REMARK   10  A    between atoms: C_24  and  C_28
REMARK   11  A    between atoms: CA_29  and  C_33
REMARK   12  A    between atoms: C_33  and  O_34
REMARK                            x       y       z     vdW  Elec       q    Type
REMARK                         _______ _______ _______ _____ _____    ______ ____
ROOT
ATOM      1  C   UNL     1      35.395 -20.037 -21.442  0.00  0.00    +0.077 C 
ATOM      2  C   UNL     1      35.534 -17.786 -23.375  0.00  0.00    +0.072 C 
ATOM      3  C   UNL     1      36.279 -18.821 -21.165  0.00  0.00    +0.011 C 
ATOM      4  C   UNL     1      34.194 -19.674 -22.316  0.00  0.00    +0.011 C 
ATOM      5  C   UNL     1      36.713 -18.133 -22.459  0.00  0.00    +0.020 C 
ATOM      6  C   UNL     1      34.631 -18.999 -23.616  0.00  0.00    +0.020 C 
ENDROOT
BRANCH   1   9
ATOM      7  O   UNL     1      33.741 -20.571 -19.808  0.00  0.00    -0.275 OA
ATOM      8  N   UNL     1      35.959 -21.143 -19.395  0.00  0.00    -0.303 N 
ATOM      9  C   UNL     1      34.922 -20.610 -20.141  0.00  0.00    +0.222 C 
ATOM     10  H   UNL     1      36.869 -21.116 -19.770  0.00  0.00    +0.149 HD
BRANCH   8  11
ATOM     11  C   UNL     1      35.770 -21.736 -18.091  0.00  0.00    +0.102 C 
BRANCH  11  12
ATOM     12  C   UNL     1      37.019 -21.674 -17.222  0.00  0.00    +0.090 C 
BRANCH  12  13
ATOM     13  S   UNL     1      36.952 -22.850 -15.837  0.00  0.00    -0.080 S 
BRANCH  13  14
ATOM     14  S   UNL     1      34.928 -22.969 -15.499  0.00  0.00    -0.080 S 
BRANCH  14  15
ATOM     15  C   UNL     1      34.807 -24.480 -14.511  0.00  0.00    +0.090 C 
BRANCH  15  16
ATOM     16  C   UNL     1      33.716 -24.389 -13.453  0.00  0.00    +0.102 C 
BRANCH  16  18
ATOM     17  O   UNL     1      31.273 -23.215 -14.492  0.00  0.00    -0.275 OA
ATOM     18  N   UNL     1      32.509 -25.074 -13.828  0.00  0.00    -0.303 N 
ATOM     19  C   UNL     1      31.383 -24.426 -14.318  0.00  0.00    +0.223 C 
ATOM     20  C   UNL     1      30.271 -25.381 -14.656  0.00  0.00    +0.095 C 
ATOM     21  H   UNL     1      32.479 -26.053 -13.732  0.00  0.00    +0.149 HD
ENDBRANCH  16  18
ENDBRANCH  15  16
ENDBRANCH  14  15
ENDBRANCH  13  14
ENDBRANCH  12  13
ENDBRANCH  11  12
ENDBRANCH   8  11
ENDBRANCH   1   9
BRANCH   2  23
ATOM     22  O   UNL     1      34.090 -15.831 -24.902  0.00  0.00    -0.268 OA
ATOM     23  N   UNL     1      34.775 -16.673 -22.853  0.00  0.00    -0.301 N 
ATOM     24  C   UNL     1      34.109 -15.778 -23.676  0.00  0.00    +0.265 C 
ATOM     25  H   UNL     1      34.729 -16.545 -21.878  0.00  0.00    +0.150 HD
BRANCH  24  28
ATOM     26  N   UNL     1      32.997 -13.655 -23.775  0.00  0.00    -0.236 NA
ATOM     27  N   UNL     1      32.503 -13.672 -21.015  0.00  0.00    -0.234 NA
ATOM     28  C   UNL     1      33.395 -14.672 -22.986  0.00  0.00    +0.158 C 
ATOM     29  CA  UNL     1      33.153 -14.680 -21.630  0.00  0.00    +0.179 C 
ATOM     30  C   UNL     1      32.348 -12.646 -23.160  0.00  0.00    +0.120 C 
ATOM     31  C   UNL     1      32.105 -12.655 -21.804  0.00  0.00    +0.120 C 
BRANCH  29  33
ATOM     32  OXT UNL     1      32.970 -16.839 -20.615  0.00  0.00    -0.243 OA
ATOM     33  C   UNL     1      33.575 -15.772 -20.769  0.00  0.00    +0.358 C 
BRANCH  33  34
ATOM     34  O   UNL     1      34.743 -15.506 -20.123  0.00  0.00    -0.476 OA
ATOM     35  H   UNL     1      34.923 -14.638 -19.819  0.00  0.00    +0.295 HD
ENDBRANCH  33  34
ENDBRANCH  29  33
ENDBRANCH  24  28
ENDBRANCH   2  23
TORSDOF 12
ENDMDL
MODEL 7
REMARK VINA RESULT:      -8.7      3.237     11.153
REMARK  Name = 447450
REMARK  12 active torsions:
REMARK  status: ('A' for Active; 'I' for Inactive)
REMARK    1  A    between atoms: C_1  and  C_9
REMARK    2  A    between atoms: C_2  and  N_23
REMARK    3  A    between atoms: N_8  and  C_11
REMARK    4  A    between atoms: C_11  and  C_12
REMARK    5  A    between atoms: C_12  and  S_13
REMARK    6  A    between atoms: S_13  and  S_14
REMARK    7  A    between atoms: S_14  and  C_15
REMARK    8  A    between atoms: C_15  and  C_16
REMARK    9  A    between atoms: C_16  and  N_18
REMARK   10  A    between atoms: C_24  and  C_28
REMARK   11  A    between atoms: CA_29  and  C_33
REMARK   12  A    between atoms: C_33  and  O_34
REMARK                            x       y       z     vdW  Elec       q    Type
REMARK                         _______ _______ _______ _____ _____    ______ ____
ROOT
ATOM      1  C   UNL     1      31.015 -23.196 -15.428  0.00  0.00    +0.077 C 
ATOM      2  C   UNL     1      32.209 -24.704 -13.166  0.00  0.00    +0.072 C 
ATOM      3  C   UNL     1      32.009 -22.526 -14.480  0.00  0.00    +0.011 C 
ATOM      4  C   UNL     1      31.255 -24.702 -15.526  0.00  0.00    +0.011 C 
ATOM      5  C   UNL     1      32.005 -23.186 -13.101  0.00  0.00    +0.020 C 
ATOM      6  C   UNL     1      31.237 -25.363 -14.148  0.00  0.00    +0.020 C 
ENDROOT
BRANCH   1   9
ATOM      7  O   UNL     1      30.173 -22.044 -17.340  0.00  0.00    -0.275 OA
ATOM      8  N   UNL     1      32.407 -22.697 -17.311  0.00  0.00    -0.303 N 
ATOM      9  C   UNL     1      31.132 -22.574 -16.786  0.00  0.00    +0.222 C 
ATOM     10  H   UNL     1      33.096 -23.144 -16.769  0.00  0.00    +0.149 HD
BRANCH   8  11
ATOM     11  C   UNL     1      32.775 -22.201 -18.617  0.00  0.00    +0.102 C 
BRANCH  11  12
ATOM     12  C   UNL     1      34.144 -22.686 -19.074  0.00  0.00    +0.090 C 
BRANCH  12  13
ATOM     13  S   UNL     1      35.144 -21.347 -19.792  0.00  0.00    -0.080 S 
BRANCH  13  14
ATOM     14  S   UNL     1      33.692 -20.155 -20.626  0.00  0.00    -0.080 S 
BRANCH  14  15
ATOM     15  C   UNL     1      34.552 -19.477 -22.065  0.00  0.00    +0.090 C 
BRANCH  15  16
ATOM     16  C   UNL     1      35.656 -18.505 -21.671  0.00  0.00    +0.102 C 
BRANCH  16  18
ATOM     17  O   UNL     1      35.132 -15.870 -22.770  0.00  0.00    -0.275 OA
ATOM     18  N   UNL     1      35.166 -17.349 -20.972  0.00  0.00    -0.303 N 
ATOM     19  C   UNL     1      34.944 -16.122 -21.583  0.00  0.00    +0.223 C 
ATOM     20  C   UNL     1      34.406 -15.092 -20.628  0.00  0.00    +0.095 C 
ATOM     21  H   UNL     1      34.978 -17.431 -20.009  0.00  0.00    +0.149 HD
ENDBRANCH  16  18
ENDBRANCH  15  16
ENDBRANCH  14  15
ENDBRANCH  13  14
ENDBRANCH  12  13
ENDBRANCH  11  12
ENDBRANCH   8  11
ENDBRANCH   1   9
BRANCH   2  23
ATOM     22  O   UNL     1      34.569 -23.751 -11.837  0.00  0.00    -0.268 OA
ATOM     23  N   UNL     1      33.577 -25.035 -13.494  0.00  0.00    -0.301 N 
ATOM     24  C   UNL     1      34.655 -24.521 -12.789  0.00  0.00    +0.265 C 
ATOM     25  H   UNL     1      33.750 -25.648 -14.244  0.00  0.00    +0.150 HD
BRANCH  24  28
ATOM     26  N   UNL     1      36.677 -25.764 -12.445  0.00  0.00    -0.236 NA
ATOM     27  N   UNL     1      37.743 -24.898 -14.890  0.00  0.00    -0.234 NA
ATOM     28  C   UNL     1      35.999 -24.938 -13.266  0.00  0.00    +0.158 C 
ATOM     29  CA  UNL     1      36.523 -24.512 -14.467  0.00  0.00    +0.179 C 
ATOM     30  C   UNL     1      37.898 -26.149 -12.868  0.00  0.00    +0.120 C 
ATOM     31  C   UNL     1      38.421 -25.724 -14.069  0.00  0.00    +0.120 C 
BRANCH  29  33
ATOM     32  OXT UNL     1      35.969 -22.402 -15.449  0.00  0.00    -0.243 OA
ATOM     33  C   UNL     1      35.800 -23.624 -15.362  0.00  0.00    +0.358 C 
BRANCH  33  34
ATOM     34  O   UNL     1      34.887 -24.282 -16.125  0.00  0.00    -0.476 OA
ATOM     35  H   UNL     1      35.148 -24.673 -16.936  0.00  0.00    +0.295 HD
ENDBRANCH  33  34
ENDBRANCH  29  33
ENDBRANCH  24  28
ENDBRANCH   2  23
TORSDOF 12
ENDMDL
MODEL 8
REMARK VINA RESULT:      -8.7      2.745      3.728
REMARK  Name = 447450
REMARK  12 active torsions:
REMARK  status: ('A' for Active; 'I' for Inactive)
REMARK    1  A    between atoms: C_1  and  C_9
REMARK    2  A    between atoms: C_2  and  N_23
REMARK    3  A    between atoms: N_8  and  C_11
REMARK    4  A    between atoms: C_11  and  C_12
REMARK    5  A    between atoms: C_12  and  S_13
REMARK    6  A    between atoms: S_13  and  S_14
REMARK    7  A    between atoms: S_14  and  C_15
REMARK    8  A    between atoms: C_15  and  C_16
REMARK    9  A    between atoms: C_16  and  N_18
REMARK   10  A    between atoms: C_24  and  C_28
REMARK   11  A    between atoms: CA_29  and  C_33
REMARK   12  A    between atoms: C_33  and  O_34
REMARK                            x       y       z     vdW  Elec       q    Type
REMARK                         _______ _______ _______ _____ _____    ______ ____
ROOT
ATOM      1  C   UNL     1      35.466 -20.307 -21.080  0.00  0.00    +0.077 C 
ATOM      2  C   UNL     1      35.421 -18.005 -22.956  0.00  0.00    +0.072 C 
ATOM      3  C   UNL     1      36.250 -19.031 -20.773  0.00  0.00    +0.011 C 
ATOM      4  C   UNL     1      34.238 -20.019 -21.945  0.00  0.00    +0.011 C 
ATOM      5  C   UNL     1      36.626 -18.278 -22.049  0.00  0.00    +0.020 C 
ATOM      6  C   UNL     1      34.618 -19.279 -23.227  0.00  0.00    +0.020 C 
ENDROOT
BRANCH   1   9
ATOM      7  O   UNL     1      33.862 -21.012 -19.461  0.00  0.00    -0.275 OA
ATOM      8  N   UNL     1      36.120 -21.417 -19.062  0.00  0.00    -0.303 N 
ATOM      9  C   UNL     1      35.042 -20.949 -19.795  0.00  0.00    +0.222 C 
ATOM     10  H   UNL     1      37.024 -21.308 -19.437  0.00  0.00    +0.149 HD
BRANCH   8  11
ATOM     11  C   UNL     1      35.982 -22.056 -17.774  0.00  0.00    +0.102 C 
BRANCH  11  12
ATOM     12  C   UNL     1      37.106 -21.703 -16.810  0.00  0.00    +0.090 C 
BRANCH  12  13
ATOM     13  S   UNL     1      37.224 -22.882 -15.430  0.00  0.00    -0.080 S 
BRANCH  13  14
ATOM     14  S   UNL     1      35.400 -23.822 -15.538  0.00  0.00    -0.080 S 
BRANCH  14  15
ATOM     15  C   UNL     1      34.837 -23.735 -13.822  0.00  0.00    +0.090 C 
BRANCH  15  16
ATOM     16  C   UNL     1      33.488 -24.414 -13.622  0.00  0.00    +0.102 C 
BRANCH  16  18
ATOM     17  O   UNL     1      30.834 -23.696 -12.693  0.00  0.00    -0.275 OA
ATOM     18  N   UNL     1      32.433 -23.801 -14.382  0.00  0.00    -0.303 N 
ATOM     19  C   UNL     1      31.188 -23.493 -13.851  0.00  0.00    +0.223 C 
ATOM     20  C   UNL     1      30.279 -22.837 -14.855  0.00  0.00    +0.095 C 
ATOM     21  H   UNL     1      32.601 -23.591 -15.329  0.00  0.00    +0.149 HD
ENDBRANCH  16  18
ENDBRANCH  15  16
ENDBRANCH  14  15
ENDBRANCH  13  14
ENDBRANCH  12  13
ENDBRANCH  11  12
ENDBRANCH   8  11
ENDBRANCH   1   9
BRANCH   2  23
ATOM     22  O   UNL     1      35.322 -15.257 -23.781  0.00  0.00    -0.268 OA
ATOM     23  N   UNL     1      34.576 -16.969 -22.407  0.00  0.00    -0.301 N 
ATOM     24  C   UNL     1      34.601 -15.664 -22.874  0.00  0.00    +0.265 C 
ATOM     25  H   UNL     1      33.960 -17.198 -21.674  0.00  0.00    +0.150 HD
BRANCH  24  28
ATOM     26  N   UNL     1      33.506 -14.930 -20.870  0.00  0.00    -0.236 NA
ATOM     27  N   UNL     1      32.246 -12.816 -22.215  0.00  0.00    -0.234 NA
ATOM     28  C   UNL     1      33.690 -14.713 -22.188  0.00  0.00    +0.158 C 
ATOM     29  CA  UNL     1      33.070 -13.674 -22.848  0.00  0.00    +0.179 C 
ATOM     30  C   UNL     1      32.681 -14.073 -20.237  0.00  0.00    +0.120 C 
ATOM     31  C   UNL     1      32.063 -13.034 -20.897  0.00  0.00    +0.120 C 
BRANCH  29  33
ATOM     32  OXT UNL     1      32.655 -13.997 -25.182  0.00  0.00    -0.243 OA
ATOM     33  C   UNL     1      33.262 -13.428 -24.268  0.00  0.00    +0.358 C 
BRANCH  33  34
ATOM     34  O   UNL     1      34.205 -12.477 -24.509  0.00  0.00    -0.476 OA
ATOM     35  H   UNL     1      34.619 -12.430 -25.348  0.00  0.00    +0.295 HD
ENDBRANCH  33  34
ENDBRANCH  29  33
ENDBRANCH  24  28
ENDBRANCH   2  23
TORSDOF 12
ENDMDL
MODEL 9
REMARK VINA RESULT:      -8.6      4.246      9.981
REMARK  Name = 447450
REMARK  12 active torsions:
REMARK  status: ('A' for Active; 'I' for Inactive)
REMARK    1  A    between atoms: C_1  and  C_9
REMARK    2  A    between atoms: C_2  and  N_23
REMARK    3  A    between atoms: N_8  and  C_11
REMARK    4  A    between atoms: C_11  and  C_12
REMARK    5  A    between atoms: C_12  and  S_13
REMARK    6  A    between atoms: S_13  and  S_14
REMARK    7  A    between atoms: S_14  and  C_15
REMARK    8  A    between atoms: C_15  and  C_16
REMARK    9  A    between atoms: C_16  and  N_18
REMARK   10  A    between atoms: C_24  and  C_28
REMARK   11  A    between atoms: CA_29  and  C_33
REMARK   12  A    between atoms: C_33  and  O_34
REMARK                            x       y       z     vdW  Elec       q    Type
REMARK                         _______ _______ _______ _____ _____    ______ ____
ROOT
ATOM      1  C   UNL     1      33.762 -17.079 -21.594  0.00  0.00    +0.077 C 
ATOM      2  C   UNL     1      35.617 -19.395 -21.489  0.00  0.00    +0.072 C 
ATOM      3  C   UNL     1      33.234 -18.510 -21.701  0.00  0.00    +0.011 C 
ATOM      4  C   UNL     1      35.057 -17.014 -20.785  0.00  0.00    +0.011 C 
ATOM      5  C   UNL     1      34.293 -19.461 -22.257  0.00  0.00    +0.020 C 
ATOM      6  C   UNL     1      36.119 -17.955 -21.352  0.00  0.00    +0.020 C 
ENDROOT
BRANCH   1   9
ATOM      7  O   UNL     1      31.642 -16.669 -20.579  0.00  0.00    -0.275 OA
ATOM      8  N   UNL     1      33.115 -14.891 -20.870  0.00  0.00    -0.303 N 
ATOM      9  C   UNL     1      32.719 -16.215 -20.953  0.00  0.00    +0.222 C 
ATOM     10  H   UNL     1      34.008 -14.646 -21.206  0.00  0.00    +0.149 HD
BRANCH   8  11
ATOM     11  C   UNL     1      32.281 -13.850 -20.314  0.00  0.00    +0.102 C 
BRANCH  11  12
ATOM     12  C   UNL     1      32.693 -12.454 -20.760  0.00  0.00    +0.090 C 
BRANCH  12  13
ATOM     13  S   UNL     1      31.574 -11.779 -22.026  0.00  0.00    -0.080 S 
BRANCH  13  14
ATOM     14  S   UNL     1      32.907 -11.178 -23.471  0.00  0.00    -0.080 S 
BRANCH  14  15
ATOM     15  C   UNL     1      33.852 -12.694 -23.754  0.00  0.00    +0.090 C 
BRANCH  15  16
ATOM     16  C   UNL     1      33.003 -13.794 -24.377  0.00  0.00    +0.102 C 
BRANCH  16  18
ATOM     17  O   UNL     1      33.418 -15.573 -26.633  0.00  0.00    -0.275 OA
ATOM     18  N   UNL     1      33.651 -15.077 -24.370  0.00  0.00    -0.303 N 
ATOM     19  C   UNL     1      33.804 -15.863 -25.504  0.00  0.00    +0.223 C 
ATOM     20  C   UNL     1      34.539 -17.146 -25.222  0.00  0.00    +0.095 C 
ATOM     21  H   UNL     1      34.003 -15.417 -23.516  0.00  0.00    +0.149 HD
ENDBRANCH  16  18
ENDBRANCH  15  16
ENDBRANCH  14  15
ENDBRANCH  13  14
ENDBRANCH  12  13
ENDBRANCH  11  12
ENDBRANCH   8  11
ENDBRANCH   1   9
BRANCH   2  23
ATOM     22  O   UNL     1      37.141 -21.634 -20.538  0.00  0.00    -0.268 OA
ATOM     23  N   UNL     1      35.505 -20.028 -20.195  0.00  0.00    -0.301 N 
ATOM     24  C   UNL     1      36.289 -21.110 -19.827  0.00  0.00    +0.265 C 
ATOM     25  H   UNL     1      34.847 -19.678 -19.552  0.00  0.00    +0.150 HD
BRANCH  24  28
ATOM     26  N   UNL     1      36.962 -21.368 -17.539  0.00  0.00    -0.236 NA
ATOM     27  N   UNL     1      34.705 -22.924 -16.947  0.00  0.00    -0.234 NA
ATOM     28  C   UNL     1      36.034 -21.663 -18.471  0.00  0.00    +0.158 C 
ATOM     29  CA  UNL     1      34.926 -22.428 -18.181  0.00  0.00    +0.179 C 
ATOM     30  C   UNL     1      36.741 -21.865 -16.306  0.00  0.00    +0.120 C 
ATOM     31  C   UNL     1      35.632 -22.629 -16.015  0.00  0.00    +0.120 C 
BRANCH  29  33
ATOM     32  OXT UNL     1      33.035 -21.984 -19.577  0.00  0.00    -0.243 OA
ATOM     33  C   UNL     1      33.918 -22.751 -19.177  0.00  0.00    +0.358 C 
BRANCH  33  34
ATOM     34  O   UNL     1      34.039 -24.021 -19.649  0.00  0.00    -0.476 OA
ATOM     35  H   UNL     1      34.886 -24.365 -19.858  0.00  0.00    +0.295 HD
ENDBRANCH  33  34
ENDBRANCH  29  33
ENDBRANCH  24  28
ENDBRANCH   2  23
TORSDOF 12
ENDMDL
