MODEL 1
REMARK VINA RESULT:      -7.4      0.000      0.000
REMARK  Name = 78607
REMARK  1 active torsions:
REMARK  status: ('A' for Active; 'I' for Inactive)
REMARK    1  A    between atoms: C_2  and  N_9
REMARK                            x       y       z     vdW  Elec       q    Type
REMARK                         _______ _______ _______ _____ _____    ______ ____
ROOT
ATOM      1  N   UNL     1      35.562 -16.685 -23.605  0.00  0.00    +0.384 N 
ATOM      2  C   UNL     1      34.350 -18.488 -21.639  0.00  0.00    -0.062 C 
ATOM      3  C   UNL     1      34.974 -17.147 -21.240  0.00  0.00    -0.044 C 
ATOM      4  C   UNL     1      34.987 -19.002 -22.935  0.00  0.00    -0.044 C 
ATOM      5  C   UNL     1      34.918 -16.153 -22.401  0.00  0.00    -0.084 C 
ATOM      6  C   UNL     1      34.930 -17.937 -24.029  0.00  0.00    -0.084 C 
ATOM      7  H   UNL     1      36.547 -16.858 -23.407  0.00  0.00    -0.085 HD
ATOM      8  H   UNL     1      35.463 -16.001 -24.355  0.00  0.00    -0.085 HD
ENDROOT
BRANCH   2   9
ATOM      9  N   UNL     1      34.505 -19.460 -20.557  0.00  0.00    +0.388 N 
ATOM     10  C   UNL     1      33.361 -20.383 -20.528  0.00  0.00    -0.077 C 
ATOM     11  C   UNL     1      35.772 -20.189 -20.698  0.00  0.00    -0.077 C 
ATOM     12  C   UNL     1      33.483 -21.376 -19.371  0.00  0.00    -0.023 C 
ATOM     13  C   UNL     1      35.974 -21.176 -19.547  0.00  0.00    -0.023 C 
ATOM     14  C   UNL     1      34.800 -22.143 -19.435  0.00  0.00    -0.004 C 
ATOM     15  H   UNL     1      34.527 -18.960 -19.668  0.00  0.00    -0.080 HD
ENDBRANCH   2   9
TORSDOF 1
ENDMDL
MODEL 2
REMARK VINA RESULT:      -7.2      0.576      1.534
REMARK  Name = 78607
REMARK  1 active torsions:
REMARK  status: ('A' for Active; 'I' for Inactive)
REMARK    1  A    between atoms: C_2  and  N_9
REMARK                            x       y       z     vdW  Elec       q    Type
REMARK                         _______ _______ _______ _____ _____    ______ ____
ROOT
ATOM      1  N   UNL     1      34.433 -16.701 -23.846  0.00  0.00    +0.384 N 
ATOM      2  C   UNL     1      35.276 -18.475 -21.672  0.00  0.00    -0.062 C 
ATOM      3  C   UNL     1      34.760 -19.013 -23.011  0.00  0.00    -0.044 C 
ATOM      4  C   UNL     1      34.705 -17.076 -21.410  0.00  0.00    -0.044 C 
ATOM      5  C   UNL     1      35.020 -18.012 -24.137  0.00  0.00    -0.084 C 
ATOM      6  C   UNL     1      34.968 -16.151 -22.598  0.00  0.00    -0.084 C 
ATOM      7  H   UNL     1      33.421 -16.800 -23.762  0.00  0.00    -0.085 HD
ATOM      8  H   UNL     1      34.667 -16.064 -24.609  0.00  0.00    -0.085 HD
ENDROOT
BRANCH   2   9
ATOM      9  N   UNL     1      34.928 -19.395 -20.589  0.00  0.00    +0.388 N 
ATOM     10  C   UNL     1      33.609 -19.997 -20.831  0.00  0.00    -0.077 C 
ATOM     11  C   UNL     1      35.963 -20.426 -20.437  0.00  0.00    -0.077 C 
ATOM     12  C   UNL     1      33.207 -20.925 -19.683  0.00  0.00    -0.023 C 
ATOM     13  C   UNL     1      35.639 -21.368 -19.276  0.00  0.00    -0.023 C 
ATOM     14  C   UNL     1      34.262 -22.000 -19.444  0.00  0.00    -0.004 C 
ATOM     15  H   UNL     1      34.878 -18.869 -19.717  0.00  0.00    -0.080 HD
ENDBRANCH   2   9
TORSDOF 1
ENDMDL
MODEL 3
REMARK VINA RESULT:      -6.8      2.562      4.404
REMARK  Name = 78607
REMARK  1 active torsions:
REMARK  status: ('A' for Active; 'I' for Inactive)
REMARK    1  A    between atoms: C_2  and  N_9
REMARK                            x       y       z     vdW  Elec       q    Type
REMARK                         _______ _______ _______ _____ _____    ______ ____
ROOT
ATOM      1  N   UNL     1      32.016 -13.195 -22.693  0.00  0.00    +0.384 N 
ATOM      2  C   UNL     1      34.377 -14.879 -22.272  0.00  0.00    -0.062 C 
ATOM      3  C   UNL     1      33.965 -14.383 -23.662  0.00  0.00    -0.044 C 
ATOM      4  C   UNL     1      33.153 -14.944 -21.351  0.00  0.00    -0.044 C 
ATOM      5  C   UNL     1      33.187 -13.071 -23.564  0.00  0.00    -0.084 C 
ATOM      6  C   UNL     1      32.407 -13.609 -21.343  0.00  0.00    -0.084 C 
ATOM      7  H   UNL     1      31.381 -13.891 -23.085  0.00  0.00    -0.085 HD
ATOM      8  H   UNL     1      31.557 -12.286 -22.634  0.00  0.00    -0.085 HD
ENDROOT
BRANCH   2   9
ATOM      9  N   UNL     1      35.027 -16.185 -22.372  0.00  0.00    +0.388 N 
ATOM     10  C   UNL     1      34.771 -16.981 -21.163  0.00  0.00    -0.077 C 
ATOM     11  C   UNL     1      34.577 -16.893 -23.579  0.00  0.00    -0.077 C 
ATOM     12  C   UNL     1      35.484 -18.332 -21.230  0.00  0.00    -0.023 C 
ATOM     13  C   UNL     1      35.284 -18.241 -23.725  0.00  0.00    -0.023 C 
ATOM     14  C   UNL     1      35.091 -19.105 -22.484  0.00  0.00    -0.004 C 
ATOM     15  H   UNL     1      36.034 -16.045 -22.448  0.00  0.00    -0.080 HD
ENDBRANCH   2   9
TORSDOF 1
ENDMDL
MODEL 4
REMARK VINA RESULT:      -6.7      1.145      4.833
REMARK  Name = 78607
REMARK  1 active torsions:
REMARK  status: ('A' for Active; 'I' for Inactive)
REMARK    1  A    between atoms: C_2  and  N_9
REMARK                            x       y       z     vdW  Elec       q    Type
REMARK                         _______ _______ _______ _____ _____    ______ ____
ROOT
ATOM      1  N   UNL     1      34.081 -22.118 -19.500  0.00  0.00    +0.384 N 
ATOM      2  C   UNL     1      34.866 -19.544 -20.659  0.00  0.00    -0.062 C 
ATOM      3  C   UNL     1      33.446 -20.102 -20.796  0.00  0.00    -0.044 C 
ATOM      4  C   UNL     1      35.866 -20.689 -20.461  0.00  0.00    -0.044 C 
ATOM      5  C   UNL     1      33.109 -21.029 -19.629  0.00  0.00    -0.084 C 
ATOM      6  C   UNL     1      35.435 -21.593 -19.306  0.00  0.00    -0.084 C 
ATOM      7  H   UNL     1      34.061 -22.685 -20.348  0.00  0.00    -0.085 HD
ATOM      8  H   UNL     1      33.832 -22.682 -18.688  0.00  0.00    -0.085 HD
ENDROOT
BRANCH   2   9
ATOM      9  N   UNL     1      35.212 -18.743 -21.834  0.00  0.00    +0.388 N 
ATOM     10  C   UNL     1      34.592 -19.308 -23.041  0.00  0.00    -0.077 C 
ATOM     11  C   UNL     1      34.813 -17.343 -21.637  0.00  0.00    -0.077 C 
ATOM     12  C   UNL     1      34.983 -18.512 -24.286  0.00  0.00    -0.023 C 
ATOM     13  C   UNL     1      35.211 -16.482 -22.837  0.00  0.00    -0.023 C 
ATOM     14  C   UNL     1      34.632 -17.036 -24.133  0.00  0.00    -0.004 C 
ATOM     15  H   UNL     1      36.223 -18.767 -21.959  0.00  0.00    -0.080 HD
ENDBRANCH   2   9
TORSDOF 1
ENDMDL
MODEL 5
REMARK VINA RESULT:      -6.6      2.262      4.110
REMARK  Name = 78607
REMARK  1 active torsions:
REMARK  status: ('A' for Active; 'I' for Inactive)
REMARK    1  A    between atoms: C_2  and  N_9
REMARK                            x       y       z     vdW  Elec       q    Type
REMARK                         _______ _______ _______ _____ _____    ______ ____
ROOT
ATOM      1  N   UNL     1      32.800 -13.829 -24.784  0.00  0.00    +0.384 N 
ATOM      2  C   UNL     1      34.905 -15.746 -24.090  0.00  0.00    -0.062 C 
ATOM      3  C   UNL     1      33.850 -16.044 -25.161  0.00  0.00    -0.044 C 
ATOM      4  C   UNL     1      34.357 -14.732 -23.078  0.00  0.00    -0.044 C 
ATOM      5  C   UNL     1      33.334 -14.751 -25.791  0.00  0.00    -0.084 C 
ATOM      6  C   UNL     1      33.821 -13.490 -23.790  0.00  0.00    -0.084 C 
ATOM      7  H   UNL     1      32.009 -14.270 -24.314  0.00  0.00    -0.085 HD
ATOM      8  H   UNL     1      32.505 -12.972 -25.252  0.00  0.00    -0.085 HD
ENDROOT
BRANCH   2   9
ATOM      9  N   UNL     1      35.313 -16.983 -23.423  0.00  0.00    +0.388 N 
ATOM     10  C   UNL     1      35.011 -16.916 -21.986  0.00  0.00    -0.077 C 
ATOM     11  C   UNL     1      34.664 -18.143 -24.049  0.00  0.00    -0.077 C 
ATOM     12  C   UNL     1      35.476 -18.181 -21.265  0.00  0.00    -0.023 C 
ATOM     13  C   UNL     1      35.118 -19.449 -23.395  0.00  0.00    -0.023 C 
ATOM     14  C   UNL     1      34.868 -19.432 -21.892  0.00  0.00    -0.004 C 
ATOM     15  H   UNL     1      36.321 -17.093 -23.527  0.00  0.00    -0.080 HD
ENDBRANCH   2   9
TORSDOF 1
ENDMDL
MODEL 6
REMARK VINA RESULT:      -6.4      2.280      5.600
REMARK  Name = 78607
REMARK  1 active torsions:
REMARK  status: ('A' for Active; 'I' for Inactive)
REMARK    1  A    between atoms: C_2  and  N_9
REMARK                            x       y       z     vdW  Elec       q    Type
REMARK                         _______ _______ _______ _____ _____    ______ ____
ROOT
ATOM      1  N   UNL     1      34.682 -19.367 -22.713  0.00  0.00    +0.384 N 
ATOM      2  C   UNL     1      34.975 -16.494 -22.220  0.00  0.00    -0.062 C 
ATOM      3  C   UNL     1      34.279 -17.426 -21.223  0.00  0.00    -0.044 C 
ATOM      4  C   UNL     1      34.886 -17.075 -23.636  0.00  0.00    -0.044 C 
ATOM      5  C   UNL     1      34.813 -18.853 -21.347  0.00  0.00    -0.084 C 
ATOM      6  C   UNL     1      35.397 -18.515 -23.666  0.00  0.00    -0.084 C 
ATOM      7  H   UNL     1      33.694 -19.395 -22.965  0.00  0.00    -0.085 HD
ATOM      8  H   UNL     1      35.085 -20.304 -22.748  0.00  0.00    -0.085 HD
ENDROOT
BRANCH   2   9
ATOM      9  N   UNL     1      34.382 -15.158 -22.164  0.00  0.00    +0.388 N 
ATOM     10  C   UNL     1      34.254 -14.595 -23.516  0.00  0.00    -0.077 C 
ATOM     11  C   UNL     1      33.081 -15.201 -21.482  0.00  0.00    -0.077 C 
ATOM     12  C   UNL     1      33.681 -13.178 -23.471  0.00  0.00    -0.023 C 
ATOM     13  C   UNL     1      32.469 -13.804 -21.370  0.00  0.00    -0.023 C 
ATOM     14  C   UNL     1      32.343 -13.144 -22.738  0.00  0.00    -0.004 C 
ATOM     15  H   UNL     1      34.998 -14.549 -21.627  0.00  0.00    -0.080 HD
ENDBRANCH   2   9
TORSDOF 1
ENDMDL
MODEL 7
REMARK VINA RESULT:      -6.3      5.833      8.196
REMARK  Name = 78607
REMARK  1 active torsions:
REMARK  status: ('A' for Active; 'I' for Inactive)
REMARK    1  A    between atoms: C_2  and  N_9
REMARK                            x       y       z     vdW  Elec       q    Type
REMARK                         _______ _______ _______ _____ _____    ______ ____
ROOT
ATOM      1  N   UNL     1      32.192  -9.144 -19.721  0.00  0.00    +0.384 N 
ATOM      2  C   UNL     1      31.400 -11.462 -21.330  0.00  0.00    -0.062 C 
ATOM      3  C   UNL     1      31.674 -11.567 -19.827  0.00  0.00    -0.044 C 
ATOM      4  C   UNL     1      32.175 -10.280 -21.926  0.00  0.00    -0.044 C 
ATOM      5  C   UNL     1      31.409 -10.233 -19.130  0.00  0.00    -0.084 C 
ATOM      6  C   UNL     1      31.890  -8.996 -21.147  0.00  0.00    -0.084 C 
ATOM      7  H   UNL     1      33.185  -9.349 -19.609  0.00  0.00    -0.085 HD
ATOM      8  H   UNL     1      31.950  -8.275 -19.246  0.00  0.00    -0.085 HD
ENDROOT
BRANCH   2   9
ATOM      9  N   UNL     1      31.758 -12.713 -21.999  0.00  0.00    +0.388 N 
ATOM     10  C   UNL     1      32.662 -12.452 -23.128  0.00  0.00    -0.077 C 
ATOM     11  C   UNL     1      32.359 -13.653 -21.044  0.00  0.00    -0.077 C 
ATOM     12  C   UNL     1      33.007 -13.745 -23.869  0.00  0.00    -0.023 C 
ATOM     13  C   UNL     1      32.694 -14.986 -21.716  0.00  0.00    -0.023 C 
ATOM     14  C   UNL     1      33.602 -14.784 -22.924  0.00  0.00    -0.004 C 
ATOM     15  H   UNL     1      30.909 -13.141 -22.369  0.00  0.00    -0.080 HD
ENDBRANCH   2   9
TORSDOF 1
ENDMDL
MODEL 8
REMARK VINA RESULT:      -6.2      3.584      7.189
REMARK  Name = 78607
REMARK  1 active torsions:
REMARK  status: ('A' for Active; 'I' for Inactive)
REMARK    1  A    between atoms: C_2  and  N_9
REMARK                            x       y       z     vdW  Elec       q    Type
REMARK                         _______ _______ _______ _____ _____    ______ ____
ROOT
ATOM      1  N   UNL     1      35.804 -17.583 -23.253  0.00  0.00    +0.384 N 
ATOM      2  C   UNL     1      33.692 -15.735 -24.095  0.00  0.00    -0.062 C 
ATOM      3  C   UNL     1      34.406 -16.663 -25.083  0.00  0.00    -0.044 C 
ATOM      4  C   UNL     1      34.599 -15.446 -22.893  0.00  0.00    -0.044 C 
ATOM      5  C   UNL     1      34.925 -17.916 -24.377  0.00  0.00    -0.084 C 
ATOM      6  C   UNL     1      35.109 -16.747 -22.272  0.00  0.00    -0.084 C 
ATOM      7  H   UNL     1      36.619 -17.080 -23.605  0.00  0.00    -0.085 HD
ATOM      8  H   UNL     1      36.091 -18.450 -22.797  0.00  0.00    -0.085 HD
ENDROOT
BRANCH   2   9
ATOM      9  N   UNL     1      33.294 -14.495 -24.761  0.00  0.00    +0.388 N 
ATOM     10  C   UNL     1      34.009 -13.349 -24.182  0.00  0.00    -0.077 C 
ATOM     11  C   UNL     1      33.529 -14.591 -26.208  0.00  0.00    -0.077 C 
ATOM     12  C   UNL     1      33.568 -12.038 -24.834  0.00  0.00    -0.023 C 
ATOM     13  C   UNL     1      33.072 -13.321 -26.928  0.00  0.00    -0.023 C 
ATOM     14  C   UNL     1      33.748 -12.083 -26.348  0.00  0.00    -0.004 C 
ATOM     15  H   UNL     1      32.296 -14.350 -24.614  0.00  0.00    -0.080 HD
ENDBRANCH   2   9
TORSDOF 1
ENDMDL
MODEL 9
REMARK VINA RESULT:      -6.2      4.885      7.872
REMARK  Name = 78607
REMARK  1 active torsions:
REMARK  status: ('A' for Active; 'I' for Inactive)
REMARK    1  A    between atoms: C_2  and  N_9
REMARK                            x       y       z     vdW  Elec       q    Type
REMARK                         _______ _______ _______ _____ _____    ______ ____
ROOT
ATOM      1  N   UNL     1      34.662 -15.497 -22.261  0.00  0.00    +0.384 N 
ATOM      2  C   UNL     1      32.292 -13.781 -22.112  0.00  0.00    -0.062 C 
ATOM      3  C   UNL     1      33.402 -13.552 -23.143  0.00  0.00    -0.044 C 
ATOM      4  C   UNL     1      32.855 -14.505 -20.883  0.00  0.00    -0.044 C 
ATOM      5  C   UNL     1      34.124 -14.861 -23.466  0.00  0.00    -0.084 C 
ATOM      6  C   UNL     1      33.598 -15.776 -21.294  0.00  0.00    -0.084 C 
ATOM      7  H   UNL     1      35.348 -14.875 -21.833  0.00  0.00    -0.085 HD
ATOM      8  H   UNL     1      35.099 -16.380 -22.528  0.00  0.00    -0.085 HD
ENDROOT
BRANCH   2   9
ATOM      9  N   UNL     1      31.680 -12.507 -21.735  0.00  0.00    +0.388 N 
ATOM     10  C   UNL     1      31.873 -12.249 -20.301  0.00  0.00    -0.077 C 
ATOM     11  C   UNL     1      32.227 -11.413 -22.549  0.00  0.00    -0.077 C 
ATOM     12  C   UNL     1      31.197 -10.944 -19.879  0.00  0.00    -0.023 C 
ATOM     13  C   UNL     1      31.563 -10.080 -22.201  0.00  0.00    -0.023 C 
ATOM     14  C   UNL     1      31.692  -9.768 -20.715  0.00  0.00    -0.004 C 
ATOM     15  H   UNL     1      30.678 -12.560 -21.912  0.00  0.00    -0.080 HD
ENDBRANCH   2   9
TORSDOF 1
ENDMDL
