MODEL 1
REMARK VINA RESULT:      -7.5      0.000      0.000
REMARK  Name = 5287465
REMARK  6 active torsions:
REMARK  status: ('A' for Active; 'I' for Inactive)
REMARK    1  A    between atoms: C_1  and  O_12
REMARK    2  A    between atoms: C_3  and  C_9
REMARK    3  A    between atoms: C_4  and  C_11
REMARK    4  A    between atoms: O_12  and  P_13
REMARK    5  A    between atoms: P_13  and  O_15
REMARK    6  A    between atoms: P_13  and  O_17
REMARK                            x       y       z     vdW  Elec       q    Type
REMARK                         _______ _______ _______ _____ _____    ______ ____
ROOT
ATOM      1  C   UNL     1      37.415 -25.150 -13.759  0.00  0.00    +0.155 C 
ATOM      2  C   UNL     1      34.883 -24.113 -14.301  0.00  0.00    -0.021 C 
ATOM      3  C   UNL     1      36.974 -24.004 -13.097  0.00  0.00    +0.076 C 
ATOM      4  C   UNL     1      36.590 -25.777 -14.692  0.00  0.00    +0.076 C 
ATOM      5  C   UNL     1      35.708 -23.485 -13.368  0.00  0.00    +0.002 C 
ATOM      6  C   UNL     1      35.323 -25.259 -14.963  0.00  0.00    +0.002 C 
ATOM      7  C   UNL     1      33.527 -23.561 -14.588  0.00  0.00    +0.031 C 
ENDROOT
BRANCH   3   9
ATOM      8  O   UNL     1      37.368 -22.749 -11.130  0.00  0.00    -0.283 OA
ATOM      9  C   UNL     1      37.819 -23.333 -12.118  0.00  0.00    +0.237 C 
ENDBRANCH   3   9
BRANCH   4  11
ATOM     10  O   UNL     1      36.508 -27.370 -16.440  0.00  0.00    -0.283 OA
ATOM     11  C   UNL     1      37.027 -26.976 -15.394  0.00  0.00    +0.237 C 
ENDBRANCH   4  11
BRANCH   1  12
ATOM     12  O   UNL     1      38.654 -25.656 -13.495  0.00  0.00    -0.403 OA
BRANCH  12  13
ATOM     13  P   UNL     1      39.960 -25.456 -14.429  0.00  0.00    +0.528 P 
ATOM     14  O   UNL     1      40.587 -26.722 -14.934  0.00  0.00    -0.216 OA
BRANCH  13  15
ATOM     15  O   UNL     1      39.477 -24.409 -15.563  0.00  0.00    -0.293 OA
ATOM     16  H   UNL     1      40.215 -23.827 -15.801  0.00  0.00    +0.223 HD
ENDBRANCH  13  15
BRANCH  13  17
ATOM     17  O   UNL     1      40.928 -24.557 -13.495  0.00  0.00    -0.293 OA
ATOM     18  H   UNL     1      41.049 -23.683 -13.900  0.00  0.00    +0.223 HD
ENDBRANCH  13  17
ENDBRANCH  12  13
ENDBRANCH   1  12
TORSDOF 6
ENDMDL
MODEL 2
REMARK VINA RESULT:      -7.4      0.124      3.296
REMARK  Name = 5287465
REMARK  6 active torsions:
REMARK  status: ('A' for Active; 'I' for Inactive)
REMARK    1  A    between atoms: C_1  and  O_12
REMARK    2  A    between atoms: C_3  and  C_9
REMARK    3  A    between atoms: C_4  and  C_11
REMARK    4  A    between atoms: O_12  and  P_13
REMARK    5  A    between atoms: P_13  and  O_15
REMARK    6  A    between atoms: P_13  and  O_17
REMARK                            x       y       z     vdW  Elec       q    Type
REMARK                         _______ _______ _______ _____ _____    ______ ____
ROOT
ATOM      1  C   UNL     1      37.444 -25.217 -13.703  0.00  0.00    +0.155 C 
ATOM      2  C   UNL     1      34.894 -24.181 -14.161  0.00  0.00    -0.021 C 
ATOM      3  C   UNL     1      36.607 -25.815 -14.646  0.00  0.00    +0.076 C 
ATOM      4  C   UNL     1      37.006 -24.101 -12.990  0.00  0.00    +0.076 C 
ATOM      5  C   UNL     1      35.333 -25.297 -14.875  0.00  0.00    +0.002 C 
ATOM      6  C   UNL     1      35.731 -23.583 -13.219  0.00  0.00    +0.002 C 
ATOM      7  C   UNL     1      33.533 -23.624 -14.409  0.00  0.00    +0.031 C 
ENDROOT
BRANCH   3   9
ATOM      8  O   UNL     1      36.495 -27.348 -16.444  0.00  0.00    -0.283 OA
ATOM      9  C   UNL     1      37.044 -26.979 -15.404  0.00  0.00    +0.237 C 
ENDBRANCH   3   9
BRANCH   4  11
ATOM     10  O   UNL     1      37.474 -22.555 -11.261  0.00  0.00    -0.283 OA
ATOM     11  C   UNL     1      37.863 -23.460 -12.003  0.00  0.00    +0.237 C 
ENDBRANCH   4  11
BRANCH   1  12
ATOM     12  O   UNL     1      38.690 -25.725 -13.479  0.00  0.00    -0.403 OA
BRANCH  12  13
ATOM     13  P   UNL     1      39.981 -25.472 -14.420  0.00  0.00    +0.528 P 
ATOM     14  O   UNL     1      40.642 -26.711 -14.948  0.00  0.00    -0.216 OA
BRANCH  13  15
ATOM     15  O   UNL     1      39.458 -24.425 -15.537  0.00  0.00    -0.293 OA
ATOM     16  H   UNL     1      38.518 -24.238 -15.389  0.00  0.00    +0.223 HD
ENDBRANCH  13  15
BRANCH  13  17
ATOM     17  O   UNL     1      40.930 -24.556 -13.482  0.00  0.00    -0.293 OA
ATOM     18  H   UNL     1      40.386 -24.096 -12.823  0.00  0.00    +0.223 HD
ENDBRANCH  13  17
ENDBRANCH  12  13
ENDBRANCH   1  12
TORSDOF 6
ENDMDL
MODEL 3
REMARK VINA RESULT:      -7.3     12.262     13.376
REMARK  Name = 5287465
REMARK  6 active torsions:
REMARK  status: ('A' for Active; 'I' for Inactive)
REMARK    1  A    between atoms: C_1  and  O_12
REMARK    2  A    between atoms: C_3  and  C_9
REMARK    3  A    between atoms: C_4  and  C_11
REMARK    4  A    between atoms: O_12  and  P_13
REMARK    5  A    between atoms: P_13  and  O_15
REMARK    6  A    between atoms: P_13  and  O_17
REMARK                            x       y       z     vdW  Elec       q    Type
REMARK                         _______ _______ _______ _____ _____    ______ ____
ROOT
ATOM      1  C   UNL     1      34.742 -16.129 -22.947  0.00  0.00    +0.155 C 
ATOM      2  C   UNL     1      34.650 -18.640 -21.734  0.00  0.00    -0.021 C 
ATOM      3  C   UNL     1      34.671 -16.231 -21.558  0.00  0.00    +0.076 C 
ATOM      4  C   UNL     1      34.768 -17.283 -23.730  0.00  0.00    +0.076 C 
ATOM      5  C   UNL     1      34.625 -17.485 -20.951  0.00  0.00    +0.002 C 
ATOM      6  C   UNL     1      34.722 -18.539 -23.123  0.00  0.00    +0.002 C 
ATOM      7  C   UNL     1      34.605 -19.982 -21.086  0.00  0.00    +0.031 C 
ENDROOT
BRANCH   3   9
ATOM      8  O   UNL     1      33.609 -14.580 -20.237  0.00  0.00    -0.283 OA
ATOM      9  C   UNL     1      34.645 -15.039 -20.720  0.00  0.00    +0.237 C 
ENDBRANCH   3   9
BRANCH   4  11
ATOM     10  O   UNL     1      33.848 -17.116 -25.904  0.00  0.00    -0.283 OA
ATOM     11  C   UNL     1      34.844 -17.202 -25.182  0.00  0.00    +0.237 C 
ENDBRANCH   4  11
BRANCH   1  12
ATOM     12  O   UNL     1      34.786 -14.901 -23.540  0.00  0.00    -0.403 OA
BRANCH  12  13
ATOM     13  P   UNL     1      33.497 -13.988 -23.885  0.00  0.00    +0.528 P 
ATOM     14  O   UNL     1      32.257 -14.307 -23.102  0.00  0.00    -0.216 OA
BRANCH  13  15
ATOM     15  O   UNL     1      34.040 -12.471 -23.754  0.00  0.00    -0.293 OA
ATOM     16  H   UNL     1      34.999 -12.457 -23.894  0.00  0.00    +0.223 HD
ENDBRANCH  13  15
BRANCH  13  17
ATOM     17  O   UNL     1      33.345 -14.181 -25.485  0.00  0.00    -0.293 OA
ATOM     18  H   UNL     1      32.470 -13.869 -25.767  0.00  0.00    +0.223 HD
ENDBRANCH  13  17
ENDBRANCH  12  13
ENDBRANCH   1  12
TORSDOF 6
ENDMDL
MODEL 4
REMARK VINA RESULT:      -7.3     12.290     13.752
REMARK  Name = 5287465
REMARK  6 active torsions:
REMARK  status: ('A' for Active; 'I' for Inactive)
REMARK    1  A    between atoms: C_1  and  O_12
REMARK    2  A    between atoms: C_3  and  C_9
REMARK    3  A    between atoms: C_4  and  C_11
REMARK    4  A    between atoms: O_12  and  P_13
REMARK    5  A    between atoms: P_13  and  O_15
REMARK    6  A    between atoms: P_13  and  O_17
REMARK                            x       y       z     vdW  Elec       q    Type
REMARK                         _______ _______ _______ _____ _____    ______ ____
ROOT
ATOM      1  C   UNL     1      34.748 -16.090 -22.955  0.00  0.00    +0.155 C 
ATOM      2  C   UNL     1      34.597 -18.582 -21.710  0.00  0.00    -0.021 C 
ATOM      3  C   UNL     1      34.755 -17.255 -23.722  0.00  0.00    +0.076 C 
ATOM      4  C   UNL     1      34.665 -16.172 -21.564  0.00  0.00    +0.076 C 
ATOM      5  C   UNL     1      34.679 -18.501 -23.100  0.00  0.00    +0.002 C 
ATOM      6  C   UNL     1      34.590 -17.418 -20.941  0.00  0.00    +0.002 C 
ATOM      7  C   UNL     1      34.513 -19.914 -21.044  0.00  0.00    +0.031 C 
ENDROOT
BRANCH   3   9
ATOM      8  O   UNL     1      33.846 -17.127 -25.902  0.00  0.00    -0.283 OA
ATOM      9  C   UNL     1      34.838 -17.194 -25.175  0.00  0.00    +0.237 C 
ENDBRANCH   3   9
BRANCH   4  11
ATOM     10  O   UNL     1      33.624 -14.493 -20.261  0.00  0.00    -0.283 OA
ATOM     11  C   UNL     1      34.654 -14.969 -20.743  0.00  0.00    +0.237 C 
ENDBRANCH   4  11
BRANCH   1  12
ATOM     12  O   UNL     1      34.822 -14.872 -23.563  0.00  0.00    -0.403 OA
BRANCH  12  13
ATOM     13  P   UNL     1      33.554 -13.940 -23.938  0.00  0.00    +0.528 P 
ATOM     14  O   UNL     1      32.324 -14.168 -23.109  0.00  0.00    -0.216 OA
BRANCH  13  15
ATOM     15  O   UNL     1      34.148 -12.435 -23.913  0.00  0.00    -0.293 OA
ATOM     16  H   UNL     1      34.160 -12.078 -24.814  0.00  0.00    +0.223 HD
ENDBRANCH  13  15
BRANCH  13  17
ATOM     17  O   UNL     1      33.359 -14.226 -25.519  0.00  0.00    -0.293 OA
ATOM     18  H   UNL     1      34.209 -14.484 -25.908  0.00  0.00    +0.223 HD
ENDBRANCH  13  17
ENDBRANCH  12  13
ENDBRANCH   1  12
TORSDOF 6
ENDMDL
MODEL 5
REMARK VINA RESULT:      -7.3      1.978      3.334
REMARK  Name = 5287465
REMARK  6 active torsions:
REMARK  status: ('A' for Active; 'I' for Inactive)
REMARK    1  A    between atoms: C_1  and  O_12
REMARK    2  A    between atoms: C_3  and  C_9
REMARK    3  A    between atoms: C_4  and  C_11
REMARK    4  A    between atoms: O_12  and  P_13
REMARK    5  A    between atoms: P_13  and  O_15
REMARK    6  A    between atoms: P_13  and  O_17
REMARK                            x       y       z     vdW  Elec       q    Type
REMARK                         _______ _______ _______ _____ _____    ______ ____
ROOT
ATOM      1  C   UNL     1      36.137 -23.774 -14.105  0.00  0.00    +0.155 C 
ATOM      2  C   UNL     1      33.361 -23.603 -14.319  0.00  0.00    -0.021 C 
ATOM      3  C   UNL     1      35.559 -23.172 -15.222  0.00  0.00    +0.076 C 
ATOM      4  C   UNL     1      35.326 -24.291 -13.094  0.00  0.00    +0.076 C 
ATOM      5  C   UNL     1      34.172 -23.086 -15.330  0.00  0.00    +0.002 C 
ATOM      6  C   UNL     1      33.938 -24.205 -13.201  0.00  0.00    +0.002 C 
ATOM      7  C   UNL     1      31.877 -23.508 -14.431  0.00  0.00    +0.031 C 
ENDROOT
BRANCH   3   9
ATOM      8  O   UNL     1      35.975 -22.453 -17.438  0.00  0.00    -0.283 OA
ATOM      9  C   UNL     1      36.386 -22.624 -16.289  0.00  0.00    +0.237 C 
ENDBRANCH   3   9
BRANCH   4  11
ATOM     10  O   UNL     1      35.295 -25.056 -10.855  0.00  0.00    -0.283 OA
ATOM     11  C   UNL     1      35.906 -24.923 -11.917  0.00  0.00    +0.237 C 
ENDBRANCH   4  11
BRANCH   1  12
ATOM     12  O   UNL     1      37.495 -23.859 -14.000  0.00  0.00    -0.403 OA
BRANCH  12  13
ATOM     13  P   UNL     1      38.389 -25.115 -14.491  0.00  0.00    +0.528 P 
ATOM     14  O   UNL     1      38.987 -25.944 -13.393  0.00  0.00    -0.216 OA
BRANCH  13  15
ATOM     15  O   UNL     1      37.427 -25.905 -15.524  0.00  0.00    -0.293 OA
ATOM     16  H   UNL     1      36.547 -25.499 -15.521  0.00  0.00    +0.223 HD
ENDBRANCH  13  15
BRANCH  13  17
ATOM     17  O   UNL     1      39.473 -24.416 -15.469  0.00  0.00    -0.293 OA
ATOM     18  H   UNL     1      40.356 -24.773 -15.280  0.00  0.00    +0.223 HD
ENDBRANCH  13  17
ENDBRANCH  12  13
ENDBRANCH   1  12
TORSDOF 6
ENDMDL
MODEL 6
REMARK VINA RESULT:      -7.2      1.981      2.700
REMARK  Name = 5287465
REMARK  6 active torsions:
REMARK  status: ('A' for Active; 'I' for Inactive)
REMARK    1  A    between atoms: C_1  and  O_12
REMARK    2  A    between atoms: C_3  and  C_9
REMARK    3  A    between atoms: C_4  and  C_11
REMARK    4  A    between atoms: O_12  and  P_13
REMARK    5  A    between atoms: P_13  and  O_15
REMARK    6  A    between atoms: P_13  and  O_17
REMARK                            x       y       z     vdW  Elec       q    Type
REMARK                         _______ _______ _______ _____ _____    ______ ____
ROOT
ATOM      1  C   UNL     1      36.142 -23.779 -14.111  0.00  0.00    +0.155 C 
ATOM      2  C   UNL     1      33.366 -23.604 -14.326  0.00  0.00    -0.021 C 
ATOM      3  C   UNL     1      35.330 -24.287 -13.097  0.00  0.00    +0.076 C 
ATOM      4  C   UNL     1      35.566 -23.184 -15.233  0.00  0.00    +0.076 C 
ATOM      5  C   UNL     1      33.942 -24.199 -13.204  0.00  0.00    +0.002 C 
ATOM      6  C   UNL     1      34.177 -23.097 -15.342  0.00  0.00    +0.002 C 
ATOM      7  C   UNL     1      31.882 -23.514 -14.444  0.00  0.00    +0.031 C 
ENDROOT
BRANCH   3   9
ATOM      8  O   UNL     1      35.288 -25.068 -10.864  0.00  0.00    -0.283 OA
ATOM      9  C   UNL     1      35.910 -24.914 -11.917  0.00  0.00    +0.237 C 
ENDBRANCH   3   9
BRANCH   4  11
ATOM     10  O   UNL     1      35.963 -22.428 -17.440  0.00  0.00    -0.283 OA
ATOM     11  C   UNL     1      36.393 -22.649 -16.306  0.00  0.00    +0.237 C 
ENDBRANCH   4  11
BRANCH   1  12
ATOM     12  O   UNL     1      37.499 -23.864 -14.005  0.00  0.00    -0.403 OA
BRANCH  12  13
ATOM     13  P   UNL     1      38.394 -25.120 -14.495  0.00  0.00    +0.528 P 
ATOM     14  O   UNL     1      39.003 -25.941 -13.396  0.00  0.00    -0.216 OA
BRANCH  13  15
ATOM     15  O   UNL     1      37.428 -25.919 -15.516  0.00  0.00    -0.293 OA
ATOM     16  H   UNL     1      37.956 -26.538 -16.044  0.00  0.00    +0.223 HD
ENDBRANCH  13  15
BRANCH  13  17
ATOM     17  O   UNL     1      39.470 -24.424 -15.484  0.00  0.00    -0.293 OA
ATOM     18  H   UNL     1      40.333 -24.379 -15.043  0.00  0.00    +0.223 HD
ENDBRANCH  13  17
ENDBRANCH  12  13
ENDBRANCH   1  12
TORSDOF 6
ENDMDL
MODEL 7
REMARK VINA RESULT:      -6.9      3.058      4.558
REMARK  Name = 5287465
REMARK  6 active torsions:
REMARK  status: ('A' for Active; 'I' for Inactive)
REMARK    1  A    between atoms: C_1  and  O_12
REMARK    2  A    between atoms: C_3  and  C_9
REMARK    3  A    between atoms: C_4  and  C_11
REMARK    4  A    between atoms: O_12  and  P_13
REMARK    5  A    between atoms: P_13  and  O_15
REMARK    6  A    between atoms: P_13  and  O_17
REMARK                            x       y       z     vdW  Elec       q    Type
REMARK                         _______ _______ _______ _____ _____    ______ ____
ROOT
ATOM      1  C   UNL     1      35.036 -23.084 -15.031  0.00  0.00    +0.155 C 
ATOM      2  C   UNL     1      34.244 -22.769 -17.687  0.00  0.00    -0.021 C 
ATOM      3  C   UNL     1      33.715 -23.335 -15.399  0.00  0.00    +0.076 C 
ATOM      4  C   UNL     1      35.962 -22.674 -15.991  0.00  0.00    +0.076 C 
ATOM      5  C   UNL     1      33.318 -23.178 -16.727  0.00  0.00    +0.002 C 
ATOM      6  C   UNL     1      35.566 -22.517 -17.320  0.00  0.00    +0.002 C 
ATOM      7  C   UNL     1      33.822 -22.604 -19.108  0.00  0.00    +0.031 C 
ENDROOT
BRANCH   3   9
ATOM      8  O   UNL     1      32.602 -24.939 -14.063  0.00  0.00    -0.283 OA
ATOM      9  C   UNL     1      32.731 -23.765 -14.414  0.00  0.00    +0.237 C 
ENDBRANCH   3   9
BRANCH   4  11
ATOM     10  O   UNL     1      38.227 -23.271 -15.657  0.00  0.00    -0.283 OA
ATOM     11  C   UNL     1      37.347 -22.408 -15.631  0.00  0.00    +0.237 C 
ENDBRANCH   4  11
BRANCH   1  12
ATOM     12  O   UNL     1      35.423 -23.237 -13.732  0.00  0.00    -0.403 OA
BRANCH  12  13
ATOM     13  P   UNL     1      35.981 -24.609 -13.083  0.00  0.00    +0.528 P 
ATOM     14  O   UNL     1      37.411 -24.568 -12.626  0.00  0.00    -0.216 OA
BRANCH  13  15
ATOM     15  O   UNL     1      34.892 -24.981 -11.947  0.00  0.00    -0.293 OA
ATOM     16  H   UNL     1      34.811 -24.244 -11.323  0.00  0.00    +0.223 HD
ENDBRANCH  13  15
BRANCH  13  17
ATOM     17  O   UNL     1      35.681 -25.697 -14.243  0.00  0.00    -0.293 OA
ATOM     18  H   UNL     1      34.838 -26.141 -14.060  0.00  0.00    +0.223 HD
ENDBRANCH  13  17
ENDBRANCH  12  13
ENDBRANCH   1  12
TORSDOF 6
ENDMDL
MODEL 8
REMARK VINA RESULT:      -6.8      2.733      4.072
REMARK  Name = 5287465
REMARK  6 active torsions:
REMARK  status: ('A' for Active; 'I' for Inactive)
REMARK    1  A    between atoms: C_1  and  O_12
REMARK    2  A    between atoms: C_3  and  C_9
REMARK    3  A    between atoms: C_4  and  C_11
REMARK    4  A    between atoms: O_12  and  P_13
REMARK    5  A    between atoms: P_13  and  O_15
REMARK    6  A    between atoms: P_13  and  O_17
REMARK                            x       y       z     vdW  Elec       q    Type
REMARK                         _______ _______ _______ _____ _____    ______ ____
ROOT
ATOM      1  C   UNL     1      35.289 -23.349 -14.513  0.00  0.00    +0.155 C 
ATOM      2  C   UNL     1      34.090 -23.022 -17.011  0.00  0.00    -0.021 C 
ATOM      3  C   UNL     1      36.044 -22.899 -15.596  0.00  0.00    +0.076 C 
ATOM      4  C   UNL     1      33.934 -23.636 -14.679  0.00  0.00    +0.076 C 
ATOM      5  C   UNL     1      35.445 -22.735 -16.845  0.00  0.00    +0.002 C 
ATOM      6  C   UNL     1      33.334 -23.472 -15.928  0.00  0.00    +0.002 C 
ATOM      7  C   UNL     1      33.447 -22.843 -18.344  0.00  0.00    +0.031 C 
ENDROOT
BRANCH   3   9
ATOM      8  O   UNL     1      38.344 -23.449 -15.504  0.00  0.00    -0.283 OA
ATOM      9  C   UNL     1      37.460 -22.591 -15.446  0.00  0.00    +0.237 C 
ENDBRANCH   3   9
BRANCH   4  11
ATOM     10  O   UNL     1      32.188 -23.459 -13.093  0.00  0.00    -0.283 OA
ATOM     11  C   UNL     1      33.126 -24.106 -13.563  0.00  0.00    +0.237 C 
ENDBRANCH   4  11
BRANCH   1  12
ATOM     12  O   UNL     1      35.876 -23.510 -13.292  0.00  0.00    -0.403 OA
BRANCH  12  13
ATOM     13  P   UNL     1      36.467 -24.903 -12.721  0.00  0.00    +0.528 P 
ATOM     14  O   UNL     1      35.917 -25.337 -11.394  0.00  0.00    -0.216 OA
BRANCH  13  15
ATOM     15  O   UNL     1      36.267 -25.947 -13.940  0.00  0.00    -0.293 OA
ATOM     16  H   UNL     1      36.534 -25.528 -14.772  0.00  0.00    +0.223 HD
ENDBRANCH  13  15
BRANCH  13  17
ATOM     17  O   UNL     1      38.064 -24.640 -12.728  0.00  0.00    -0.293 OA
ATOM     18  H   UNL     1      38.331 -24.246 -11.883  0.00  0.00    +0.223 HD
ENDBRANCH  13  17
ENDBRANCH  12  13
ENDBRANCH   1  12
TORSDOF 6
ENDMDL
MODEL 9
REMARK VINA RESULT:      -6.8     12.289     13.503
REMARK  Name = 5287465
REMARK  6 active torsions:
REMARK  status: ('A' for Active; 'I' for Inactive)
REMARK    1  A    between atoms: C_1  and  O_12
REMARK    2  A    between atoms: C_3  and  C_9
REMARK    3  A    between atoms: C_4  and  C_11
REMARK    4  A    between atoms: O_12  and  P_13
REMARK    5  A    between atoms: P_13  and  O_15
REMARK    6  A    between atoms: P_13  and  O_17
REMARK                            x       y       z     vdW  Elec       q    Type
REMARK                         _______ _______ _______ _____ _____    ______ ____
ROOT
ATOM      1  C   UNL     1      34.444 -16.318 -23.297  0.00  0.00    +0.155 C 
ATOM      2  C   UNL     1      34.685 -18.829 -24.487  0.00  0.00    -0.021 C 
ATOM      3  C   UNL     1      34.890 -17.406 -22.546  0.00  0.00    +0.076 C 
ATOM      4  C   UNL     1      34.118 -16.486 -24.643  0.00  0.00    +0.076 C 
ATOM      5  C   UNL     1      35.011 -18.661 -23.141  0.00  0.00    +0.002 C 
ATOM      6  C   UNL     1      34.239 -17.741 -25.239  0.00  0.00    +0.002 C 
ATOM      7  C   UNL     1      34.818 -20.170 -25.126  0.00  0.00    +0.031 C 
ENDROOT
BRANCH   3   9
ATOM      8  O   UNL     1      35.751 -18.154 -20.474  0.00  0.00    -0.283 OA
ATOM      9  C   UNL     1      35.237 -17.254 -21.140  0.00  0.00    +0.237 C 
ENDBRANCH   3   9
BRANCH   4  11
ATOM     10  O   UNL     1      33.437 -15.448 -26.657  0.00  0.00    -0.283 OA
ATOM     11  C   UNL     1      33.652 -15.364 -25.446  0.00  0.00    +0.237 C 
ENDBRANCH   4  11
BRANCH   1  12
ATOM     12  O   UNL     1      34.325 -15.090 -22.714  0.00  0.00    -0.403 OA
BRANCH  12  13
ATOM     13  P   UNL     1      32.973 -14.504 -22.046  0.00  0.00    +0.528 P 
ATOM     14  O   UNL     1      32.218 -13.517 -22.886  0.00  0.00    -0.216 OA
BRANCH  13  15
ATOM     15  O   UNL     1      32.149 -15.823 -21.600  0.00  0.00    -0.293 OA
ATOM     16  H   UNL     1      31.214 -15.713 -21.830  0.00  0.00    +0.223 HD
ENDBRANCH  13  15
BRANCH  13  17
ATOM     17  O   UNL     1      33.503 -13.914 -20.635  0.00  0.00    -0.293 OA
ATOM     18  H   UNL     1      33.422 -14.595 -19.948  0.00  0.00    +0.223 HD
ENDBRANCH  13  17
ENDBRANCH  12  13
ENDBRANCH   1  12
TORSDOF 6
ENDMDL
