MODEL 1
REMARK VINA RESULT:      -7.0      0.000      0.000
REMARK  Name = 6852124
REMARK  4 active torsions:
REMARK  status: ('A' for Active; 'I' for Inactive)
REMARK    1  A    between atoms: C_4  and  C_6
REMARK    2  A    between atoms: C_5  and  C_11
REMARK    3  A    between atoms: C_11  and  C_12
REMARK    4  A    between atoms: C_12  and  N_13
REMARK                            x       y       z     vdW  Elec       q    Type
REMARK                         _______ _______ _______ _____ _____    ______ ____
ROOT
ATOM      1  O   UNL     1      34.842 -20.712 -20.233  0.00  0.00    -0.417 OA
ATOM      2  N   UNL     1      32.823 -19.808 -20.572  0.00  0.00    -0.111 NA
ATOM      3  N   UNL     1      32.662 -20.924 -19.772  0.00  0.00    -0.104 NA
ATOM      4  C   UNL     1      34.076 -19.770 -20.779  0.00  0.00    +0.226 A 
ATOM      5  C   UNL     1      33.865 -21.419 -19.600  0.00  0.00    +0.282 A 
ENDROOT
BRANCH   4   6
ATOM      6  C   UNL     1      34.850 -18.734 -21.610  0.00  0.00    +0.070 C 
ATOM      7  C   UNL     1      36.344 -18.769 -21.222  0.00  0.00    +0.009 C 
ATOM      8  C   UNL     1      34.287 -17.322 -21.335  0.00  0.00    +0.009 C 
ATOM      9  C   UNL     1      34.769 -18.968 -23.135  0.00  0.00    +0.009 C 
ENDBRANCH   4   6
BRANCH   5  11
ATOM     10  O   UNL     1      33.824 -23.743 -19.136  0.00  0.00    -0.289 OA
ATOM     11  C   UNL     1      34.201 -22.573 -18.846  0.00  0.00    +0.206 C 
BRANCH  11  12
ATOM     12  C   UNL     1      35.083 -22.425 -17.579  0.00  0.00    -0.006 C 
BRANCH  12  13
ATOM     13  N   UNL     1      36.396 -21.883 -17.909  0.00  0.00    +0.387 N 
ATOM     14  C   UNL     1      37.176 -21.645 -16.703  0.00  0.00    -0.105 C 
ATOM     15  H   UNL     1      36.277 -21.002 -18.410  0.00  0.00    -0.084 HD
ATOM     16  H   UNL     1      36.892 -22.560 -18.490  0.00  0.00    -0.084 HD
ENDBRANCH  12  13
ENDBRANCH  11  12
ENDBRANCH   5  11
TORSDOF 4
ENDMDL
MODEL 2
REMARK VINA RESULT:      -6.9      1.736      2.129
REMARK  Name = 6852124
REMARK  4 active torsions:
REMARK  status: ('A' for Active; 'I' for Inactive)
REMARK    1  A    between atoms: C_4  and  C_6
REMARK    2  A    between atoms: C_5  and  C_11
REMARK    3  A    between atoms: C_11  and  C_12
REMARK    4  A    between atoms: C_12  and  N_13
REMARK                            x       y       z     vdW  Elec       q    Type
REMARK                         _______ _______ _______ _____ _____    ______ ____
ROOT
ATOM      1  O   UNL     1      34.722 -20.937 -20.238  0.00  0.00    -0.417 OA
ATOM      2  N   UNL     1      32.914 -19.642 -20.482  0.00  0.00    -0.111 NA
ATOM      3  N   UNL     1      32.537 -20.775 -19.784  0.00  0.00    -0.104 NA
ATOM      4  C   UNL     1      34.153 -19.822 -20.692  0.00  0.00    +0.226 A 
ATOM      5  C   UNL     1      33.624 -21.501 -19.665  0.00  0.00    +0.282 A 
ENDROOT
BRANCH   4   6
ATOM      6  C   UNL     1      35.117 -18.881 -21.432  0.00  0.00    +0.070 C 
ATOM      7  C   UNL     1      36.566 -19.156 -20.974  0.00  0.00    +0.009 C 
ATOM      8  C   UNL     1      34.755 -17.413 -21.116  0.00  0.00    +0.009 C 
ATOM      9  C   UNL     1      35.088 -19.037 -22.969  0.00  0.00    +0.009 C 
ENDBRANCH   4   6
BRANCH   5  11
ATOM     10  O   UNL     1      34.168 -23.806 -19.575  0.00  0.00    -0.289 OA
ATOM     11  C   UNL     1      33.728 -22.760 -19.019  0.00  0.00    +0.206 C 
BRANCH  11  12
ATOM     12  C   UNL     1      33.282 -22.898 -17.541  0.00  0.00    -0.006 C 
BRANCH  12  13
ATOM     13  N   UNL     1      31.858 -22.624 -17.390  0.00  0.00    +0.387 N 
ATOM     14  C   UNL     1      31.337 -23.240 -16.178  0.00  0.00    -0.105 C 
ATOM     15  H   UNL     1      31.359 -22.999 -18.197  0.00  0.00    -0.084 HD
ATOM     16  H   UNL     1      31.725 -21.614 -17.326  0.00  0.00    -0.084 HD
ENDBRANCH  12  13
ENDBRANCH  11  12
ENDBRANCH   5  11
TORSDOF 4
ENDMDL
MODEL 3
REMARK VINA RESULT:      -6.9      4.686      7.575
REMARK  Name = 6852124
REMARK  4 active torsions:
REMARK  status: ('A' for Active; 'I' for Inactive)
REMARK    1  A    between atoms: C_4  and  C_6
REMARK    2  A    between atoms: C_5  and  C_11
REMARK    3  A    between atoms: C_11  and  C_12
REMARK    4  A    between atoms: C_12  and  N_13
REMARK                            x       y       z     vdW  Elec       q    Type
REMARK                         _______ _______ _______ _____ _____    ______ ____
ROOT
ATOM      1  O   UNL     1      34.211 -16.402 -23.481  0.00  0.00    -0.417 OA
ATOM      2  N   UNL     1      35.004 -18.301 -24.361  0.00  0.00    -0.111 NA
ATOM      3  N   UNL     1      34.576 -17.494 -25.400  0.00  0.00    -0.104 NA
ATOM      4  C   UNL     1      34.759 -17.606 -23.327  0.00  0.00    +0.226 A 
ATOM      5  C   UNL     1      34.121 -16.398 -24.840  0.00  0.00    +0.282 A 
ENDROOT
BRANCH   4   6
ATOM      6  C   UNL     1      35.028 -17.991 -21.863  0.00  0.00    +0.070 C 
ATOM      7  C   UNL     1      34.001 -19.051 -21.408  0.00  0.00    +0.009 C 
ATOM      8  C   UNL     1      34.898 -16.741 -20.964  0.00  0.00    +0.009 C 
ATOM      9  C   UNL     1      36.434 -18.584 -21.620  0.00  0.00    +0.009 C 
ENDBRANCH   4   6
BRANCH   5  11
ATOM     10  O   UNL     1      33.522 -15.157 -26.767  0.00  0.00    -0.289 OA
ATOM     11  C   UNL     1      33.573 -15.275 -25.510  0.00  0.00    +0.206 C 
BRANCH  11  12
ATOM     12  C   UNL     1      32.995 -14.099 -24.682  0.00  0.00    -0.006 C 
BRANCH  12  13
ATOM     13  N   UNL     1      34.051 -13.366 -23.995  0.00  0.00    +0.387 N 
ATOM     14  C   UNL     1      33.789 -11.934 -24.019  0.00  0.00    -0.105 C 
ATOM     15  H   UNL     1      34.941 -13.550 -24.458  0.00  0.00    -0.084 HD
ATOM     16  H   UNL     1      34.084 -13.675 -23.023  0.00  0.00    -0.084 HD
ENDBRANCH  12  13
ENDBRANCH  11  12
ENDBRANCH   5  11
TORSDOF 4
ENDMDL
MODEL 4
REMARK VINA RESULT:      -6.8      4.055      7.107
REMARK  Name = 6852124
REMARK  4 active torsions:
REMARK  status: ('A' for Active; 'I' for Inactive)
REMARK    1  A    between atoms: C_4  and  C_6
REMARK    2  A    between atoms: C_5  and  C_11
REMARK    3  A    between atoms: C_11  and  C_12
REMARK    4  A    between atoms: C_12  and  N_13
REMARK                            x       y       z     vdW  Elec       q    Type
REMARK                         _______ _______ _______ _____ _____    ______ ____
ROOT
ATOM      1  O   UNL     1      34.062 -16.538 -22.252  0.00  0.00    -0.417 OA
ATOM      2  N   UNL     1      35.148 -16.456 -20.297  0.00  0.00    -0.111 NA
ATOM      3  N   UNL     1      34.657 -15.192 -20.566  0.00  0.00    -0.104 NA
ATOM      4  C   UNL     1      34.766 -17.141 -21.296  0.00  0.00    +0.226 A 
ATOM      5  C   UNL     1      34.031 -15.287 -21.716  0.00  0.00    +0.282 A 
ENDROOT
BRANCH   4   6
ATOM      6  C   UNL     1      35.021 -18.636 -21.551  0.00  0.00    +0.070 C 
ATOM      7  C   UNL     1      35.058 -18.904 -23.071  0.00  0.00    +0.009 C 
ATOM      8  C   UNL     1      33.888 -19.472 -20.915  0.00  0.00    +0.009 C 
ATOM      9  C   UNL     1      36.354 -19.152 -20.964  0.00  0.00    +0.009 C 
ENDBRANCH   4   6
BRANCH   5  11
ATOM     10  O   UNL     1      32.478 -13.505 -21.878  0.00  0.00    -0.289 OA
ATOM     11  C   UNL     1      33.363 -14.239 -22.400  0.00  0.00    +0.206 C 
BRANCH  11  12
ATOM     12  C   UNL     1      33.715 -13.950 -23.882  0.00  0.00    -0.006 C 
BRANCH  12  13
ATOM     13  N   UNL     1      33.471 -15.117 -24.721  0.00  0.00    +0.387 N 
ATOM     14  C   UNL     1      32.989 -14.719 -26.036  0.00  0.00    -0.105 C 
ATOM     15  H   UNL     1      32.771 -15.709 -24.274  0.00  0.00    -0.084 HD
ATOM     16  H   UNL     1      34.348 -15.626 -24.836  0.00  0.00    -0.084 HD
ENDBRANCH  12  13
ENDBRANCH  11  12
ENDBRANCH   5  11
TORSDOF 4
ENDMDL
MODEL 5
REMARK VINA RESULT:      -6.7      4.157      7.027
REMARK  Name = 6852124
REMARK  4 active torsions:
REMARK  status: ('A' for Active; 'I' for Inactive)
REMARK    1  A    between atoms: C_4  and  C_6
REMARK    2  A    between atoms: C_5  and  C_11
REMARK    3  A    between atoms: C_11  and  C_12
REMARK    4  A    between atoms: C_12  and  N_13
REMARK                            x       y       z     vdW  Elec       q    Type
REMARK                         _______ _______ _______ _____ _____    ______ ____
ROOT
ATOM      1  O   UNL     1      34.215 -16.486 -22.356  0.00  0.00    -0.417 OA
ATOM      2  N   UNL     1      35.090 -16.459 -20.296  0.00  0.00    -0.111 NA
ATOM      3  N   UNL     1      34.700 -15.170 -20.613  0.00  0.00    -0.104 NA
ATOM      4  C   UNL     1      34.778 -17.125 -21.332  0.00  0.00    +0.226 A 
ATOM      5  C   UNL     1      34.196 -15.234 -21.822  0.00  0.00    +0.282 A 
ENDROOT
BRANCH   4   6
ATOM      6  C   UNL     1      34.976 -18.632 -21.563  0.00  0.00    +0.070 C 
ATOM      7  C   UNL     1      36.328 -19.076 -20.964  0.00  0.00    +0.009 C 
ATOM      8  C   UNL     1      34.969 -18.931 -23.078  0.00  0.00    +0.009 C 
ATOM      9  C   UNL     1      33.881 -19.512 -20.919  0.00  0.00    +0.009 C 
ENDBRANCH   4   6
BRANCH   5  11
ATOM     10  O   UNL     1      34.195 -13.687 -23.617  0.00  0.00    -0.289 OA
ATOM     11  C   UNL     1      33.663 -14.153 -22.571  0.00  0.00    +0.206 C 
BRANCH  11  12
ATOM     12  C   UNL     1      32.349 -13.476 -22.103  0.00  0.00    -0.006 C 
BRANCH  12  13
ATOM     13  N   UNL     1      32.373 -13.208 -20.670  0.00  0.00    +0.387 N 
ATOM     14  C   UNL     1      31.676 -11.967 -20.363  0.00  0.00    -0.105 C 
ATOM     15  H   UNL     1      33.342 -13.132 -20.361  0.00  0.00    -0.084 HD
ATOM     16  H   UNL     1      31.904 -13.974 -20.187  0.00  0.00    -0.084 HD
ENDBRANCH  12  13
ENDBRANCH  11  12
ENDBRANCH   5  11
TORSDOF 4
ENDMDL
MODEL 6
REMARK VINA RESULT:      -6.7      4.428      7.408
REMARK  Name = 6852124
REMARK  4 active torsions:
REMARK  status: ('A' for Active; 'I' for Inactive)
REMARK    1  A    between atoms: C_4  and  C_6
REMARK    2  A    between atoms: C_5  and  C_11
REMARK    3  A    between atoms: C_11  and  C_12
REMARK    4  A    between atoms: C_12  and  N_13
REMARK                            x       y       z     vdW  Elec       q    Type
REMARK                         _______ _______ _______ _____ _____    ______ ____
ROOT
ATOM      1  O   UNL     1      34.061 -16.489 -22.263  0.00  0.00    -0.417 OA
ATOM      2  N   UNL     1      35.140 -16.418 -20.304  0.00  0.00    -0.111 NA
ATOM      3  N   UNL     1      34.638 -15.155 -20.562  0.00  0.00    -0.104 NA
ATOM      4  C   UNL     1      34.768 -17.096 -21.311  0.00  0.00    +0.226 A 
ATOM      5  C   UNL     1      34.017 -15.244 -21.714  0.00  0.00    +0.282 A 
ENDROOT
BRANCH   4   6
ATOM      6  C   UNL     1      35.037 -18.586 -21.580  0.00  0.00    +0.070 C 
ATOM      7  C   UNL     1      35.105 -18.834 -23.103  0.00  0.00    +0.009 C 
ATOM      8  C   UNL     1      33.897 -19.437 -20.977  0.00  0.00    +0.009 C 
ATOM      9  C   UNL     1      36.361 -19.101 -20.974  0.00  0.00    +0.009 C 
ENDBRANCH   4   6
BRANCH   5  11
ATOM     10  O   UNL     1      32.326 -13.598 -21.934  0.00  0.00    -0.289 OA
ATOM     11  C   UNL     1      33.342 -14.196 -22.390  0.00  0.00    +0.206 C 
BRANCH  11  12
ATOM     12  C   UNL     1      33.853 -13.729 -23.777  0.00  0.00    -0.006 C 
BRANCH  12  13
ATOM     13  N   UNL     1      34.102 -12.293 -23.793  0.00  0.00    +0.387 N 
ATOM     14  C   UNL     1      33.921 -11.749 -25.132  0.00  0.00    -0.105 C 
ATOM     15  H   UNL     1      35.060 -12.116 -23.488  0.00  0.00    -0.084 HD
ATOM     16  H   UNL     1      33.439 -11.839 -23.165  0.00  0.00    -0.084 HD
ENDBRANCH  12  13
ENDBRANCH  11  12
ENDBRANCH   5  11
TORSDOF 4
ENDMDL
MODEL 7
REMARK VINA RESULT:      -6.5      3.459      6.288
REMARK  Name = 6852124
REMARK  4 active torsions:
REMARK  status: ('A' for Active; 'I' for Inactive)
REMARK    1  A    between atoms: C_4  and  C_6
REMARK    2  A    between atoms: C_5  and  C_11
REMARK    3  A    between atoms: C_11  and  C_12
REMARK    4  A    between atoms: C_12  and  N_13
REMARK                            x       y       z     vdW  Elec       q    Type
REMARK                         _______ _______ _______ _____ _____    ______ ____
ROOT
ATOM      1  O   UNL     1      32.009 -23.092 -17.564  0.00  0.00    -0.417 OA
ATOM      2  N   UNL     1      33.107 -23.638 -15.692  0.00  0.00    -0.111 NA
ATOM      3  N   UNL     1      34.039 -23.466 -16.700  0.00  0.00    -0.104 NA
ATOM      4  C   UNL     1      32.000 -23.408 -16.271  0.00  0.00    +0.226 A 
ATOM      5  C   UNL     1      33.353 -23.149 -17.773  0.00  0.00    +0.282 A 
ENDROOT
BRANCH   4   6
ATOM      6  C   UNL     1      30.597 -23.448 -15.643  0.00  0.00    +0.070 C 
ATOM      7  C   UNL     1      30.642 -22.825 -14.231  0.00  0.00    +0.009 C 
ATOM      8  C   UNL     1      30.117 -24.913 -15.537  0.00  0.00    +0.009 C 
ATOM      9  C   UNL     1      29.529 -22.675 -16.449  0.00  0.00    +0.009 C 
ENDBRANCH   4   6
BRANCH   5  11
ATOM     10  O   UNL     1      34.232 -23.768 -19.885  0.00  0.00    -0.289 OA
ATOM     11  C   UNL     1      33.883 -22.877 -19.060  0.00  0.00    +0.206 C 
BRANCH  11  12
ATOM     12  C   UNL     1      34.060 -21.406 -19.517  0.00  0.00    -0.006 C 
BRANCH  12  13
ATOM     13  N   UNL     1      32.774 -20.730 -19.635  0.00  0.00    +0.387 N 
ATOM     14  C   UNL     1      32.765 -19.828 -20.778  0.00  0.00    -0.105 C 
ATOM     15  H   UNL     1      32.599 -20.193 -18.785  0.00  0.00    -0.084 HD
ATOM     16  H   UNL     1      32.047 -21.433 -19.769  0.00  0.00    -0.084 HD
ENDBRANCH  12  13
ENDBRANCH  11  12
ENDBRANCH   5  11
TORSDOF 4
ENDMDL
MODEL 8
REMARK VINA RESULT:      -6.2      3.474      6.015
REMARK  Name = 6852124
REMARK  4 active torsions:
REMARK  status: ('A' for Active; 'I' for Inactive)
REMARK    1  A    between atoms: C_4  and  C_6
REMARK    2  A    between atoms: C_5  and  C_11
REMARK    3  A    between atoms: C_11  and  C_12
REMARK    4  A    between atoms: C_12  and  N_13
REMARK                            x       y       z     vdW  Elec       q    Type
REMARK                         _______ _______ _______ _____ _____    ______ ____
ROOT
ATOM      1  O   UNL     1      31.951 -22.696 -17.531  0.00  0.00    -0.417 OA
ATOM      2  N   UNL     1      33.293 -23.612 -15.993  0.00  0.00    -0.111 NA
ATOM      3  N   UNL     1      34.073 -23.237 -17.071  0.00  0.00    -0.104 NA
ATOM      4  C   UNL     1      32.121 -23.270 -16.342  0.00  0.00    +0.226 A 
ATOM      5  C   UNL     1      33.248 -22.707 -17.944  0.00  0.00    +0.282 A 
ENDROOT
BRANCH   4   6
ATOM      6  C   UNL     1      30.823 -23.440 -15.535  0.00  0.00    +0.070 C 
ATOM      7  C   UNL     1      30.400 -24.925 -15.538  0.00  0.00    +0.009 C 
ATOM      8  C   UNL     1      29.700 -22.591 -16.172  0.00  0.00    +0.009 C 
ATOM      9  C   UNL     1      30.943 -23.002 -14.058  0.00  0.00    +0.009 C 
ENDBRANCH   4   6
BRANCH   5  11
ATOM     10  O   UNL     1      32.766 -21.647 -20.008  0.00  0.00    -0.289 OA
ATOM     11  C   UNL     1      33.593 -22.177 -19.213  0.00  0.00    +0.206 C 
BRANCH  11  12
ATOM     12  C   UNL     1      35.068 -22.235 -19.689  0.00  0.00    -0.006 C 
BRANCH  12  13
ATOM     13  N   UNL     1      35.875 -21.212 -19.034  0.00  0.00    +0.387 N 
ATOM     14  C   UNL     1      36.511 -20.346 -20.016  0.00  0.00    -0.105 C 
ATOM     15  H   UNL     1      36.596 -21.665 -18.472  0.00  0.00    -0.084 HD
ATOM     16  H   UNL     1      35.267 -20.645 -18.444  0.00  0.00    -0.084 HD
ENDBRANCH  12  13
ENDBRANCH  11  12
ENDBRANCH   5  11
TORSDOF 4
ENDMDL
MODEL 9
REMARK VINA RESULT:      -6.2      5.120      7.595
REMARK  Name = 6852124
REMARK  4 active torsions:
REMARK  status: ('A' for Active; 'I' for Inactive)
REMARK    1  A    between atoms: C_4  and  C_6
REMARK    2  A    between atoms: C_5  and  C_11
REMARK    3  A    between atoms: C_11  and  C_12
REMARK    4  A    between atoms: C_12  and  N_13
REMARK                            x       y       z     vdW  Elec       q    Type
REMARK                         _______ _______ _______ _____ _____    ______ ____
ROOT
ATOM      1  O   UNL     1      36.246 -24.591 -15.489  0.00  0.00    -0.417 OA
ATOM      2  N   UNL     1      37.726 -23.024 -14.891  0.00  0.00    -0.111 NA
ATOM      3  N   UNL     1      36.677 -22.396 -15.536  0.00  0.00    -0.104 NA
ATOM      4  C   UNL     1      37.396 -24.250 -14.913  0.00  0.00    +0.226 A 
ATOM      5  C   UNL     1      35.837 -23.349 -15.867  0.00  0.00    +0.282 A 
ENDROOT
BRANCH   4   6
ATOM      6  C   UNL     1      38.186 -25.437 -14.335  0.00  0.00    +0.070 C 
ATOM      7  C   UNL     1      37.488 -26.760 -14.717  0.00  0.00    +0.009 C 
ATOM      8  C   UNL     1      38.246 -25.320 -12.796  0.00  0.00    +0.009 C 
ATOM      9  C   UNL     1      39.642 -25.525 -14.843  0.00  0.00    +0.009 C 
ENDBRANCH   4   6
BRANCH   5  11
ATOM     10  O   UNL     1      34.508 -23.000 -17.798  0.00  0.00    -0.289 OA
ATOM     11  C   UNL     1      34.606 -23.185 -16.552  0.00  0.00    +0.206 C 
BRANCH  11  12
ATOM     12  C   UNL     1      33.278 -23.228 -15.754  0.00  0.00    -0.006 C 
BRANCH  12  13
ATOM     13  N   UNL     1      33.525 -23.245 -14.317  0.00  0.00    +0.387 N 
ATOM     14  C   UNL     1      32.944 -24.432 -13.705  0.00  0.00    -0.105 C 
ATOM     15  H   UNL     1      33.107 -22.414 -13.897  0.00  0.00    -0.084 HD
ATOM     16  H   UNL     1      34.532 -23.257 -14.159  0.00  0.00    -0.084 HD
ENDBRANCH  12  13
ENDBRANCH  11  12
ENDBRANCH   5  11
TORSDOF 4
ENDMDL
