MODEL 1
REMARK VINA RESULT:      -5.7      0.000      0.000
REMARK  Name = 289
REMARK  2 active torsions:
REMARK  status: ('A' for Active; 'I' for Inactive)
REMARK    1  A    between atoms: C_1  and  O_7
REMARK    2  A    between atoms: C_2  and  O_9
REMARK                            x       y       z     vdW  Elec       q    Type
REMARK                         _______ _______ _______ _____ _____    ______ ____
ROOT
ATOM      1  C   UNL     1      34.860 -21.468 -19.504  0.00  0.00    +0.167 C 
ATOM      2  C   UNL     1      33.478 -21.302 -19.564  0.00  0.00    +0.167 C 
ATOM      3  C   UNL     1      35.696 -20.632 -20.245  0.00  0.00    +0.040 C 
ATOM      4  C   UNL     1      32.929 -20.300 -20.364  0.00  0.00    +0.040 C 
ATOM      5  C   UNL     1      35.148 -19.630 -21.045  0.00  0.00    +0.003 C 
ATOM      6  C   UNL     1      33.765 -19.464 -21.105  0.00  0.00    +0.003 C 
ENDROOT
BRANCH   1   7
ATOM      7  O   UNL     1      35.408 -22.443 -18.726  0.00  0.00    -0.503 OA
ATOM      8  H   UNL     1      36.195 -22.274 -18.248  0.00  0.00    +0.292 HD
ENDBRANCH   1   7
BRANCH   2   9
ATOM      9  O   UNL     1      32.651 -22.112 -18.845  0.00  0.00    -0.503 OA
ATOM     10  H   UNL     1      31.847 -22.413 -19.222  0.00  0.00    +0.292 HD
ENDBRANCH   2   9
TORSDOF 2
ENDMDL
MODEL 2
REMARK VINA RESULT:      -5.7      0.021      2.202
REMARK  Name = 289
REMARK  2 active torsions:
REMARK  status: ('A' for Active; 'I' for Inactive)
REMARK    1  A    between atoms: C_1  and  O_7
REMARK    2  A    between atoms: C_2  and  O_9
REMARK                            x       y       z     vdW  Elec       q    Type
REMARK                         _______ _______ _______ _____ _____    ______ ____
ROOT
ATOM      1  C   UNL     1      33.476 -21.298 -19.570  0.00  0.00    +0.167 C 
ATOM      2  C   UNL     1      34.857 -21.475 -19.500  0.00  0.00    +0.167 C 
ATOM      3  C   UNL     1      32.941 -20.295 -20.379  0.00  0.00    +0.040 C 
ATOM      4  C   UNL     1      35.704 -20.650 -20.239  0.00  0.00    +0.040 C 
ATOM      5  C   UNL     1      33.788 -19.470 -21.119  0.00  0.00    +0.003 C 
ATOM      6  C   UNL     1      35.169 -19.647 -21.049  0.00  0.00    +0.003 C 
ENDROOT
BRANCH   1   7
ATOM      7  O   UNL     1      32.637 -22.097 -18.853  0.00  0.00    -0.503 OA
ATOM      8  H   UNL     1      31.792 -22.314 -19.193  0.00  0.00    +0.292 HD
ENDBRANCH   1   7
BRANCH   2   9
ATOM      9  O   UNL     1      35.391 -22.450 -18.713  0.00  0.00    -0.503 OA
ATOM     10  H   UNL     1      35.319 -23.349 -18.968  0.00  0.00    +0.292 HD
ENDBRANCH   2   9
TORSDOF 2
ENDMDL
MODEL 3
REMARK VINA RESULT:      -5.4      1.137      2.395
REMARK  Name = 289
REMARK  2 active torsions:
REMARK  status: ('A' for Active; 'I' for Inactive)
REMARK    1  A    between atoms: C_1  and  O_7
REMARK    2  A    between atoms: C_2  and  O_9
REMARK                            x       y       z     vdW  Elec       q    Type
REMARK                         _______ _______ _______ _____ _____    ______ ____
ROOT
ATOM      1  C   UNL     1      33.633 -20.585 -20.278  0.00  0.00    +0.167 C 
ATOM      2  C   UNL     1      33.827 -21.630 -19.376  0.00  0.00    +0.167 C 
ATOM      3  C   UNL     1      34.732 -19.901 -20.799  0.00  0.00    +0.040 C 
ATOM      4  C   UNL     1      35.119 -21.992 -18.994  0.00  0.00    +0.040 C 
ATOM      5  C   UNL     1      36.024 -20.262 -20.417  0.00  0.00    +0.003 C 
ATOM      6  C   UNL     1      36.217 -21.307 -19.515  0.00  0.00    +0.003 C 
ENDROOT
BRANCH   1   7
ATOM      7  O   UNL     1      32.377 -20.223 -20.659  0.00  0.00    -0.503 OA
ATOM      8  H   UNL     1      31.644 -20.423 -20.111  0.00  0.00    +0.292 HD
ENDBRANCH   1   7
BRANCH   2   9
ATOM      9  O   UNL     1      32.763 -22.307 -18.860  0.00  0.00    -0.503 OA
ATOM     10  H   UNL     1      32.856 -22.786 -18.060  0.00  0.00    +0.292 HD
ENDBRANCH   2   9
TORSDOF 2
ENDMDL
MODEL 4
REMARK VINA RESULT:      -5.4      1.133      2.111
REMARK  Name = 289
REMARK  2 active torsions:
REMARK  status: ('A' for Active; 'I' for Inactive)
REMARK    1  A    between atoms: C_1  and  O_7
REMARK    2  A    between atoms: C_2  and  O_9
REMARK                            x       y       z     vdW  Elec       q    Type
REMARK                         _______ _______ _______ _____ _____    ______ ____
ROOT
ATOM      1  C   UNL     1      33.841 -21.635 -19.375  0.00  0.00    +0.167 C 
ATOM      2  C   UNL     1      33.637 -20.581 -20.265  0.00  0.00    +0.167 C 
ATOM      3  C   UNL     1      35.137 -21.995 -19.005  0.00  0.00    +0.040 C 
ATOM      4  C   UNL     1      34.729 -19.885 -20.785  0.00  0.00    +0.040 C 
ATOM      5  C   UNL     1      36.229 -21.299 -19.525  0.00  0.00    +0.003 C 
ATOM      6  C   UNL     1      36.025 -20.245 -20.414  0.00  0.00    +0.003 C 
ENDROOT
BRANCH   1   7
ATOM      7  O   UNL     1      32.783 -22.322 -18.861  0.00  0.00    -0.503 OA
ATOM      8  H   UNL     1      32.916 -22.933 -18.163  0.00  0.00    +0.292 HD
ENDBRANCH   1   7
BRANCH   2   9
ATOM      9  O   UNL     1      32.377 -20.220 -20.634  0.00  0.00    -0.503 OA
ATOM     10  H   UNL     1      31.690 -20.858 -20.642  0.00  0.00    +0.292 HD
ENDBRANCH   2   9
TORSDOF 2
ENDMDL
MODEL 5
REMARK VINA RESULT:      -5.3      0.870      2.334
REMARK  Name = 289
REMARK  2 active torsions:
REMARK  status: ('A' for Active; 'I' for Inactive)
REMARK    1  A    between atoms: C_1  and  O_7
REMARK    2  A    between atoms: C_2  and  O_9
REMARK                            x       y       z     vdW  Elec       q    Type
REMARK                         _______ _______ _______ _____ _____    ______ ____
ROOT
ATOM      1  C   UNL     1      34.559 -21.633 -19.467  0.00  0.00    +0.167 C 
ATOM      2  C   UNL     1      35.571 -20.919 -20.107  0.00  0.00    +0.167 C 
ATOM      3  C   UNL     1      33.228 -21.247 -19.620  0.00  0.00    +0.040 C 
ATOM      4  C   UNL     1      35.252 -19.817 -20.901  0.00  0.00    +0.040 C 
ATOM      5  C   UNL     1      32.909 -20.145 -20.414  0.00  0.00    +0.003 C 
ATOM      6  C   UNL     1      33.920 -19.430 -21.054  0.00  0.00    +0.003 C 
ENDROOT
BRANCH   1   7
ATOM      7  O   UNL     1      34.858 -22.711 -18.689  0.00  0.00    -0.503 OA
ATOM      8  H   UNL     1      34.637 -23.574 -18.979  0.00  0.00    +0.292 HD
ENDBRANCH   1   7
BRANCH   2   9
ATOM      9  O   UNL     1      36.875 -21.286 -19.965  0.00  0.00    -0.503 OA
ATOM     10  H   UNL     1      37.405 -20.887 -19.303  0.00  0.00    +0.292 HD
ENDBRANCH   2   9
TORSDOF 2
ENDMDL
MODEL 6
REMARK VINA RESULT:      -5.3      5.475      6.363
REMARK  Name = 289
REMARK  2 active torsions:
REMARK  status: ('A' for Active; 'I' for Inactive)
REMARK    1  A    between atoms: C_1  and  O_7
REMARK    2  A    between atoms: C_2  and  O_9
REMARK                            x       y       z     vdW  Elec       q    Type
REMARK                         _______ _______ _______ _____ _____    ______ ____
ROOT
ATOM      1  C   UNL     1      34.539 -16.988 -24.885  0.00  0.00    +0.167 C 
ATOM      2  C   UNL     1      34.939 -16.462 -23.657  0.00  0.00    +0.167 C 
ATOM      3  C   UNL     1      34.487 -18.370 -25.068  0.00  0.00    +0.040 C 
ATOM      4  C   UNL     1      35.287 -17.317 -22.611  0.00  0.00    +0.040 C 
ATOM      5  C   UNL     1      34.835 -19.225 -24.022  0.00  0.00    +0.003 C 
ATOM      6  C   UNL     1      35.235 -18.699 -22.795  0.00  0.00    +0.003 C 
ENDROOT
BRANCH   1   7
ATOM      7  O   UNL     1      34.197 -16.164 -25.914  0.00  0.00    -0.503 OA
ATOM      8  H   UNL     1      33.447 -16.359 -26.441  0.00  0.00    +0.292 HD
ENDBRANCH   1   7
BRANCH   2   9
ATOM      9  O   UNL     1      34.994 -15.114 -23.466  0.00  0.00    -0.503 OA
ATOM     10  H   UNL     1      35.588 -14.593 -23.970  0.00  0.00    +0.292 HD
ENDBRANCH   2   9
TORSDOF 2
ENDMDL
MODEL 7
REMARK VINA RESULT:      -5.3      5.477      6.259
REMARK  Name = 289
REMARK  2 active torsions:
REMARK  status: ('A' for Active; 'I' for Inactive)
REMARK    1  A    between atoms: C_1  and  O_7
REMARK    2  A    between atoms: C_2  and  O_9
REMARK                            x       y       z     vdW  Elec       q    Type
REMARK                         _______ _______ _______ _____ _____    ______ ____
ROOT
ATOM      1  C   UNL     1      34.939 -16.461 -23.661  0.00  0.00    +0.167 C 
ATOM      2  C   UNL     1      34.542 -16.988 -24.888  0.00  0.00    +0.167 C 
ATOM      3  C   UNL     1      35.286 -17.314 -22.613  0.00  0.00    +0.040 C 
ATOM      4  C   UNL     1      34.491 -18.371 -25.070  0.00  0.00    +0.040 C 
ATOM      5  C   UNL     1      35.235 -18.697 -22.795  0.00  0.00    +0.003 C 
ATOM      6  C   UNL     1      34.837 -19.225 -24.023  0.00  0.00    +0.003 C 
ENDROOT
BRANCH   1   7
ATOM      7  O   UNL     1      34.993 -15.113 -23.471  0.00  0.00    -0.503 OA
ATOM      8  H   UNL     1      35.821 -14.675 -23.450  0.00  0.00    +0.292 HD
ENDBRANCH   1   7
BRANCH   2   9
ATOM      9  O   UNL     1      34.200 -16.165 -25.919  0.00  0.00    -0.503 OA
ATOM     10  H   UNL     1      34.798 -16.032 -26.629  0.00  0.00    +0.292 HD
ENDBRANCH   2   9
TORSDOF 2
ENDMDL
MODEL 8
REMARK VINA RESULT:      -5.2      1.751      2.922
REMARK  Name = 289
REMARK  2 active torsions:
REMARK  status: ('A' for Active; 'I' for Inactive)
REMARK    1  A    between atoms: C_1  and  O_7
REMARK    2  A    between atoms: C_2  and  O_9
REMARK                            x       y       z     vdW  Elec       q    Type
REMARK                         _______ _______ _______ _____ _____    ______ ____
ROOT
ATOM      1  C   UNL     1      35.294 -19.715 -20.791  0.00  0.00    +0.167 C 
ATOM      2  C   UNL     1      35.533 -20.836 -19.998  0.00  0.00    +0.167 C 
ATOM      3  C   UNL     1      33.985 -19.324 -21.072  0.00  0.00    +0.040 C 
ATOM      4  C   UNL     1      34.462 -21.568 -19.484  0.00  0.00    +0.040 C 
ATOM      5  C   UNL     1      32.914 -20.056 -20.559  0.00  0.00    +0.003 C 
ATOM      6  C   UNL     1      33.152 -21.177 -19.765  0.00  0.00    +0.003 C 
ENDROOT
BRANCH   1   7
ATOM      7  O   UNL     1      36.331 -18.992 -21.299  0.00  0.00    -0.503 OA
ATOM      8  H   UNL     1      37.076 -19.430 -21.660  0.00  0.00    +0.292 HD
ENDBRANCH   1   7
BRANCH   2   9
ATOM      9  O   UNL     1      36.807 -21.227 -19.716  0.00  0.00    -0.503 OA
ATOM     10  H   UNL     1      36.972 -21.797 -18.990  0.00  0.00    +0.292 HD
ENDBRANCH   2   9
TORSDOF 2
ENDMDL
MODEL 9
REMARK VINA RESULT:      -5.2      4.338      5.095
REMARK  Name = 289
REMARK  2 active torsions:
REMARK  status: ('A' for Active; 'I' for Inactive)
REMARK    1  A    between atoms: C_1  and  O_7
REMARK    2  A    between atoms: C_2  and  O_9
REMARK                            x       y       z     vdW  Elec       q    Type
REMARK                         _______ _______ _______ _____ _____    ______ ____
ROOT
ATOM      1  C   UNL     1      35.061 -16.780 -22.873  0.00  0.00    +0.167 C 
ATOM      2  C   UNL     1      34.977 -17.117 -21.523  0.00  0.00    +0.167 C 
ATOM      3  C   UNL     1      34.997 -17.777 -23.847  0.00  0.00    +0.040 C 
ATOM      4  C   UNL     1      34.830 -18.452 -21.145  0.00  0.00    +0.040 C 
ATOM      5  C   UNL     1      34.850 -19.112 -23.468  0.00  0.00    +0.003 C 
ATOM      6  C   UNL     1      34.767 -19.449 -22.118  0.00  0.00    +0.003 C 
ENDROOT
BRANCH   1   7
ATOM      7  O   UNL     1      35.204 -15.480 -23.256  0.00  0.00    -0.503 OA
ATOM      8  H   UNL     1      35.796 -14.919 -22.795  0.00  0.00    +0.292 HD
ENDBRANCH   1   7
BRANCH   2   9
ATOM      9  O   UNL     1      35.038 -16.152 -20.563  0.00  0.00    -0.503 OA
ATOM     10  H   UNL     1      35.169 -15.257 -20.807  0.00  0.00    +0.292 HD
ENDBRANCH   2   9
TORSDOF 2
ENDMDL
