MODEL 1
REMARK VINA RESULT:      -7.6      0.000      0.000
REMARK  Name = 397
REMARK  2 active torsions:
REMARK  status: ('A' for Active; 'I' for Inactive)
REMARK    1  A    between atoms: C_3  and  C_11
REMARK    2  A    between atoms: C_11  and  C_14
REMARK                            x       y       z     vdW  Elec       q    Type
REMARK                         _______ _______ _______ _____ _____    ______ ____
ROOT
ATOM      1  N   UNL     1      36.753 -20.018 -20.248  0.00  0.00    -0.312 N 
ATOM      2  C   UNL     1      34.582 -19.793 -20.704  0.00  0.00    +0.011 C 
ATOM      3  C   UNL     1      35.305 -18.763 -21.369  0.00  0.00    +0.003 C 
ATOM      4  C   UNL     1      35.513 -20.566 -20.009  0.00  0.00    +0.048 C 
ATOM      5  C   UNL     1      36.638 -18.928 -21.069  0.00  0.00    +0.058 C 
ATOM      6  C   UNL     1      33.218 -20.142 -20.627  0.00  0.00    +0.001 C 
ATOM      7  C   UNL     1      35.149 -21.675 -19.237  0.00  0.00    +0.015 C 
ATOM      8  C   UNL     1      32.839 -21.249 -19.860  0.00  0.00    +0.000 C 
ATOM      9  C   UNL     1      33.792 -22.002 -19.175  0.00  0.00    +0.001 C 
ATOM     10  H   UNL     1      37.601 -20.361 -19.882  0.00  0.00    +0.152 HD
ENDROOT
BRANCH   3  11
ATOM     11  C   UNL     1      34.739 -17.704 -22.229  0.00  0.00    +0.112 C 
BRANCH  11  14
ATOM     12  O   UNL     1      34.802 -19.071 -24.235  0.00  0.00    -0.275 OA
ATOM     13  N   UNL     1      35.295 -16.834 -24.417  0.00  0.00    -0.329 N 
ATOM     14  C   UNL     1      34.944 -17.968 -23.715  0.00  0.00    +0.224 C 
ATOM     15  H   UNL     1      35.454 -16.885 -25.387  0.00  0.00    +0.145 HD
ATOM     16  H   UNL     1      35.389 -15.973 -23.948  0.00  0.00    +0.145 HD
ENDBRANCH  11  14
ENDBRANCH   3  11
TORSDOF 2
ENDMDL
MODEL 2
REMARK VINA RESULT:      -7.5      1.696      1.818
REMARK  Name = 397
REMARK  2 active torsions:
REMARK  status: ('A' for Active; 'I' for Inactive)
REMARK    1  A    between atoms: C_3  and  C_11
REMARK    2  A    between atoms: C_11  and  C_14
REMARK                            x       y       z     vdW  Elec       q    Type
REMARK                         _______ _______ _______ _____ _____    ______ ____
ROOT
ATOM      1  N   UNL     1      36.811 -20.170 -20.203  0.00  0.00    -0.312 N 
ATOM      2  C   UNL     1      34.714 -19.651 -20.757  0.00  0.00    +0.011 C 
ATOM      3  C   UNL     1      35.598 -18.700 -21.341  0.00  0.00    +0.003 C 
ATOM      4  C   UNL     1      35.500 -20.561 -20.049  0.00  0.00    +0.048 C 
ATOM      5  C   UNL     1      36.881 -19.047 -20.983  0.00  0.00    +0.058 C 
ATOM      6  C   UNL     1      33.315 -19.823 -20.763  0.00  0.00    +0.001 C 
ATOM      7  C   UNL     1      34.956 -21.640 -19.344  0.00  0.00    +0.015 C 
ATOM      8  C   UNL     1      32.757 -20.898 -20.063  0.00  0.00    +0.000 C 
ATOM      9  C   UNL     1      33.567 -21.791 -19.364  0.00  0.00    +0.001 C 
ATOM     10  H   UNL     1      37.587 -20.632 -19.810  0.00  0.00    +0.152 HD
ENDROOT
BRANCH   3  11
ATOM     11  C   UNL     1      35.219 -17.547 -22.184  0.00  0.00    +0.112 C 
BRANCH  11  14
ATOM     12  O   UNL     1      35.053 -16.152 -20.203  0.00  0.00    -0.275 OA
ATOM     13  N   UNL     1      33.942 -15.494 -22.103  0.00  0.00    -0.329 N 
ATOM     14  C   UNL     1      34.745 -16.346 -21.375  0.00  0.00    +0.224 C 
ATOM     15  H   UNL     1      33.576 -14.682 -21.682  0.00  0.00    +0.145 HD
ATOM     16  H   UNL     1      33.732 -15.697 -23.044  0.00  0.00    +0.145 HD
ENDBRANCH  11  14
ENDBRANCH   3  11
TORSDOF 2
ENDMDL
MODEL 3
REMARK VINA RESULT:      -7.5      2.025      2.696
REMARK  Name = 397
REMARK  2 active torsions:
REMARK  status: ('A' for Active; 'I' for Inactive)
REMARK    1  A    between atoms: C_3  and  C_11
REMARK    2  A    between atoms: C_11  and  C_14
REMARK                            x       y       z     vdW  Elec       q    Type
REMARK                         _______ _______ _______ _____ _____    ______ ____
ROOT
ATOM      1  N   UNL     1      32.638 -20.629 -20.326  0.00  0.00    -0.312 N 
ATOM      2  C   UNL     1      34.850 -20.352 -20.379  0.00  0.00    +0.011 C 
ATOM      3  C   UNL     1      34.249 -19.472 -21.322  0.00  0.00    +0.003 C 
ATOM      4  C   UNL     1      33.818 -21.066 -19.768  0.00  0.00    +0.048 C 
ATOM      5  C   UNL     1      32.887 -19.666 -21.266  0.00  0.00    +0.058 C 
ATOM      6  C   UNL     1      36.179 -20.610 -19.987  0.00  0.00    +0.001 C 
ATOM      7  C   UNL     1      34.048 -22.029 -18.780  0.00  0.00    +0.015 C 
ATOM      8  C   UNL     1      36.425 -21.570 -18.999  0.00  0.00    +0.000 C 
ATOM      9  C   UNL     1      35.374 -22.269 -18.407  0.00  0.00    +0.001 C 
ATOM     10  H   UNL     1      31.743 -20.961 -20.083  0.00  0.00    +0.152 HD
ENDROOT
BRANCH   3  11
ATOM     11  C   UNL     1      34.949 -18.517 -22.206  0.00  0.00    +0.112 C 
BRANCH  11  14
ATOM     12  O   UNL     1      35.276 -16.890 -20.433  0.00  0.00    -0.275 OA
ATOM     13  N   UNL     1      34.848 -16.125 -22.558  0.00  0.00    -0.329 N 
ATOM     14  C   UNL     1      35.043 -17.115 -21.617  0.00  0.00    +0.224 C 
ATOM     15  H   UNL     1      34.887 -15.179 -22.290  0.00  0.00    +0.145 HD
ATOM     16  H   UNL     1      34.670 -16.365 -23.496  0.00  0.00    +0.145 HD
ENDBRANCH  11  14
ENDBRANCH   3  11
TORSDOF 2
ENDMDL
MODEL 4
REMARK VINA RESULT:      -7.2      2.216      4.970
REMARK  Name = 397
REMARK  2 active torsions:
REMARK  status: ('A' for Active; 'I' for Inactive)
REMARK    1  A    between atoms: C_3  and  C_11
REMARK    2  A    between atoms: C_11  and  C_14
REMARK                            x       y       z     vdW  Elec       q    Type
REMARK                         _______ _______ _______ _____ _____    ______ ____
ROOT
ATOM      1  N   UNL     1      34.881 -18.227 -23.900  0.00  0.00    -0.312 N 
ATOM      2  C   UNL     1      34.650 -17.566 -21.782  0.00  0.00    +0.011 C 
ATOM      3  C   UNL     1      34.726 -18.987 -21.821  0.00  0.00    +0.003 C 
ATOM      4  C   UNL     1      34.749 -17.115 -23.099  0.00  0.00    +0.048 C 
ATOM      5  C   UNL     1      34.868 -19.363 -23.137  0.00  0.00    +0.058 C 
ATOM      6  C   UNL     1      34.504 -16.618 -20.749  0.00  0.00    +0.001 C 
ATOM      7  C   UNL     1      34.711 -15.757 -23.437  0.00  0.00    +0.015 C 
ATOM      8  C   UNL     1      34.465 -15.258 -21.072  0.00  0.00    +0.000 C 
ATOM      9  C   UNL     1      34.566 -14.836 -22.397  0.00  0.00    +0.001 C 
ATOM     10  H   UNL     1      34.972 -18.208 -24.881  0.00  0.00    +0.152 HD
ENDROOT
BRANCH   3  11
ATOM     11  C   UNL     1      34.667 -19.903 -20.663  0.00  0.00    +0.112 C 
BRANCH  11  14
ATOM     12  O   UNL     1      32.262 -20.028 -20.974  0.00  0.00    -0.275 OA
ATOM     13  N   UNL     1      33.236 -21.395 -19.405  0.00  0.00    -0.329 N 
ATOM     14  C   UNL     1      33.263 -20.424 -20.384  0.00  0.00    +0.224 C 
ATOM     15  H   UNL     1      32.381 -21.805 -19.142  0.00  0.00    +0.145 HD
ATOM     16  H   UNL     1      34.073 -21.678 -18.969  0.00  0.00    +0.145 HD
ENDBRANCH  11  14
ENDBRANCH   3  11
TORSDOF 2
ENDMDL
MODEL 5
REMARK VINA RESULT:      -7.2      3.422      4.697
REMARK  Name = 397
REMARK  2 active torsions:
REMARK  status: ('A' for Active; 'I' for Inactive)
REMARK    1  A    between atoms: C_3  and  C_11
REMARK    2  A    between atoms: C_11  and  C_14
REMARK                            x       y       z     vdW  Elec       q    Type
REMARK                         _______ _______ _______ _____ _____    ______ ____
ROOT
ATOM      1  N   UNL     1      34.850 -17.132 -21.072  0.00  0.00    -0.312 N 
ATOM      2  C   UNL     1      34.588 -16.576 -23.216  0.00  0.00    +0.011 C 
ATOM      3  C   UNL     1      34.519 -15.399 -22.419  0.00  0.00    +0.003 C 
ATOM      4  C   UNL     1      34.796 -17.649 -22.347  0.00  0.00    +0.048 C 
ATOM      5  C   UNL     1      34.683 -15.774 -21.105  0.00  0.00    +0.058 C 
ATOM      6  C   UNL     1      34.493 -16.832 -24.599  0.00  0.00    +0.001 C 
ATOM      7  C   UNL     1      34.915 -18.970 -22.793  0.00  0.00    +0.015 C 
ATOM      8  C   UNL     1      34.610 -18.148 -25.059  0.00  0.00    +0.000 C 
ATOM      9  C   UNL     1      34.817 -19.199 -24.168  0.00  0.00    +0.001 C 
ATOM     10  H   UNL     1      34.989 -17.663 -20.254  0.00  0.00    +0.152 HD
ENDROOT
BRANCH   3  11
ATOM     11  C   UNL     1      34.309 -14.019 -22.903  0.00  0.00    +0.112 C 
BRANCH  11  14
ATOM     12  O   UNL     1      32.583 -13.900 -24.607  0.00  0.00    -0.275 OA
ATOM     13  N   UNL     1      32.014 -13.414 -22.434  0.00  0.00    -0.329 N 
ATOM     14  C   UNL     1      32.900 -13.777 -23.427  0.00  0.00    +0.224 C 
ATOM     15  H   UNL     1      31.073 -13.231 -22.658  0.00  0.00    +0.145 HD
ATOM     16  H   UNL     1      32.324 -13.335 -21.503  0.00  0.00    +0.145 HD
ENDBRANCH  11  14
ENDBRANCH   3  11
TORSDOF 2
ENDMDL
MODEL 6
REMARK VINA RESULT:      -7.2      2.064      4.946
REMARK  Name = 397
REMARK  2 active torsions:
REMARK  status: ('A' for Active; 'I' for Inactive)
REMARK    1  A    between atoms: C_3  and  C_11
REMARK    2  A    between atoms: C_11  and  C_14
REMARK                            x       y       z     vdW  Elec       q    Type
REMARK                         _______ _______ _______ _____ _____    ______ ____
ROOT
ATOM      1  N   UNL     1      34.991 -16.298 -21.676  0.00  0.00    -0.312 N 
ATOM      2  C   UNL     1      34.800 -18.206 -22.816  0.00  0.00    +0.011 C 
ATOM      3  C   UNL     1      34.964 -18.504 -21.433  0.00  0.00    +0.003 C 
ATOM      4  C   UNL     1      34.821 -16.816 -22.940  0.00  0.00    +0.048 C 
ATOM      5  C   UNL     1      35.079 -17.310 -20.759  0.00  0.00    +0.058 C 
ATOM      6  C   UNL     1      34.637 -18.990 -23.976  0.00  0.00    +0.001 C 
ATOM      7  C   UNL     1      34.685 -16.167 -24.173  0.00  0.00    +0.015 C 
ATOM      8  C   UNL     1      34.500 -18.354 -25.215  0.00  0.00    +0.000 C 
ATOM      9  C   UNL     1      34.525 -16.964 -25.309  0.00  0.00    +0.001 C 
ATOM     10  H   UNL     1      35.042 -15.338 -21.463  0.00  0.00    +0.152 HD
ENDROOT
BRANCH   3  11
ATOM     11  C   UNL     1      35.004 -19.848 -20.821  0.00  0.00    +0.112 C 
BRANCH  11  14
ATOM     12  O   UNL     1      32.577 -19.839 -20.732  0.00  0.00    -0.275 OA
ATOM     13  N   UNL     1      33.714 -21.402 -19.489  0.00  0.00    -0.329 N 
ATOM     14  C   UNL     1      33.637 -20.336 -20.360  0.00  0.00    +0.224 C 
ATOM     15  H   UNL     1      32.891 -21.801 -19.125  0.00  0.00    +0.145 HD
ATOM     16  H   UNL     1      34.593 -21.764 -19.230  0.00  0.00    +0.145 HD
ENDBRANCH  11  14
ENDBRANCH   3  11
TORSDOF 2
ENDMDL
MODEL 7
REMARK VINA RESULT:      -7.1      2.085      4.985
REMARK  Name = 397
REMARK  2 active torsions:
REMARK  status: ('A' for Active; 'I' for Inactive)
REMARK    1  A    between atoms: C_3  and  C_11
REMARK    2  A    between atoms: C_11  and  C_14
REMARK                            x       y       z     vdW  Elec       q    Type
REMARK                         _______ _______ _______ _____ _____    ______ ____
ROOT
ATOM      1  N   UNL     1      34.976 -18.110 -24.003  0.00  0.00    -0.312 N 
ATOM      2  C   UNL     1      34.566 -17.491 -21.900  0.00  0.00    +0.011 C 
ATOM      3  C   UNL     1      34.637 -18.911 -21.962  0.00  0.00    +0.003 C 
ATOM      4  C   UNL     1      34.783 -17.014 -23.194  0.00  0.00    +0.048 C 
ATOM      5  C   UNL     1      34.890 -19.261 -23.268  0.00  0.00    +0.058 C 
ATOM      6  C   UNL     1      34.338 -16.563 -20.864  0.00  0.00    +0.001 C 
ATOM      7  C   UNL     1      34.782 -15.649 -23.506  0.00  0.00    +0.015 C 
ATOM      8  C   UNL     1      34.335 -15.196 -21.161  0.00  0.00    +0.000 C 
ATOM      9  C   UNL     1      34.553 -14.748 -22.462  0.00  0.00    +0.001 C 
ATOM     10  H   UNL     1      35.152 -18.072 -24.972  0.00  0.00    +0.152 HD
ENDROOT
BRANCH   3  11
ATOM     11  C   UNL     1      34.471 -19.850 -20.833  0.00  0.00    +0.112 C 
BRANCH  11  14
ATOM     12  O   UNL     1      36.776 -19.622 -20.103  0.00  0.00    -0.275 OA
ATOM     13  N   UNL     1      35.776 -21.685 -19.946  0.00  0.00    -0.329 N 
ATOM     14  C   UNL     1      35.796 -20.343 -20.266  0.00  0.00    +0.224 C 
ATOM     15  H   UNL     1      36.580 -22.113 -19.572  0.00  0.00    +0.145 HD
ATOM     16  H   UNL     1      34.959 -22.214 -20.094  0.00  0.00    +0.145 HD
ENDBRANCH  11  14
ENDBRANCH   3  11
TORSDOF 2
ENDMDL
MODEL 8
REMARK VINA RESULT:      -7.0      2.784      4.904
REMARK  Name = 397
REMARK  2 active torsions:
REMARK  status: ('A' for Active; 'I' for Inactive)
REMARK    1  A    between atoms: C_3  and  C_11
REMARK    2  A    between atoms: C_11  and  C_14
REMARK                            x       y       z     vdW  Elec       q    Type
REMARK                         _______ _______ _______ _____ _____    ______ ____
ROOT
ATOM      1  N   UNL     1      36.809 -20.607 -19.719  0.00  0.00    -0.312 N 
ATOM      2  C   UNL     1      34.846 -20.084 -20.639  0.00  0.00    +0.011 C 
ATOM      3  C   UNL     1      34.646 -21.098 -19.660  0.00  0.00    +0.003 C 
ATOM      4  C   UNL     1      36.211 -19.794 -20.655  0.00  0.00    +0.048 C 
ATOM      5  C   UNL     1      35.872 -21.398 -19.112  0.00  0.00    +0.058 C 
ATOM      6  C   UNL     1      33.993 -19.384 -21.515  0.00  0.00    +0.001 C 
ATOM      7  C   UNL     1      36.769 -18.835 -21.508  0.00  0.00    +0.015 C 
ATOM      8  C   UNL     1      34.536 -18.421 -22.373  0.00  0.00    +0.000 C 
ATOM      9  C   UNL     1      35.904 -18.153 -22.368  0.00  0.00    +0.001 C 
ATOM     10  H   UNL     1      37.773 -20.616 -19.514  0.00  0.00    +0.152 HD
ENDROOT
BRANCH   3  11
ATOM     11  C   UNL     1      33.359 -21.722 -19.290  0.00  0.00    +0.112 C 
BRANCH  11  14
ATOM     12  O   UNL     1      33.852 -24.096 -19.159  0.00  0.00    -0.275 OA
ATOM     13  N   UNL     1      33.280 -22.988 -17.229  0.00  0.00    -0.329 N 
ATOM     14  C   UNL     1      33.525 -23.062 -18.584  0.00  0.00    +0.224 C 
ATOM     15  H   UNL     1      33.357 -23.795 -16.671  0.00  0.00    +0.145 HD
ATOM     16  H   UNL     1      33.026 -22.128 -16.821  0.00  0.00    +0.145 HD
ENDBRANCH  11  14
ENDBRANCH   3  11
TORSDOF 2
ENDMDL
MODEL 9
REMARK VINA RESULT:      -7.0      4.560      5.828
REMARK  Name = 397
REMARK  2 active torsions:
REMARK  status: ('A' for Active; 'I' for Inactive)
REMARK    1  A    between atoms: C_3  and  C_11
REMARK    2  A    between atoms: C_11  and  C_14
REMARK                            x       y       z     vdW  Elec       q    Type
REMARK                         _______ _______ _______ _____ _____    ______ ____
ROOT
ATOM      1  N   UNL     1      35.183 -16.686 -24.041  0.00  0.00    -0.312 N 
ATOM      2  C   UNL     1      33.601 -15.186 -23.570  0.00  0.00    +0.011 C 
ATOM      3  C   UNL     1      33.643 -15.391 -24.978  0.00  0.00    +0.003 C 
ATOM      4  C   UNL     1      34.577 -16.010 -23.006  0.00  0.00    +0.048 C 
ATOM      5  C   UNL     1      34.626 -16.319 -25.236  0.00  0.00    +0.058 C 
ATOM      6  C   UNL     1      32.824 -14.375 -22.719  0.00  0.00    +0.001 C 
ATOM      7  C   UNL     1      34.816 -16.064 -21.628  0.00  0.00    +0.015 C 
ATOM      8  C   UNL     1      33.051 -14.419 -21.339  0.00  0.00    +0.000 C 
ATOM      9  C   UNL     1      34.033 -15.251 -20.804  0.00  0.00    +0.001 C 
ATOM     10  H   UNL     1      35.912 -17.340 -23.936  0.00  0.00    +0.152 HD
ENDROOT
BRANCH   3  11
ATOM     11  C   UNL     1      32.790 -14.734 -25.989  0.00  0.00    +0.112 C 
BRANCH  11  14
ATOM     12  O   UNL     1      33.911 -13.631 -27.839  0.00  0.00    -0.275 OA
ATOM     13  N   UNL     1      33.562 -12.442 -25.903  0.00  0.00    -0.329 N 
ATOM     14  C   UNL     1      33.481 -13.572 -26.690  0.00  0.00    +0.224 C 
ATOM     15  H   UNL     1      33.990 -11.628 -26.254  0.00  0.00    +0.145 HD
ATOM     16  H   UNL     1      33.194 -12.451 -24.990  0.00  0.00    +0.145 HD
ENDBRANCH  11  14
ENDBRANCH   3  11
TORSDOF 2
ENDMDL
