MODEL 1
REMARK VINA RESULT:      -5.9      0.000      0.000
REMARK  Name = 64685
REMARK  1 active torsions:
REMARK  status: ('A' for Active; 'I' for Inactive)
REMARK    1  A    between atoms: C_4  and  O_11
REMARK                            x       y       z     vdW  Elec       q    Type
REMARK                         _______ _______ _______ _____ _____    ______ ____
ROOT
ATOM      1  C   UNL     1      37.161 -24.650 -14.558  0.00  0.00    +0.025 C 
ATOM      2  C   UNL     1      36.934 -24.473 -13.026  0.00  0.00    +0.002 C 
ATOM      3  C   UNL     1      37.777 -25.741 -12.717  0.00  0.00    +0.002 C 
ATOM      4  C   UNL     1      36.630 -26.093 -14.810  0.00  0.00    +0.110 C 
ATOM      5  C   UNL     1      38.712 -24.686 -14.673  0.00  0.00    +0.002 C 
ATOM      6  C   UNL     1      37.092 -26.851 -13.551  0.00  0.00    +0.029 C 
ATOM      7  C   UNL     1      39.129 -25.451 -13.406  0.00  0.00    +0.000 C 
ATOM      8  C   UNL     1      36.533 -23.611 -15.468  0.00  0.00    +0.002 C 
ATOM      9  C   UNL     1      35.469 -24.561 -12.553  0.00  0.00    +0.000 C 
ATOM     10  C   UNL     1      37.504 -23.177 -12.415  0.00  0.00    +0.000 C 
ENDROOT
BRANCH   4  11
ATOM     11  O   UNL     1      37.161 -26.694 -15.979  0.00  0.00    -0.384 OA
ATOM     12  H   UNL     1      37.215 -26.031 -16.686  0.00  0.00    +0.210 HD
ENDBRANCH   4  11
TORSDOF 1
ENDMDL
MODEL 2
REMARK VINA RESULT:      -5.8      1.526      3.054
REMARK  Name = 64685
REMARK  1 active torsions:
REMARK  status: ('A' for Active; 'I' for Inactive)
REMARK    1  A    between atoms: C_4  and  O_11
REMARK                            x       y       z     vdW  Elec       q    Type
REMARK                         _______ _______ _______ _____ _____    ______ ____
ROOT
ATOM      1  C   UNL     1      37.376 -24.536 -13.261  0.00  0.00    +0.025 C 
ATOM      2  C   UNL     1      37.881 -24.504 -14.736  0.00  0.00    +0.002 C 
ATOM      3  C   UNL     1      36.906 -25.645 -15.134  0.00  0.00    +0.002 C 
ATOM      4  C   UNL     1      37.613 -26.022 -12.859  0.00  0.00    +0.110 C 
ATOM      5  C   UNL     1      35.842 -24.325 -13.421  0.00  0.00    +0.002 C 
ATOM      6  C   UNL     1      37.251 -26.786 -14.146  0.00  0.00    +0.029 C 
ATOM      7  C   UNL     1      35.524 -25.104 -14.708  0.00  0.00    +0.000 C 
ATOM      8  C   UNL     1      38.003 -23.544 -12.300  0.00  0.00    +0.002 C 
ATOM      9  C   UNL     1      39.370 -24.849 -14.938  0.00  0.00    +0.000 C 
ATOM     10  C   UNL     1      37.642 -23.182 -15.493  0.00  0.00    +0.000 C 
ENDROOT
BRANCH   4  11
ATOM     11  O   UNL     1      36.803 -26.450 -11.778  0.00  0.00    -0.384 OA
ATOM     12  H   UNL     1      36.483 -25.676 -11.288  0.00  0.00    +0.210 HD
ENDBRANCH   4  11
TORSDOF 1
ENDMDL
MODEL 3
REMARK VINA RESULT:      -5.6      1.701      2.886
REMARK  Name = 64685
REMARK  1 active torsions:
REMARK  status: ('A' for Active; 'I' for Inactive)
REMARK    1  A    between atoms: C_4  and  O_11
REMARK                            x       y       z     vdW  Elec       q    Type
REMARK                         _______ _______ _______ _____ _____    ______ ____
ROOT
ATOM      1  C   UNL     1      36.479 -25.157 -13.924  0.00  0.00    +0.025 C 
ATOM      2  C   UNL     1      37.623 -24.154 -14.262  0.00  0.00    +0.002 C 
ATOM      3  C   UNL     1      37.782 -23.774 -12.764  0.00  0.00    +0.002 C 
ATOM      4  C   UNL     1      35.454 -24.255 -13.173  0.00  0.00    +0.110 C 
ATOM      5  C   UNL     1      37.144 -26.096 -12.877  0.00  0.00    +0.002 C 
ATOM      6  C   UNL     1      36.361 -23.327 -12.344  0.00  0.00    +0.029 C 
ATOM      7  C   UNL     1      38.032 -25.133 -12.073  0.00  0.00    +0.000 C 
ATOM      8  C   UNL     1      35.870 -25.919 -15.086  0.00  0.00    +0.002 C 
ATOM      9  C   UNL     1      37.229 -22.973 -15.171  0.00  0.00    +0.000 C 
ATOM     10  C   UNL     1      38.887 -24.774 -14.890  0.00  0.00    +0.000 C 
ENDROOT
BRANCH   4  11
ATOM     11  O   UNL     1      34.576 -24.980 -12.329  0.00  0.00    -0.384 OA
ATOM     12  H   UNL     1      34.959 -25.852 -12.137  0.00  0.00    +0.210 HD
ENDBRANCH   4  11
TORSDOF 1
ENDMDL
MODEL 4
REMARK VINA RESULT:      -5.6     18.841     20.101
REMARK  Name = 64685
REMARK  1 active torsions:
REMARK  status: ('A' for Active; 'I' for Inactive)
REMARK    1  A    between atoms: C_4  and  O_11
REMARK                            x       y       z     vdW  Elec       q    Type
REMARK                         _______ _______ _______ _____ _____    ______ ____
ROOT
ATOM      1  C   UNL     1      33.352  -7.613 -23.430  0.00  0.00    +0.025 C 
ATOM      2  C   UNL     1      31.925  -7.046 -23.160  0.00  0.00    +0.002 C 
ATOM      3  C   UNL     1      31.634  -8.168 -22.127  0.00  0.00    +0.002 C 
ATOM      4  C   UNL     1      33.054  -9.084 -23.849  0.00  0.00    +0.110 C 
ATOM      5  C   UNL     1      33.984  -7.641 -22.009  0.00  0.00    +0.002 C 
ATOM      6  C   UNL     1      31.890  -9.474 -22.918  0.00  0.00    +0.029 C 
ATOM      7  C   UNL     1      32.796  -8.037 -21.117  0.00  0.00    +0.000 C 
ATOM      8  C   UNL     1      34.208  -6.864 -24.434  0.00  0.00    +0.002 C 
ATOM      9  C   UNL     1      30.969  -7.042 -24.370  0.00  0.00    +0.000 C 
ATOM     10  C   UNL     1      31.876  -5.622 -22.571  0.00  0.00    +0.000 C 
ENDROOT
BRANCH   4  11
ATOM     11  O   UNL     1      34.154  -9.957 -23.666  0.00  0.00    -0.384 OA
ATOM     12  H   UNL     1      34.815  -9.793 -24.358  0.00  0.00    +0.210 HD
ENDBRANCH   4  11
TORSDOF 1
ENDMDL
MODEL 5
REMARK VINA RESULT:      -5.4      1.620      2.495
REMARK  Name = 64685
REMARK  1 active torsions:
REMARK  status: ('A' for Active; 'I' for Inactive)
REMARK    1  A    between atoms: C_4  and  O_11
REMARK                            x       y       z     vdW  Elec       q    Type
REMARK                         _______ _______ _______ _____ _____    ______ ____
ROOT
ATOM      1  C   UNL     1      37.373 -23.968 -14.120  0.00  0.00    +0.025 C 
ATOM      2  C   UNL     1      36.061 -24.806 -14.037  0.00  0.00    +0.002 C 
ATOM      3  C   UNL     1      36.447 -25.342 -12.632  0.00  0.00    +0.002 C 
ATOM      4  C   UNL     1      38.474 -25.050 -13.907  0.00  0.00    +0.110 C 
ATOM      5  C   UNL     1      37.305 -23.098 -12.833  0.00  0.00    +0.002 C 
ATOM      6  C   UNL     1      37.843 -25.975 -12.850  0.00  0.00    +0.029 C 
ATOM      7  C   UNL     1      36.677 -24.056 -11.807  0.00  0.00    +0.000 C 
ATOM      8  C   UNL     1      37.578 -23.140 -15.374  0.00  0.00    +0.002 C 
ATOM      9  C   UNL     1      35.902 -25.905 -15.107  0.00  0.00    +0.000 C 
ATOM     10  C   UNL     1      34.750 -23.994 -14.061  0.00  0.00    +0.000 C 
ENDROOT
BRANCH   4  11
ATOM     11  O   UNL     1      39.702 -24.521 -13.440  0.00  0.00    -0.384 OA
ATOM     12  H   UNL     1      39.534 -23.700 -12.949  0.00  0.00    +0.210 HD
ENDBRANCH   4  11
TORSDOF 1
ENDMDL
MODEL 6
REMARK VINA RESULT:      -5.3      1.113      2.559
REMARK  Name = 64685
REMARK  1 active torsions:
REMARK  status: ('A' for Active; 'I' for Inactive)
REMARK    1  A    between atoms: C_4  and  O_11
REMARK                            x       y       z     vdW  Elec       q    Type
REMARK                         _______ _______ _______ _____ _____    ______ ____
ROOT
ATOM      1  C   UNL     1      37.323 -25.114 -13.781  0.00  0.00    +0.025 C 
ATOM      2  C   UNL     1      37.001 -23.591 -13.715  0.00  0.00    +0.002 C 
ATOM      3  C   UNL     1      35.491 -23.881 -13.497  0.00  0.00    +0.002 C 
ATOM      4  C   UNL     1      36.388 -25.604 -14.927  0.00  0.00    +0.110 C 
ATOM      5  C   UNL     1      36.747 -25.644 -12.437  0.00  0.00    +0.002 C 
ATOM      6  C   UNL     1      35.110 -24.775 -14.701  0.00  0.00    +0.029 C 
ATOM      7  C   UNL     1      35.477 -24.798 -12.254  0.00  0.00    +0.000 C 
ATOM      8  C   UNL     1      38.776 -25.499 -13.984  0.00  0.00    +0.002 C 
ATOM      9  C   UNL     1      37.308 -22.787 -14.994  0.00  0.00    +0.000 C 
ATOM     10  C   UNL     1      37.665 -22.820 -12.556  0.00  0.00    +0.000 C 
ENDROOT
BRANCH   4  11
ATOM     11  O   UNL     1      36.101 -26.991 -14.868  0.00  0.00    -0.384 OA
ATOM     12  H   UNL     1      35.413 -27.206 -15.517  0.00  0.00    +0.210 HD
ENDBRANCH   4  11
TORSDOF 1
ENDMDL
MODEL 7
REMARK VINA RESULT:      -5.3     19.217     20.451
REMARK  Name = 64685
REMARK  1 active torsions:
REMARK  status: ('A' for Active; 'I' for Inactive)
REMARK    1  A    between atoms: C_4  and  O_11
REMARK                            x       y       z     vdW  Elec       q    Type
REMARK                         _______ _______ _______ _____ _____    ______ ____
ROOT
ATOM      1  C   UNL     1      32.267  -7.162 -23.486  0.00  0.00    +0.025 C 
ATOM      2  C   UNL     1      33.464  -8.141 -23.289  0.00  0.00    +0.002 C 
ATOM      3  C   UNL     1      32.861  -8.670 -21.959  0.00  0.00    +0.002 C 
ATOM      4  C   UNL     1      32.290  -6.336 -22.165  0.00  0.00    +0.110 C 
ATOM      5  C   UNL     1      31.036  -8.112 -23.432  0.00  0.00    +0.002 C 
ATOM      6  C   UNL     1      32.664  -7.392 -21.109  0.00  0.00    +0.029 C 
ATOM      7  C   UNL     1      31.448  -9.142 -22.368  0.00  0.00    +0.000 C 
ATOM      8  C   UNL     1      32.284  -6.301 -24.735  0.00  0.00    +0.002 C 
ATOM      9  C   UNL     1      34.848  -7.479 -23.132  0.00  0.00    +0.000 C 
ATOM     10  C   UNL     1      33.627  -9.220 -24.377  0.00  0.00    +0.000 C 
ENDROOT
BRANCH   4  11
ATOM     11  O   UNL     1      31.044  -5.736 -21.853  0.00  0.00    -0.384 OA
ATOM     12  H   UNL     1      30.395  -5.965 -22.538  0.00  0.00    +0.210 HD
ENDBRANCH   4  11
TORSDOF 1
ENDMDL
MODEL 8
REMARK VINA RESULT:      -5.2      9.250     10.903
REMARK  Name = 64685
REMARK  1 active torsions:
REMARK  status: ('A' for Active; 'I' for Inactive)
REMARK    1  A    between atoms: C_4  and  O_11
REMARK                            x       y       z     vdW  Elec       q    Type
REMARK                         _______ _______ _______ _____ _____    ______ ____
ROOT
ATOM      1  C   UNL     1      35.846 -18.590 -21.826  0.00  0.00    +0.025 C 
ATOM      2  C   UNL     1      34.861 -18.383 -23.016  0.00  0.00    +0.002 C 
ATOM      3  C   UNL     1      33.637 -18.431 -22.062  0.00  0.00    +0.002 C 
ATOM      4  C   UNL     1      35.327 -19.915 -21.190  0.00  0.00    +0.110 C 
ATOM      5  C   UNL     1      35.472 -17.424 -20.866  0.00  0.00    +0.002 C 
ATOM      6  C   UNL     1      33.799 -19.781 -21.322  0.00  0.00    +0.029 C 
ATOM      7  C   UNL     1      33.946 -17.328 -21.025  0.00  0.00    +0.000 C 
ATOM      8  C   UNL     1      37.326 -18.621 -22.157  0.00  0.00    +0.002 C 
ATOM      9  C   UNL     1      34.867 -19.492 -24.088  0.00  0.00    +0.000 C 
ATOM     10  C   UNL     1      35.011 -17.051 -23.779  0.00  0.00    +0.000 C 
ENDROOT
BRANCH   4  11
ATOM     11  O   UNL     1      35.699 -20.073 -19.832  0.00  0.00    -0.384 OA
ATOM     12  H   UNL     1      35.349 -20.914 -19.497  0.00  0.00    +0.210 HD
ENDBRANCH   4  11
TORSDOF 1
ENDMDL
MODEL 9
REMARK VINA RESULT:      -5.2      1.932      3.264
REMARK  Name = 64685
REMARK  1 active torsions:
REMARK  status: ('A' for Active; 'I' for Inactive)
REMARK    1  A    between atoms: C_4  and  O_11
REMARK                            x       y       z     vdW  Elec       q    Type
REMARK                         _______ _______ _______ _____ _____    ______ ____
ROOT
ATOM      1  C   UNL     1      37.238 -24.872 -13.262  0.00  0.00    +0.025 C 
ATOM      2  C   UNL     1      36.673 -25.241 -14.667  0.00  0.00    +0.002 C 
ATOM      3  C   UNL     1      37.676 -24.283 -15.365  0.00  0.00    +0.002 C 
ATOM      4  C   UNL     1      37.079 -23.322 -13.234  0.00  0.00    +0.110 C 
ATOM      5  C   UNL     1      38.754 -25.192 -13.409  0.00  0.00    +0.002 C 
ATOM      6  C   UNL     1      37.420 -22.919 -14.681  0.00  0.00    +0.029 C 
ATOM      7  C   UNL     1      39.051 -24.772 -14.858  0.00  0.00    +0.000 C 
ATOM      8  C   UNL     1      36.610 -25.563 -12.067  0.00  0.00    +0.002 C 
ATOM      9  C   UNL     1      35.192 -24.882 -14.905  0.00  0.00    +0.000 C 
ATOM     10  C   UNL     1      36.826 -26.719 -15.079  0.00  0.00    +0.000 C 
ENDROOT
BRANCH   4  11
ATOM     11  O   UNL     1      37.950 -22.682 -12.318  0.00  0.00    -0.384 OA
ATOM     12  H   UNL     1      37.431 -22.125 -11.715  0.00  0.00    +0.210 HD
ENDBRANCH   4  11
TORSDOF 1
ENDMDL
