MODEL 1
REMARK VINA RESULT:      -4.9      0.000      0.000
REMARK  Name = 5437
REMARK  0 active torsions:
REMARK  status: ('A' for Active; 'I' for Inactive)
REMARK                            x       y       z     vdW  Elec       q    Type
REMARK                         _______ _______ _______ _____ _____    ______ ____
ROOT
ATOM      1  S   UNL     1      36.618 -23.463 -13.373  0.00  0.00    -0.047 S 
ATOM      2  O   UNL     1      35.175 -25.064 -10.185  0.00  0.00    -0.274 OA
ATOM      3  O   UNL     1      38.417 -22.247 -11.888  0.00  0.00    -0.263 OA
ATOM      4  N   UNL     1      36.869 -23.628 -10.838  0.00  0.00    -0.246 N 
ATOM      5  C   UNL     1      35.434 -24.525 -12.515  0.00  0.00    +0.152 C 
ATOM      6  C   UNL     1      35.786 -24.454 -11.054  0.00  0.00    +0.240 C 
ATOM      7  C   UNL     1      37.459 -23.006 -11.907  0.00  0.00    +0.279 C 
ATOM      8  H   UNL     1      37.213 -23.486  -9.926  0.00  0.00    +0.158 HD
ENDROOT
TORSDOF 0
ENDMDL
MODEL 2
REMARK VINA RESULT:      -4.9      3.986      4.425
REMARK  Name = 5437
REMARK  0 active torsions:
REMARK  status: ('A' for Active; 'I' for Inactive)
REMARK                            x       y       z     vdW  Elec       q    Type
REMARK                         _______ _______ _______ _____ _____    ______ ____
ROOT
ATOM      1  S   UNL     1      38.533 -25.191 -13.350  0.00  0.00    -0.047 S 
ATOM      2  O   UNL     1      36.800 -27.241 -16.108  0.00  0.00    -0.274 OA
ATOM      3  O   UNL     1      36.827 -26.182 -11.611  0.00  0.00    -0.263 OA
ATOM      4  N   UNL     1      36.648 -26.843 -13.833  0.00  0.00    -0.246 N 
ATOM      5  C   UNL     1      38.356 -25.732 -15.066  0.00  0.00    +0.152 C 
ATOM      6  C   UNL     1      37.194 -26.686 -15.089  0.00  0.00    +0.240 C 
ATOM      7  C   UNL     1      37.189 -26.157 -12.778  0.00  0.00    +0.279 C 
ATOM      8  H   UNL     1      35.877 -27.441 -13.696  0.00  0.00    +0.158 HD
ENDROOT
TORSDOF 0
ENDMDL
MODEL 3
REMARK VINA RESULT:      -4.8      3.860      4.138
REMARK  Name = 5437
REMARK  0 active torsions:
REMARK  status: ('A' for Active; 'I' for Inactive)
REMARK                            x       y       z     vdW  Elec       q    Type
REMARK                         _______ _______ _______ _____ _____    ______ ____
ROOT
ATOM      1  S   UNL     1      38.648 -25.673 -14.877  0.00  0.00    -0.047 S 
ATOM      2  O   UNL     1      36.722 -26.079 -11.569  0.00  0.00    -0.274 OA
ATOM      3  O   UNL     1      36.862 -27.209 -16.047  0.00  0.00    -0.263 OA
ATOM      4  N   UNL     1      36.613 -26.756 -13.780  0.00  0.00    -0.246 N 
ATOM      5  C   UNL     1      38.416 -25.349 -13.113  0.00  0.00    +0.152 C 
ATOM      6  C   UNL     1      37.169 -26.087 -12.710  0.00  0.00    +0.240 C 
ATOM      7  C   UNL     1      37.221 -26.679 -15.006  0.00  0.00    +0.279 C 
ATOM      8  H   UNL     1      35.790 -27.284 -13.664  0.00  0.00    +0.158 HD
ENDROOT
TORSDOF 0
ENDMDL
MODEL 4
REMARK VINA RESULT:      -4.6      4.244      5.053
REMARK  Name = 5437
REMARK  0 active torsions:
REMARK  status: ('A' for Active; 'I' for Inactive)
REMARK                            x       y       z     vdW  Elec       q    Type
REMARK                         _______ _______ _______ _____ _____    ______ ____
ROOT
ATOM      1  S   UNL     1      37.148 -26.199 -13.248  0.00  0.00    -0.047 S 
ATOM      2  O   UNL     1      40.544 -24.872 -14.481  0.00  0.00    -0.274 OA
ATOM      3  O   UNL     1      36.513 -26.746 -15.741  0.00  0.00    -0.263 OA
ATOM      4  N   UNL     1      38.595 -25.804 -15.314  0.00  0.00    -0.246 N 
ATOM      5  C   UNL     1      38.776 -25.466 -12.962  0.00  0.00    +0.152 C 
ATOM      6  C   UNL     1      39.422 -25.337 -14.314  0.00  0.00    +0.240 C 
ATOM      7  C   UNL     1      37.361 -26.298 -14.983  0.00  0.00    +0.279 C 
ATOM      8  H   UNL     1      38.888 -25.781 -16.254  0.00  0.00    +0.158 HD
ENDROOT
TORSDOF 0
ENDMDL
MODEL 5
REMARK VINA RESULT:      -4.5      3.878      4.043
REMARK  Name = 5437
REMARK  0 active torsions:
REMARK  status: ('A' for Active; 'I' for Inactive)
REMARK                            x       y       z     vdW  Elec       q    Type
REMARK                         _______ _______ _______ _____ _____    ______ ____
ROOT
ATOM      1  S   UNL     1      37.609 -25.362 -12.806  0.00  0.00    -0.047 S 
ATOM      2  O   UNL     1      36.724 -27.197 -16.071  0.00  0.00    -0.274 OA
ATOM      3  O   UNL     1      37.766 -23.118 -14.169  0.00  0.00    -0.263 OA
ATOM      4  N   UNL     1      37.226 -25.068 -15.313  0.00  0.00    -0.246 N 
ATOM      5  C   UNL     1      37.187 -26.854 -13.736  0.00  0.00    +0.152 C 
ATOM      6  C   UNL     1      37.015 -26.423 -15.167  0.00  0.00    +0.240 C 
ATOM      7  C   UNL     1      37.548 -24.319 -14.212  0.00  0.00    +0.279 C 
ATOM      8  H   UNL     1      37.146 -24.644 -16.198  0.00  0.00    +0.158 HD
ENDROOT
TORSDOF 0
ENDMDL
MODEL 6
REMARK VINA RESULT:      -4.5      3.152      3.694
REMARK  Name = 5437
REMARK  0 active torsions:
REMARK  status: ('A' for Active; 'I' for Inactive)
REMARK                            x       y       z     vdW  Elec       q    Type
REMARK                         _______ _______ _______ _____ _____    ______ ____
ROOT
ATOM      1  S   UNL     1      36.942 -23.885 -13.258  0.00  0.00    -0.047 S 
ATOM      2  O   UNL     1      38.216 -27.186 -14.772  0.00  0.00    -0.274 OA
ATOM      3  O   UNL     1      35.915 -25.255 -11.261  0.00  0.00    -0.263 OA
ATOM      4  N   UNL     1      37.040 -26.415 -12.933  0.00  0.00    -0.246 N 
ATOM      5  C   UNL     1      37.807 -24.828 -14.536  0.00  0.00    +0.152 C 
ATOM      6  C   UNL     1      37.726 -26.271 -14.121  0.00  0.00    +0.240 C 
ATOM      7  C   UNL     1      36.542 -25.301 -12.309  0.00  0.00    +0.279 C 
ATOM      8  H   UNL     1      36.909 -27.308 -12.539  0.00  0.00    +0.158 HD
ENDROOT
TORSDOF 0
ENDMDL
MODEL 7
REMARK VINA RESULT:      -4.5      3.585      4.510
REMARK  Name = 5437
REMARK  0 active torsions:
REMARK  status: ('A' for Active; 'I' for Inactive)
REMARK                            x       y       z     vdW  Elec       q    Type
REMARK                         _______ _______ _______ _____ _____    ______ ____
ROOT
ATOM      1  S   UNL     1      37.109 -24.769 -14.095  0.00  0.00    -0.047 S 
ATOM      2  O   UNL     1      40.837 -25.548 -14.655  0.00  0.00    -0.274 OA
ATOM      3  O   UNL     1      37.145 -26.354 -11.997  0.00  0.00    -0.263 OA
ATOM      4  N   UNL     1      39.112 -26.078 -13.205  0.00  0.00    -0.246 N 
ATOM      5  C   UNL     1      38.661 -24.586 -15.006  0.00  0.00    +0.152 C 
ATOM      6  C   UNL     1      39.671 -25.443 -14.295  0.00  0.00    +0.240 C 
ATOM      7  C   UNL     1      37.789 -25.871 -12.916  0.00  0.00    +0.279 C 
ATOM      8  H   UNL     1      39.658 -26.675 -12.643  0.00  0.00    +0.158 HD
ENDROOT
TORSDOF 0
ENDMDL
MODEL 8
REMARK VINA RESULT:      -4.5      8.526      9.047
REMARK  Name = 5437
REMARK  0 active torsions:
REMARK  status: ('A' for Active; 'I' for Inactive)
REMARK                            x       y       z     vdW  Elec       q    Type
REMARK                         _______ _______ _______ _____ _____    ______ ____
ROOT
ATOM      1  S   UNL     1      35.494 -21.748 -19.225  0.00  0.00    -0.047 S 
ATOM      2  O   UNL     1      32.368 -20.128 -20.780  0.00  0.00    -0.274 OA
ATOM      3  O   UNL     1      33.931 -23.487 -18.019  0.00  0.00    -0.263 OA
ATOM      4  N   UNL     1      32.948 -21.871 -19.371  0.00  0.00    -0.246 N 
ATOM      5  C   UNL     1      34.686 -20.508 -20.265  0.00  0.00    +0.152 C 
ATOM      6  C   UNL     1      33.211 -20.790 -20.186  0.00  0.00    +0.240 C 
ATOM      7  C   UNL     1      33.991 -22.521 -18.766  0.00  0.00    +0.279 C 
ATOM      8  H   UNL     1      32.021 -22.171 -19.225  0.00  0.00    +0.158 HD
ENDROOT
TORSDOF 0
ENDMDL
MODEL 9
REMARK VINA RESULT:      -4.4      8.673      9.005
REMARK  Name = 5437
REMARK  0 active torsions:
REMARK  status: ('A' for Active; 'I' for Inactive)
REMARK                            x       y       z     vdW  Elec       q    Type
REMARK                         _______ _______ _______ _____ _____    ______ ____
ROOT
ATOM      1  S   UNL     1      35.026 -20.471 -20.307  0.00  0.00    -0.047 S 
ATOM      2  O   UNL     1      33.726 -23.671 -18.608  0.00  0.00    -0.274 OA
ATOM      3  O   UNL     1      32.534 -19.693 -20.633  0.00  0.00    -0.263 OA
ATOM      4  N   UNL     1      32.926 -21.731 -19.586  0.00  0.00    -0.246 N 
ATOM      5  C   UNL     1      35.283 -22.063 -19.489  0.00  0.00    +0.152 C 
ATOM      6  C   UNL     1      33.914 -22.598 -19.169  0.00  0.00    +0.240 C 
ATOM      7  C   UNL     1      33.280 -20.561 -20.205  0.00  0.00    +0.279 C 
ATOM      8  H   UNL     1      31.976 -21.952 -19.442  0.00  0.00    +0.158 HD
ENDROOT
TORSDOF 0
ENDMDL
