MODEL 1
REMARK VINA RESULT:      -4.6      0.000      0.000
REMARK  Name = 5413
REMARK  4 active torsions:
REMARK  status: ('A' for Active; 'I' for Inactive)
REMARK    1  A    between atoms: N_1  and  C_2
REMARK    2  A    between atoms: N_1  and  C_4
REMARK    3  A    between atoms: N_1  and  C_6
REMARK    4  A    between atoms: N_1  and  C_8
REMARK                            x       y       z     vdW  Elec       q    Type
REMARK                         _______ _______ _______ _____ _____    ______ ____
ROOT
ATOM      1  N   UNL     1      34.806 -18.917 -21.612  0.00  0.00    +0.390 N 
ENDROOT
BRANCH   1   2
ATOM      2  C   UNL     1      36.270 -18.642 -21.295  0.00  0.00    -0.073 C 
ATOM      3  C   UNL     1      36.816 -19.770 -20.448  0.00  0.00    -0.024 C 
ENDBRANCH   1   2
BRANCH   1   4
ATOM      4  C   UNL     1      33.992 -17.652 -21.384  0.00  0.00    -0.073 C 
ATOM      5  C   UNL     1      34.892 -16.574 -20.821  0.00  0.00    -0.024 C 
ENDBRANCH   1   4
BRANCH   1   6
ATOM      6  C   UNL     1      34.290 -20.023 -20.704  0.00  0.00    -0.073 C 
ATOM      7  C   UNL     1      32.782 -19.931 -20.613  0.00  0.00    -0.024 C 
ENDBRANCH   1   6
BRANCH   1   8
ATOM      8  C   UNL     1      34.674 -19.350 -23.065  0.00  0.00    -0.073 C 
ATOM      9  C   UNL     1      35.139 -18.227 -23.965  0.00  0.00    -0.024 C 
ENDBRANCH   1   8
TORSDOF 4
ENDMDL
MODEL 2
REMARK VINA RESULT:      -4.6      0.059      2.695
REMARK  Name = 5413
REMARK  4 active torsions:
REMARK  status: ('A' for Active; 'I' for Inactive)
REMARK    1  A    between atoms: N_1  and  C_2
REMARK    2  A    between atoms: N_1  and  C_4
REMARK    3  A    between atoms: N_1  and  C_6
REMARK    4  A    between atoms: N_1  and  C_8
REMARK                            x       y       z     vdW  Elec       q    Type
REMARK                         _______ _______ _______ _____ _____    ______ ____
ROOT
ATOM      1  N   UNL     1      34.783 -18.900 -21.590  0.00  0.00    +0.390 N 
ENDROOT
BRANCH   1   2
ATOM      2  C   UNL     1      33.962 -17.645 -21.331  0.00  0.00    -0.073 C 
ATOM      3  C   UNL     1      34.874 -16.548 -20.825  0.00  0.00    -0.024 C 
ENDBRANCH   1   2
BRANCH   1   4
ATOM      4  C   UNL     1      34.299 -20.019 -20.680  0.00  0.00    -0.073 C 
ATOM      5  C   UNL     1      32.791 -19.956 -20.570  0.00  0.00    -0.024 C 
ENDBRANCH   1   4
BRANCH   1   6
ATOM      6  C   UNL     1      36.250 -18.613 -21.304  0.00  0.00    -0.073 C 
ATOM      7  C   UNL     1      36.827 -19.742 -20.476  0.00  0.00    -0.024 C 
ENDBRANCH   1   6
BRANCH   1   8
ATOM      8  C   UNL     1      34.622 -19.321 -23.043  0.00  0.00    -0.073 C 
ATOM      9  C   UNL     1      35.248 -18.274 -23.938  0.00  0.00    -0.024 C 
ENDBRANCH   1   8
TORSDOF 4
ENDMDL
MODEL 3
REMARK VINA RESULT:      -4.6      0.078      2.626
REMARK  Name = 5413
REMARK  4 active torsions:
REMARK  status: ('A' for Active; 'I' for Inactive)
REMARK    1  A    between atoms: N_1  and  C_2
REMARK    2  A    between atoms: N_1  and  C_4
REMARK    3  A    between atoms: N_1  and  C_6
REMARK    4  A    between atoms: N_1  and  C_8
REMARK                            x       y       z     vdW  Elec       q    Type
REMARK                         _______ _______ _______ _____ _____    ______ ____
ROOT
ATOM      1  N   UNL     1      34.768 -18.898 -21.574  0.00  0.00    +0.390 N 
ENDROOT
BRANCH   1   2
ATOM      2  C   UNL     1      34.593 -19.314 -23.027  0.00  0.00    -0.073 C 
ATOM      3  C   UNL     1      35.273 -18.300 -23.921  0.00  0.00    -0.024 C 
ENDBRANCH   1   2
BRANCH   1   4
ATOM      4  C   UNL     1      36.238 -18.619 -21.299  0.00  0.00    -0.073 C 
ATOM      5  C   UNL     1      36.810 -19.740 -20.460  0.00  0.00    -0.024 C 
ENDBRANCH   1   4
BRANCH   1   6
ATOM      6  C   UNL     1      34.286 -20.018 -20.664  0.00  0.00    -0.073 C 
ATOM      7  C   UNL     1      32.775 -19.979 -20.582  0.00  0.00    -0.024 C 
ENDBRANCH   1   6
BRANCH   1   8
ATOM      8  C   UNL     1      33.954 -17.640 -21.305  0.00  0.00    -0.073 C 
ATOM      9  C   UNL     1      34.875 -16.544 -20.816  0.00  0.00    -0.024 C 
ENDBRANCH   1   8
TORSDOF 4
ENDMDL
MODEL 4
REMARK VINA RESULT:      -4.6      0.073      2.730
REMARK  Name = 5413
REMARK  4 active torsions:
REMARK  status: ('A' for Active; 'I' for Inactive)
REMARK    1  A    between atoms: N_1  and  C_2
REMARK    2  A    between atoms: N_1  and  C_4
REMARK    3  A    between atoms: N_1  and  C_6
REMARK    4  A    between atoms: N_1  and  C_8
REMARK                            x       y       z     vdW  Elec       q    Type
REMARK                         _______ _______ _______ _____ _____    ______ ____
ROOT
ATOM      1  N   UNL     1      34.772 -18.897 -21.578  0.00  0.00    +0.390 N 
ENDROOT
BRANCH   1   2
ATOM      2  C   UNL     1      36.243 -18.615 -21.305  0.00  0.00    -0.073 C 
ATOM      3  C   UNL     1      36.817 -19.736 -20.466  0.00  0.00    -0.024 C 
ENDBRANCH   1   2
BRANCH   1   4
ATOM      4  C   UNL     1      34.597 -19.315 -23.030  0.00  0.00    -0.073 C 
ATOM      5  C   UNL     1      35.261 -18.293 -23.927  0.00  0.00    -0.024 C 
ENDBRANCH   1   4
BRANCH   1   6
ATOM      6  C   UNL     1      33.957 -17.640 -21.311  0.00  0.00    -0.073 C 
ATOM      7  C   UNL     1      34.879 -16.541 -20.827  0.00  0.00    -0.024 C 
ENDBRANCH   1   6
BRANCH   1   8
ATOM      8  C   UNL     1      34.292 -20.017 -20.666  0.00  0.00    -0.073 C 
ATOM      9  C   UNL     1      32.781 -19.981 -20.585  0.00  0.00    -0.024 C 
ENDBRANCH   1   8
TORSDOF 4
ENDMDL
MODEL 5
REMARK VINA RESULT:      -4.6      0.023      2.725
REMARK  Name = 5413
REMARK  4 active torsions:
REMARK  status: ('A' for Active; 'I' for Inactive)
REMARK    1  A    between atoms: N_1  and  C_2
REMARK    2  A    between atoms: N_1  and  C_4
REMARK    3  A    between atoms: N_1  and  C_6
REMARK    4  A    between atoms: N_1  and  C_8
REMARK                            x       y       z     vdW  Elec       q    Type
REMARK                         _______ _______ _______ _____ _____    ______ ____
ROOT
ATOM      1  N   UNL     1      34.802 -18.896 -21.616  0.00  0.00    +0.390 N 
ENDROOT
BRANCH   1   2
ATOM      2  C   UNL     1      36.266 -18.618 -21.307  0.00  0.00    -0.073 C 
ATOM      3  C   UNL     1      36.823 -19.751 -20.474  0.00  0.00    -0.024 C 
ENDBRANCH   1   2
BRANCH   1   4
ATOM      4  C   UNL     1      34.291 -19.998 -20.700  0.00  0.00    -0.073 C 
ATOM      5  C   UNL     1      32.781 -19.930 -20.632  0.00  0.00    -0.024 C 
ENDBRANCH   1   4
BRANCH   1   6
ATOM      6  C   UNL     1      34.663 -19.337 -23.065  0.00  0.00    -0.073 C 
ATOM      7  C   UNL     1      35.154 -18.229 -23.973  0.00  0.00    -0.024 C 
ENDBRANCH   1   6
BRANCH   1   8
ATOM      8  C   UNL     1      33.986 -17.631 -21.390  0.00  0.00    -0.073 C 
ATOM      9  C   UNL     1      34.882 -16.556 -20.814  0.00  0.00    -0.024 C 
ENDBRANCH   1   8
TORSDOF 4
ENDMDL
MODEL 6
REMARK VINA RESULT:      -4.6      0.063      2.638
REMARK  Name = 5413
REMARK  4 active torsions:
REMARK  status: ('A' for Active; 'I' for Inactive)
REMARK    1  A    between atoms: N_1  and  C_2
REMARK    2  A    between atoms: N_1  and  C_4
REMARK    3  A    between atoms: N_1  and  C_6
REMARK    4  A    between atoms: N_1  and  C_8
REMARK                            x       y       z     vdW  Elec       q    Type
REMARK                         _______ _______ _______ _____ _____    ______ ____
ROOT
ATOM      1  N   UNL     1      34.773 -18.887 -21.594  0.00  0.00    +0.390 N 
ENDROOT
BRANCH   1   2
ATOM      2  C   UNL     1      33.957 -17.629 -21.330  0.00  0.00    -0.073 C 
ATOM      3  C   UNL     1      34.874 -16.535 -20.829  0.00  0.00    -0.024 C 
ENDBRANCH   1   2
BRANCH   1   4
ATOM      4  C   UNL     1      34.603 -19.306 -23.046  0.00  0.00    -0.073 C 
ATOM      5  C   UNL     1      35.242 -18.267 -23.943  0.00  0.00    -0.024 C 
ENDBRANCH   1   4
BRANCH   1   6
ATOM      6  C   UNL     1      34.289 -20.006 -20.683  0.00  0.00    -0.073 C 
ATOM      7  C   UNL     1      32.779 -19.957 -20.592  0.00  0.00    -0.024 C 
ENDBRANCH   1   6
BRANCH   1   8
ATOM      8  C   UNL     1      36.243 -18.605 -21.315  0.00  0.00    -0.073 C 
ATOM      9  C   UNL     1      36.818 -19.732 -20.485  0.00  0.00    -0.024 C 
ENDBRANCH   1   8
TORSDOF 4
ENDMDL
MODEL 7
REMARK VINA RESULT:      -4.6      0.055      3.034
REMARK  Name = 5413
REMARK  4 active torsions:
REMARK  status: ('A' for Active; 'I' for Inactive)
REMARK    1  A    between atoms: N_1  and  C_2
REMARK    2  A    between atoms: N_1  and  C_4
REMARK    3  A    between atoms: N_1  and  C_6
REMARK    4  A    between atoms: N_1  and  C_8
REMARK                            x       y       z     vdW  Elec       q    Type
REMARK                         _______ _______ _______ _____ _____    ______ ____
ROOT
ATOM      1  N   UNL     1      34.787 -18.900 -21.594  0.00  0.00    +0.390 N 
ENDROOT
BRANCH   1   2
ATOM      2  C   UNL     1      34.302 -20.020 -20.685  0.00  0.00    -0.073 C 
ATOM      3  C   UNL     1      32.793 -19.958 -20.579  0.00  0.00    -0.024 C 
ENDBRANCH   1   2
BRANCH   1   4
ATOM      4  C   UNL     1      34.627 -19.322 -23.047  0.00  0.00    -0.073 C 
ATOM      5  C   UNL     1      35.243 -18.269 -23.943  0.00  0.00    -0.024 C 
ENDBRANCH   1   4
BRANCH   1   6
ATOM      6  C   UNL     1      36.254 -18.614 -21.308  0.00  0.00    -0.073 C 
ATOM      7  C   UNL     1      36.829 -19.741 -20.478  0.00  0.00    -0.024 C 
ENDBRANCH   1   6
BRANCH   1   8
ATOM      8  C   UNL     1      33.966 -17.645 -21.337  0.00  0.00    -0.073 C 
ATOM      9  C   UNL     1      34.876 -16.549 -20.827  0.00  0.00    -0.024 C 
ENDBRANCH   1   8
TORSDOF 4
ENDMDL
MODEL 8
REMARK VINA RESULT:      -4.6      0.066      3.210
REMARK  Name = 5413
REMARK  4 active torsions:
REMARK  status: ('A' for Active; 'I' for Inactive)
REMARK    1  A    between atoms: N_1  and  C_2
REMARK    2  A    between atoms: N_1  and  C_4
REMARK    3  A    between atoms: N_1  and  C_6
REMARK    4  A    between atoms: N_1  and  C_8
REMARK                            x       y       z     vdW  Elec       q    Type
REMARK                         _______ _______ _______ _____ _____    ______ ____
ROOT
ATOM      1  N   UNL     1      34.773 -18.887 -21.591  0.00  0.00    +0.390 N 
ENDROOT
BRANCH   1   2
ATOM      2  C   UNL     1      33.957 -17.629 -21.330  0.00  0.00    -0.073 C 
ATOM      3  C   UNL     1      34.874 -16.536 -20.825  0.00  0.00    -0.024 C 
ENDBRANCH   1   2
BRANCH   1   4
ATOM      4  C   UNL     1      36.242 -18.606 -21.313  0.00  0.00    -0.073 C 
ATOM      5  C   UNL     1      36.818 -19.734 -20.486  0.00  0.00    -0.024 C 
ENDBRANCH   1   4
BRANCH   1   6
ATOM      6  C   UNL     1      34.604 -19.309 -23.043  0.00  0.00    -0.073 C 
ATOM      7  C   UNL     1      35.251 -18.276 -23.942  0.00  0.00    -0.024 C 
ENDBRANCH   1   6
BRANCH   1   8
ATOM      8  C   UNL     1      34.289 -20.005 -20.679  0.00  0.00    -0.073 C 
ATOM      9  C   UNL     1      32.779 -19.959 -20.591  0.00  0.00    -0.024 C 
ENDBRANCH   1   8
TORSDOF 4
ENDMDL
MODEL 9
REMARK VINA RESULT:      -4.6      0.052      2.832
REMARK  Name = 5413
REMARK  4 active torsions:
REMARK  status: ('A' for Active; 'I' for Inactive)
REMARK    1  A    between atoms: N_1  and  C_2
REMARK    2  A    between atoms: N_1  and  C_4
REMARK    3  A    between atoms: N_1  and  C_6
REMARK    4  A    between atoms: N_1  and  C_8
REMARK                            x       y       z     vdW  Elec       q    Type
REMARK                         _______ _______ _______ _____ _____    ______ ____
ROOT
ATOM      1  N   UNL     1      34.780 -18.877 -21.598  0.00  0.00    +0.390 N 
ENDROOT
BRANCH   1   2
ATOM      2  C   UNL     1      34.615 -19.301 -23.051  0.00  0.00    -0.073 C 
ATOM      3  C   UNL     1      35.184 -18.227 -23.952  0.00  0.00    -0.024 C 
ENDBRANCH   1   2
BRANCH   1   4
ATOM      4  C   UNL     1      33.966 -17.616 -21.343  0.00  0.00    -0.073 C 
ATOM      5  C   UNL     1      34.879 -16.532 -20.814  0.00  0.00    -0.024 C 
ENDBRANCH   1   4
BRANCH   1   6
ATOM      6  C   UNL     1      36.248 -18.598 -21.315  0.00  0.00    -0.073 C 
ATOM      7  C   UNL     1      36.820 -19.728 -20.487  0.00  0.00    -0.024 C 
ENDBRANCH   1   6
BRANCH   1   8
ATOM      8  C   UNL     1      34.289 -19.991 -20.685  0.00  0.00    -0.073 C 
ATOM      9  C   UNL     1      32.778 -19.952 -20.618  0.00  0.00    -0.024 C 
ENDBRANCH   1   8
TORSDOF 4
ENDMDL
