MODEL 1
REMARK VINA RESULT:     -10.2      0.000      0.000
REMARK  Name = 909781
REMARK  4 active torsions:
REMARK  status: ('A' for Active; 'I' for Inactive)
REMARK    1  A    between atoms: C_2  and  C_17
REMARK    2  A    between atoms: C_3  and  C_23
REMARK    3  A    between atoms: C_14  and  C_19
REMARK    4  A    between atoms: C_23  and  O_24
REMARK                            x       y       z     vdW  Elec       q    Type
REMARK                         _______ _______ _______ _____ _____    ______ ____
ROOT
ATOM      1  N   UNL     1      35.492 -23.017 -16.213  0.00  0.00    -0.403 NA
ATOM      2  C   UNL     1      34.731 -23.511 -15.210  0.00  0.00    +0.168 C 
ATOM      3  C   UNL     1      33.355 -23.615 -15.261  0.00  0.00    +0.108 C 
ATOM      4  C   UNL     1      34.875 -22.597 -17.333  0.00  0.00    +0.113 C 
ATOM      5  C   UNL     1      33.474 -22.662 -17.479  0.00  0.00    +0.026 C 
ATOM      6  C   UNL     1      32.723 -23.181 -16.416  0.00  0.00    +0.011 C 
ATOM      7  C   UNL     1      35.621 -22.080 -18.389  0.00  0.00    +0.085 C 
ATOM      8  C   UNL     1      32.863 -22.214 -18.663  0.00  0.00    +0.002 C 
ATOM      9  C   UNL     1      35.013 -21.636 -19.566  0.00  0.00    -0.019 C 
ATOM     10  C   UNL     1      33.632 -21.702 -19.703  0.00  0.00    -0.004 C 
ENDROOT
BRANCH   2  17
ATOM     11  O   UNL     1      35.459 -25.247 -10.906  0.00  0.00    -0.273 OA
ATOM     12  N   UNL     1      36.766 -23.891 -13.917  0.00  0.00    -0.249 NA
ATOM     13  N   UNL     1      34.798 -24.435 -12.980  0.00  0.00    -0.266 N 
ATOM     14  C   UNL     1      37.057 -24.433 -12.565  0.00  0.00    +0.154 C 
ATOM     15  C   UNL     1      35.691 -24.772 -12.006  0.00  0.00    +0.247 C 
ATOM     16  C   UNL     1      37.737 -23.355 -11.730  0.00  0.00    +0.034 C 
ATOM     17  C   UNL     1      35.480 -23.941 -14.039  0.00  0.00    +0.160 C 
ATOM     18  H   UNL     1      33.821 -24.534 -12.923  0.00  0.00    +0.156 HD
BRANCH  14  19
ATOM     19  C   UNL     1      37.917 -25.683 -12.700  0.00  0.00    +0.029 C 
ATOM     20  C   UNL     1      37.184 -26.758 -13.502  0.00  0.00    +0.002 C 
ATOM     21  C   UNL     1      39.257 -25.350 -13.356  0.00  0.00    +0.002 C 
ENDBRANCH  14  19
ENDBRANCH   2  17
BRANCH   3  23
ATOM     22  O   UNL     1      32.198 -25.326 -14.056  0.00  0.00    -0.245 OA
ATOM     23  C   UNL     1      32.569 -24.154 -14.161  0.00  0.00    +0.341 C 
BRANCH  23  24
ATOM     24  O   UNL     1      32.270 -23.212 -13.225  0.00  0.00    -0.477 OA
ATOM     25  H   UNL     1      32.156 -23.461 -12.329  0.00  0.00    +0.295 HD
ENDBRANCH  23  24
ENDBRANCH   3  23
TORSDOF 4
ENDMDL
MODEL 2
REMARK VINA RESULT:     -10.0      2.472      3.874
REMARK  Name = 909781
REMARK  4 active torsions:
REMARK  status: ('A' for Active; 'I' for Inactive)
REMARK    1  A    between atoms: C_2  and  C_17
REMARK    2  A    between atoms: C_3  and  C_23
REMARK    3  A    between atoms: C_14  and  C_19
REMARK    4  A    between atoms: C_23  and  O_24
REMARK                            x       y       z     vdW  Elec       q    Type
REMARK                         _______ _______ _______ _____ _____    ______ ____
ROOT
ATOM      1  N   UNL     1      33.090 -24.270 -14.431  0.00  0.00    -0.403 NA
ATOM      2  C   UNL     1      34.006 -23.788 -15.302  0.00  0.00    +0.168 C 
ATOM      3  C   UNL     1      33.694 -23.239 -16.529  0.00  0.00    +0.108 C 
ATOM      4  C   UNL     1      31.790 -24.215 -14.779  0.00  0.00    +0.113 C 
ATOM      5  C   UNL     1      31.373 -23.672 -16.012  0.00  0.00    +0.026 C 
ATOM      6  C   UNL     1      32.354 -23.184 -16.884  0.00  0.00    +0.011 C 
ATOM      7  C   UNL     1      30.815 -24.701 -13.912  0.00  0.00    +0.085 C 
ATOM      8  C   UNL     1      30.008 -23.631 -16.343  0.00  0.00    +0.002 C 
ATOM      9  C   UNL     1      29.458 -24.659 -14.242  0.00  0.00    -0.019 C 
ATOM     10  C   UNL     1      29.053 -24.124 -15.458  0.00  0.00    -0.004 C 
ENDROOT
BRANCH   2  17
ATOM     11  O   UNL     1      37.803 -22.863 -12.696  0.00  0.00    -0.273 OA
ATOM     12  N   UNL     1      36.282 -24.666 -15.351  0.00  0.00    -0.249 NA
ATOM     13  N   UNL     1      35.779 -23.112 -13.810  0.00  0.00    -0.266 N 
ATOM     14  C   UNL     1      37.515 -24.416 -14.560  0.00  0.00    +0.154 C 
ATOM     15  C   UNL     1      37.095 -23.366 -13.552  0.00  0.00    +0.247 C 
ATOM     16  C   UNL     1      38.603 -23.883 -15.483  0.00  0.00    +0.034 C 
ATOM     17  C   UNL     1      35.384 -23.887 -14.845  0.00  0.00    +0.160 C 
ATOM     18  H   UNL     1      35.212 -22.471 -13.323  0.00  0.00    +0.156 HD
BRANCH  14  19
ATOM     19  C   UNL     1      37.933 -25.705 -13.863  0.00  0.00    +0.029 C 
ATOM     20  C   UNL     1      37.384 -26.923 -14.605  0.00  0.00    +0.002 C 
ATOM     21  C   UNL     1      39.455 -25.790 -13.750  0.00  0.00    +0.002 C 
ENDBRANCH  14  19
ENDBRANCH   2  17
BRANCH   3  23
ATOM     22  O   UNL     1      34.686 -22.838 -18.669  0.00  0.00    -0.245 OA
ATOM     23  C   UNL     1      34.708 -22.729 -17.439  0.00  0.00    +0.341 C 
BRANCH  23  24
ATOM     24  O   UNL     1      35.721 -22.097 -16.787  0.00  0.00    -0.477 OA
ATOM     25  H   UNL     1      36.564 -22.502 -16.724  0.00  0.00    +0.295 HD
ENDBRANCH  23  24
ENDBRANCH   3  23
TORSDOF 4
ENDMDL
MODEL 3
REMARK VINA RESULT:      -9.9      3.057      5.466
REMARK  Name = 909781
REMARK  4 active torsions:
REMARK  status: ('A' for Active; 'I' for Inactive)
REMARK    1  A    between atoms: C_2  and  C_17
REMARK    2  A    between atoms: C_3  and  C_23
REMARK    3  A    between atoms: C_14  and  C_19
REMARK    4  A    between atoms: C_23  and  O_24
REMARK                            x       y       z     vdW  Elec       q    Type
REMARK                         _______ _______ _______ _____ _____    ______ ____
ROOT
ATOM      1  N   UNL     1      32.547 -22.087 -18.160  0.00  0.00    -0.403 NA
ATOM      2  C   UNL     1      33.013 -22.785 -17.099  0.00  0.00    +0.168 C 
ATOM      3  C   UNL     1      34.352 -23.005 -16.845  0.00  0.00    +0.108 C 
ATOM      4  C   UNL     1      33.440 -21.574 -19.027  0.00  0.00    +0.113 C 
ATOM      5  C   UNL     1      34.829 -21.745 -18.852  0.00  0.00    +0.026 C 
ATOM      6  C   UNL     1      35.269 -22.475 -17.740  0.00  0.00    +0.011 C 
ATOM      7  C   UNL     1      33.003 -20.850 -20.132  0.00  0.00    +0.085 C 
ATOM      8  C   UNL     1      35.733 -21.196 -19.777  0.00  0.00    +0.002 C 
ATOM      9  C   UNL     1      33.902 -20.303 -21.051  0.00  0.00    -0.019 C 
ATOM     10  C   UNL     1      35.269 -20.476 -20.873  0.00  0.00    -0.004 C 
ENDROOT
BRANCH   2  17
ATOM     11  O   UNL     1      30.723 -23.574 -13.074  0.00  0.00    -0.273 OA
ATOM     12  N   UNL     1      30.972 -24.023 -16.589  0.00  0.00    -0.249 NA
ATOM     13  N   UNL     1      32.058 -23.023 -14.895  0.00  0.00    -0.266 N 
ATOM     14  C   UNL     1      30.205 -24.304 -15.348  0.00  0.00    +0.154 C 
ATOM     15  C   UNL     1      30.996 -23.602 -14.263  0.00  0.00    +0.247 C 
ATOM     16  C   UNL     1      30.171 -25.809 -15.111  0.00  0.00    +0.034 C 
ATOM     17  C   UNL     1      31.979 -23.303 -16.215  0.00  0.00    +0.160 C 
ATOM     18  H   UNL     1      32.763 -22.490 -14.462  0.00  0.00    +0.156 HD
BRANCH  14  19
ATOM     19  C   UNL     1      28.809 -23.709 -15.476  0.00  0.00    +0.029 C 
ATOM     20  C   UNL     1      28.846 -22.195 -15.275  0.00  0.00    +0.002 C 
ATOM     21  C   UNL     1      28.198 -24.053 -16.835  0.00  0.00    +0.002 C 
ENDBRANCH  14  19
ENDBRANCH   2  17
BRANCH   3  23
ATOM     22  O   UNL     1      35.087 -24.965 -15.686  0.00  0.00    -0.245 OA
ATOM     23  C   UNL     1      34.816 -23.760 -15.691  0.00  0.00    +0.341 C 
BRANCH  23  24
ATOM     24  O   UNL     1      34.928 -22.988 -14.576  0.00  0.00    -0.477 OA
ATOM     25  H   UNL     1      34.457 -22.180 -14.515  0.00  0.00    +0.295 HD
ENDBRANCH  23  24
ENDBRANCH   3  23
TORSDOF 4
ENDMDL
MODEL 4
REMARK VINA RESULT:      -9.8      2.481      3.863
REMARK  Name = 909781
REMARK  4 active torsions:
REMARK  status: ('A' for Active; 'I' for Inactive)
REMARK    1  A    between atoms: C_2  and  C_17
REMARK    2  A    between atoms: C_3  and  C_23
REMARK    3  A    between atoms: C_14  and  C_19
REMARK    4  A    between atoms: C_23  and  O_24
REMARK                            x       y       z     vdW  Elec       q    Type
REMARK                         _______ _______ _______ _____ _____    ______ ____
ROOT
ATOM      1  N   UNL     1      36.372 -21.242 -18.640  0.00  0.00    -0.403 NA
ATOM      2  C   UNL     1      35.440 -22.056 -18.092  0.00  0.00    +0.168 C 
ATOM      3  C   UNL     1      34.152 -22.191 -18.570  0.00  0.00    +0.108 C 
ATOM      4  C   UNL     1      36.025 -20.513 -19.718  0.00  0.00    +0.113 C 
ATOM      5  C   UNL     1      34.733 -20.583 -20.279  0.00  0.00    +0.026 C 
ATOM      6  C   UNL     1      33.799 -21.439 -19.681  0.00  0.00    +0.011 C 
ATOM      7  C   UNL     1      36.952 -19.662 -20.313  0.00  0.00    +0.085 C 
ATOM      8  C   UNL     1      34.405 -19.808 -21.405  0.00  0.00    +0.002 C 
ATOM      9  C   UNL     1      36.627 -18.892 -21.432  0.00  0.00    -0.019 C 
ATOM     10  C   UNL     1      35.352 -18.965 -21.979  0.00  0.00    -0.004 C 
ENDROOT
BRANCH   2  17
ATOM     11  O   UNL     1      38.416 -23.552 -14.781  0.00  0.00    -0.273 OA
ATOM     12  N   UNL     1      35.182 -23.632 -16.247  0.00  0.00    -0.249 NA
ATOM     13  N   UNL     1      37.178 -22.639 -16.522  0.00  0.00    -0.266 N 
ATOM     14  C   UNL     1      36.078 -24.140 -15.175  0.00  0.00    +0.154 C 
ATOM     15  C   UNL     1      37.391 -23.429 -15.430  0.00  0.00    +0.247 C 
ATOM     16  C   UNL     1      36.235 -25.648 -15.329  0.00  0.00    +0.034 C 
ATOM     17  C   UNL     1      35.901 -22.805 -16.933  0.00  0.00    +0.160 C 
ATOM     18  H   UNL     1      37.844 -22.047 -16.941  0.00  0.00    +0.156 HD
BRANCH  14  19
ATOM     19  C   UNL     1      35.503 -23.756 -13.818  0.00  0.00    +0.029 C 
ATOM     20  C   UNL     1      33.975 -23.790 -13.849  0.00  0.00    +0.002 C 
ATOM     21  C   UNL     1      36.036 -24.681 -12.724  0.00  0.00    +0.002 C 
ENDBRANCH  14  19
ENDBRANCH   2  17
BRANCH   3  23
ATOM     22  O   UNL     1      32.256 -22.726 -17.213  0.00  0.00    -0.245 OA
ATOM     23  C   UNL     1      33.178 -23.079 -17.955  0.00  0.00    +0.341 C 
BRANCH  23  24
ATOM     24  O   UNL     1      33.384 -24.384 -18.283  0.00  0.00    -0.477 OA
ATOM     25  H   UNL     1      33.961 -24.912 -17.766  0.00  0.00    +0.295 HD
ENDBRANCH  23  24
ENDBRANCH   3  23
TORSDOF 4
ENDMDL
MODEL 5
REMARK VINA RESULT:      -9.6      1.462      2.037
REMARK  Name = 909781
REMARK  4 active torsions:
REMARK  status: ('A' for Active; 'I' for Inactive)
REMARK    1  A    between atoms: C_2  and  C_17
REMARK    2  A    between atoms: C_3  and  C_23
REMARK    3  A    between atoms: C_14  and  C_19
REMARK    4  A    between atoms: C_23  and  O_24
REMARK                            x       y       z     vdW  Elec       q    Type
REMARK                         _______ _______ _______ _____ _____    ______ ____
ROOT
ATOM      1  N   UNL     1      36.536 -22.430 -17.028  0.00  0.00    -0.403 NA
ATOM      2  C   UNL     1      35.879 -23.089 -16.045  0.00  0.00    +0.168 C 
ATOM      3  C   UNL     1      34.524 -23.348 -16.059  0.00  0.00    +0.108 C 
ATOM      4  C   UNL     1      35.826 -21.996 -18.087  0.00  0.00    +0.113 C 
ATOM      5  C   UNL     1      34.437 -22.214 -18.192  0.00  0.00    +0.026 C 
ATOM      6  C   UNL     1      33.797 -22.901 -17.152  0.00  0.00    +0.011 C 
ATOM      7  C   UNL     1      36.462 -21.313 -19.120  0.00  0.00    +0.085 C 
ATOM      8  C   UNL     1      33.728 -21.748 -19.312  0.00  0.00    +0.002 C 
ATOM      9  C   UNL     1      35.757 -20.850 -20.234  0.00  0.00    -0.019 C 
ATOM     10  C   UNL     1      34.388 -21.068 -20.330  0.00  0.00    -0.004 C 
ENDROOT
BRANCH   2  17
ATOM     11  O   UNL     1      38.186 -22.803 -11.964  0.00  0.00    -0.273 OA
ATOM     12  N   UNL     1      37.283 -24.680 -14.840  0.00  0.00    -0.249 NA
ATOM     13  N   UNL     1      36.953 -22.655 -13.928  0.00  0.00    -0.266 N 
ATOM     14  C   UNL     1      38.032 -24.649 -13.557  0.00  0.00    +0.154 C 
ATOM     15  C   UNL     1      37.760 -23.262 -13.011  0.00  0.00    +0.247 C 
ATOM     16  C   UNL     1      39.516 -24.843 -13.840  0.00  0.00    +0.034 C 
ATOM     17  C   UNL     1      36.723 -23.520 -14.940  0.00  0.00    +0.160 C 
ATOM     18  H   UNL     1      36.598 -21.739 -13.862  0.00  0.00    +0.156 HD
BRANCH  14  19
ATOM     19  C   UNL     1      37.478 -25.720 -12.627  0.00  0.00    +0.029 C 
ATOM     20  C   UNL     1      36.279 -25.187 -11.843  0.00  0.00    +0.002 C 
ATOM     21  C   UNL     1      37.088 -26.971 -13.415  0.00  0.00    +0.002 C 
ENDBRANCH  14  19
ENDBRANCH   2  17
BRANCH   3  23
ATOM     22  O   UNL     1      32.944 -23.609 -14.281  0.00  0.00    -0.245 OA
ATOM     23  C   UNL     1      33.853 -24.062 -14.983  0.00  0.00    +0.341 C 
BRANCH  23  24
ATOM     24  O   UNL     1      34.337 -25.323 -14.815  0.00  0.00    -0.477 OA
ATOM     25  H   UNL     1      33.779 -26.063 -14.959  0.00  0.00    +0.295 HD
ENDBRANCH  23  24
ENDBRANCH   3  23
TORSDOF 4
ENDMDL
MODEL 6
REMARK VINA RESULT:      -9.6      8.229     11.212
REMARK  Name = 909781
REMARK  4 active torsions:
REMARK  status: ('A' for Active; 'I' for Inactive)
REMARK    1  A    between atoms: C_2  and  C_17
REMARK    2  A    between atoms: C_3  and  C_23
REMARK    3  A    between atoms: C_14  and  C_19
REMARK    4  A    between atoms: C_23  and  O_24
REMARK                            x       y       z     vdW  Elec       q    Type
REMARK                         _______ _______ _______ _____ _____    ______ ____
ROOT
ATOM      1  N   UNL     1      33.276 -15.056 -21.116  0.00  0.00    -0.403 NA
ATOM      2  C   UNL     1      33.735 -15.711 -22.207  0.00  0.00    +0.168 C 
ATOM      3  C   UNL     1      33.666 -15.216 -23.494  0.00  0.00    +0.108 C 
ATOM      4  C   UNL     1      32.713 -13.845 -21.291  0.00  0.00    +0.113 C 
ATOM      5  C   UNL     1      32.598 -13.255 -22.567  0.00  0.00    +0.026 C 
ATOM      6  C   UNL     1      33.087 -13.968 -23.670  0.00  0.00    +0.011 C 
ATOM      7  C   UNL     1      32.226 -13.137 -20.196  0.00  0.00    +0.085 C 
ATOM      8  C   UNL     1      32.005 -11.990 -22.713  0.00  0.00    +0.002 C 
ATOM      9  C   UNL     1      31.638 -11.878 -20.341  0.00  0.00    -0.019 C 
ATOM     10  C   UNL     1      31.527 -11.304 -21.601  0.00  0.00    -0.004 C 
ENDROOT
BRANCH   2  17
ATOM     11  O   UNL     1      37.028 -18.810 -20.937  0.00  0.00    -0.273 OA
ATOM     12  N   UNL     1      33.718 -18.145 -22.039  0.00  0.00    -0.249 NA
ATOM     13  N   UNL     1      35.613 -17.060 -21.513  0.00  0.00    -0.266 N 
ATOM     14  C   UNL     1      34.719 -19.172 -21.646  0.00  0.00    +0.154 C 
ATOM     15  C   UNL     1      35.956 -18.365 -21.310  0.00  0.00    +0.247 C 
ATOM     16  C   UNL     1      34.976 -20.098 -22.827  0.00  0.00    +0.034 C 
ATOM     17  C   UNL     1      34.326 -17.011 -21.925  0.00  0.00    +0.160 C 
ATOM     18  H   UNL     1      36.203 -16.284 -21.380  0.00  0.00    +0.156 HD
BRANCH  14  19
ATOM     19  C   UNL     1      34.210 -19.925 -20.424  0.00  0.00    +0.029 C 
ATOM     20  C   UNL     1      32.736 -20.293 -20.591  0.00  0.00    +0.002 C 
ATOM     21  C   UNL     1      35.048 -21.179 -20.173  0.00  0.00    +0.002 C 
ENDBRANCH  14  19
ENDBRANCH   2  17
BRANCH   3  23
ATOM     22  O   UNL     1      33.582 -16.097 -25.716  0.00  0.00    -0.245 OA
ATOM     23  C   UNL     1      34.174 -15.950 -24.643  0.00  0.00    +0.341 C 
BRANCH  23  24
ATOM     24  O   UNL     1      35.407 -16.480 -24.418  0.00  0.00    -0.477 OA
ATOM     25  H   UNL     1      35.625 -16.818 -23.571  0.00  0.00    +0.295 HD
ENDBRANCH  23  24
ENDBRANCH   3  23
TORSDOF 4
ENDMDL
MODEL 7
REMARK VINA RESULT:      -9.6      2.519      3.944
REMARK  Name = 909781
REMARK  4 active torsions:
REMARK  status: ('A' for Active; 'I' for Inactive)
REMARK    1  A    between atoms: C_2  and  C_17
REMARK    2  A    between atoms: C_3  and  C_23
REMARK    3  A    between atoms: C_14  and  C_19
REMARK    4  A    between atoms: C_23  and  O_24
REMARK                            x       y       z     vdW  Elec       q    Type
REMARK                         _______ _______ _______ _____ _____    ______ ____
ROOT
ATOM      1  N   UNL     1      32.889 -24.998 -14.450  0.00  0.00    -0.403 NA
ATOM      2  C   UNL     1      33.971 -24.422 -15.022  0.00  0.00    +0.168 C 
ATOM      3  C   UNL     1      33.906 -23.395 -15.943  0.00  0.00    +0.108 C 
ATOM      4  C   UNL     1      31.669 -24.547 -14.799  0.00  0.00    +0.113 C 
ATOM      5  C   UNL     1      31.500 -23.502 -15.730  0.00  0.00    +0.026 C 
ATOM      6  C   UNL     1      32.648 -22.932 -16.298  0.00  0.00    +0.011 C 
ATOM      7  C   UNL     1      30.529 -25.113 -14.235  0.00  0.00    +0.085 C 
ATOM      8  C   UNL     1      30.212 -23.056 -16.070  0.00  0.00    +0.002 C 
ATOM      9  C   UNL     1      29.248 -24.669 -14.573  0.00  0.00    -0.019 C 
ATOM     10  C   UNL     1      29.089 -23.639 -15.492  0.00  0.00    -0.004 C 
ENDROOT
BRANCH   2  17
ATOM     11  O   UNL     1      37.620 -27.377 -14.901  0.00  0.00    -0.273 OA
ATOM     12  N   UNL     1      35.999 -24.469 -13.665  0.00  0.00    -0.249 NA
ATOM     13  N   UNL     1      35.702 -26.096 -15.185  0.00  0.00    -0.266 N 
ATOM     14  C   UNL     1      37.179 -25.369 -13.582  0.00  0.00    +0.154 C 
ATOM     15  C   UNL     1      36.903 -26.429 -14.629  0.00  0.00    +0.247 C 
ATOM     16  C   UNL     1      37.244 -25.981 -12.189  0.00  0.00    +0.034 C 
ATOM     17  C   UNL     1      35.247 -24.971 -14.589  0.00  0.00    +0.160 C 
ATOM     18  H   UNL     1      35.244 -26.592 -15.901  0.00  0.00    +0.156 HD
BRANCH  14  19
ATOM     19  C   UNL     1      38.436 -24.579 -13.924  0.00  0.00    +0.029 C 
ATOM     20  C   UNL     1      39.689 -25.393 -13.603  0.00  0.00    +0.002 C 
ATOM     21  C   UNL     1      38.431 -24.164 -15.395  0.00  0.00    +0.002 C 
ENDBRANCH  14  19
ENDBRANCH   2  17
BRANCH   3  23
ATOM     22  O   UNL     1      35.412 -22.870 -17.726  0.00  0.00    -0.245 OA
ATOM     23  C   UNL     1      35.093 -22.798 -16.535  0.00  0.00    +0.341 C 
BRANCH  23  24
ATOM     24  O   UNL     1      35.849 -22.129 -15.622  0.00  0.00    -0.477 OA
ATOM     25  H   UNL     1      35.863 -21.192 -15.621  0.00  0.00    +0.295 HD
ENDBRANCH  23  24
ENDBRANCH   3  23
TORSDOF 4
ENDMDL
MODEL 8
REMARK VINA RESULT:      -9.5     12.917     16.258
REMARK  Name = 909781
REMARK  4 active torsions:
REMARK  status: ('A' for Active; 'I' for Inactive)
REMARK    1  A    between atoms: C_2  and  C_17
REMARK    2  A    between atoms: C_3  and  C_23
REMARK    3  A    between atoms: C_14  and  C_19
REMARK    4  A    between atoms: C_23  and  O_24
REMARK                            x       y       z     vdW  Elec       q    Type
REMARK                         _______ _______ _______ _____ _____    ______ ____
ROOT
ATOM      1  N   UNL     1      32.685 -11.894 -22.829  0.00  0.00    -0.403 NA
ATOM      2  C   UNL     1      32.246 -11.043 -21.874  0.00  0.00    +0.168 C 
ATOM      3  C   UNL     1      31.968 -11.415 -20.574  0.00  0.00    +0.108 C 
ATOM      4  C   UNL     1      32.863 -13.187 -22.497  0.00  0.00    +0.113 C 
ATOM      5  C   UNL     1      32.606 -13.662 -21.195  0.00  0.00    +0.026 C 
ATOM      6  C   UNL     1      32.152 -12.747 -20.235  0.00  0.00    +0.011 C 
ATOM      7  C   UNL     1      33.312 -14.097 -23.450  0.00  0.00    +0.085 C 
ATOM      8  C   UNL     1      32.802 -15.018 -20.883  0.00  0.00    +0.002 C 
ATOM      9  C   UNL     1      33.508 -15.445 -23.140  0.00  0.00    -0.019 C 
ATOM     10  C   UNL     1      33.252 -15.907 -21.855  0.00  0.00    -0.004 C 
ENDROOT
BRANCH   2  17
ATOM     11  O   UNL     1      30.481  -7.444 -24.322  0.00  0.00    -0.273 OA
ATOM     12  N   UNL     1      32.762  -8.658 -21.885  0.00  0.00    -0.249 NA
ATOM     13  N   UNL     1      31.153  -9.401 -23.265  0.00  0.00    -0.266 N 
ATOM     14  C   UNL     1      32.242  -7.481 -22.629  0.00  0.00    +0.154 C 
ATOM     15  C   UNL     1      31.172  -8.062 -23.529  0.00  0.00    +0.247 C 
ATOM     16  C   UNL     1      33.371  -6.868 -23.448  0.00  0.00    +0.034 C 
ATOM     17  C   UNL     1      32.083  -9.667 -22.320  0.00  0.00    +0.160 C 
ATOM     18  H   UNL     1      30.562 -10.062 -23.692  0.00  0.00    +0.156 HD
BRANCH  14  19
ATOM     19  C   UNL     1      31.643  -6.488 -21.641  0.00  0.00    +0.029 C 
ATOM     20  C   UNL     1      32.401  -6.523 -20.314  0.00  0.00    +0.002 C 
ATOM     21  C   UNL     1      31.650  -5.074 -22.222  0.00  0.00    +0.002 C 
ENDBRANCH  14  19
ENDBRANCH   2  17
BRANCH   3  23
ATOM     22  O   UNL     1      30.327 -10.339 -19.205  0.00  0.00    -0.245 OA
ATOM     23  C   UNL     1      31.499 -10.469 -19.573  0.00  0.00    +0.341 C 
BRANCH  23  24
ATOM     24  O   UNL     1      32.507  -9.713 -19.059  0.00  0.00    -0.477 OA
ATOM     25  H   UNL     1      32.445  -9.379 -18.185  0.00  0.00    +0.295 HD
ENDBRANCH  23  24
ENDBRANCH   3  23
TORSDOF 4
ENDMDL
MODEL 9
REMARK VINA RESULT:      -9.3     12.916     16.324
REMARK  Name = 909781
REMARK  4 active torsions:
REMARK  status: ('A' for Active; 'I' for Inactive)
REMARK    1  A    between atoms: C_2  and  C_17
REMARK    2  A    between atoms: C_3  and  C_23
REMARK    3  A    between atoms: C_14  and  C_19
REMARK    4  A    between atoms: C_23  and  O_24
REMARK                            x       y       z     vdW  Elec       q    Type
REMARK                         _______ _______ _______ _____ _____    ______ ____
ROOT
ATOM      1  N   UNL     1      32.721 -11.699 -22.957  0.00  0.00    -0.403 NA
ATOM      2  C   UNL     1      32.264 -10.912 -21.956  0.00  0.00    +0.168 C 
ATOM      3  C   UNL     1      31.937 -11.373 -20.696  0.00  0.00    +0.108 C 
ATOM      4  C   UNL     1      32.866 -13.016 -22.716  0.00  0.00    +0.113 C 
ATOM      5  C   UNL     1      32.559 -13.581 -21.461  0.00  0.00    +0.026 C 
ATOM      6  C   UNL     1      32.089 -12.730 -20.452  0.00  0.00    +0.011 C 
ATOM      7  C   UNL     1      33.332 -13.861 -23.719  0.00  0.00    +0.085 C 
ATOM      8  C   UNL     1      32.722 -14.959 -21.245  0.00  0.00    +0.002 C 
ATOM      9  C   UNL     1      33.495 -15.232 -23.504  0.00  0.00    -0.019 C 
ATOM     10  C   UNL     1      33.190 -15.782 -22.265  0.00  0.00    -0.004 C 
ENDROOT
BRANCH   2  17
ATOM     11  O   UNL     1      31.449  -6.330 -21.322  0.00  0.00    -0.273 OA
ATOM     12  N   UNL     1      32.331  -9.008 -23.481  0.00  0.00    -0.249 NA
ATOM     13  N   UNL     1      31.789  -8.628 -21.335  0.00  0.00    -0.266 N 
ATOM     14  C   UNL     1      32.087  -7.549 -23.341  0.00  0.00    +0.154 C 
ATOM     15  C   UNL     1      31.730  -7.379 -21.879  0.00  0.00    +0.247 C 
ATOM     16  C   UNL     1      30.923  -7.148 -24.238  0.00  0.00    +0.034 C 
ATOM     17  C   UNL     1      32.137  -9.505 -22.304  0.00  0.00    +0.160 C 
ATOM     18  H   UNL     1      31.608  -8.854 -20.394  0.00  0.00    +0.156 HD
BRANCH  14  19
ATOM     19  C   UNL     1      33.364  -6.792 -23.683  0.00  0.00    +0.029 C 
ATOM     20  C   UNL     1      34.540  -7.758 -23.836  0.00  0.00    +0.002 C 
ATOM     21  C   UNL     1      33.181  -5.968 -24.957  0.00  0.00    +0.002 C 
ENDBRANCH  14  19
ENDBRANCH   2  17
BRANCH   3  23
ATOM     22  O   UNL     1      30.263 -10.277 -19.386  0.00  0.00    -0.245 OA
ATOM     23  C   UNL     1      31.451 -10.495 -19.643  0.00  0.00    +0.341 C 
BRANCH  23  24
ATOM     24  O   UNL     1      32.462  -9.915 -18.942  0.00  0.00    -0.477 OA
ATOM     25  H   UNL     1      32.640  -9.000 -19.045  0.00  0.00    +0.295 HD
ENDBRANCH  23  24
ENDBRANCH   3  23
TORSDOF 4
ENDMDL
