MODEL 1
REMARK VINA RESULT:      -8.0      0.000      0.000
REMARK  Name = 448022
REMARK  5 active torsions:
REMARK  status: ('A' for Active; 'I' for Inactive)
REMARK    1  A    between atoms: N_2  and  CA_10
REMARK    2  A    between atoms: C_3  and  O_5
REMARK    3  A    between atoms: O_5  and  C_6
REMARK    4  A    between atoms: CA_10  and  C_11
REMARK    5  A    between atoms: CA_10  and  C_18
REMARK                            x       y       z     vdW  Elec       q    Type
REMARK                         _______ _______ _______ _____ _____    ______ ____
ROOT
ATOM      1  O   UNL     1      35.523 -15.926 -23.216  0.00  0.00    -0.226 OA
ATOM      2  N   UNL     1      34.103 -17.458 -22.205  0.00  0.00    -0.265 N 
ATOM      3  C   UNL     1      34.429 -16.228 -22.750  0.00  0.00    +0.402 C 
ATOM      4  H   UNL     1      33.188 -17.582 -21.861  0.00  0.00    +0.153 HD
ENDROOT
BRANCH   3   5
ATOM      5  O   UNL     1      33.351 -15.391 -22.695  0.00  0.00    -0.442 OA
BRANCH   5   6
ATOM      6  C   UNL     1      33.079 -14.806 -21.416  0.00  0.00    +0.138 C 
ATOM      7  C   UNL     1      34.403 -14.611 -20.680  0.00  0.00    +0.044 C 
ATOM      8  C   UNL     1      32.397 -13.461 -21.661  0.00  0.00    +0.044 C 
ATOM      9  C   UNL     1      32.156 -15.744 -20.640  0.00  0.00    +0.044 C 
ENDBRANCH   5   6
ENDBRANCH   3   5
BRANCH   2  10
ATOM     10  CA  UNL     1      35.013 -18.563 -22.108  0.00  0.00    +0.139 C 
BRANCH  10  11
ATOM     11  C   UNL     1      34.754 -19.381 -20.845  0.00  0.00    +0.026 C 
ATOM     12  C   UNL     1      33.355 -20.009 -20.885  0.00  0.00    +0.002 C 
ATOM     13  C   UNL     1      35.831 -20.460 -20.668  0.00  0.00    +0.002 C 
ATOM     14  C   UNL     1      33.090 -20.878 -19.657  0.00  0.00    +0.000 C 
ATOM     15  C   UNL     1      35.564 -21.327 -19.440  0.00  0.00    +0.000 C 
ATOM     16  C   UNL     1      34.169 -21.942 -19.478  0.00  0.00    +0.000 C 
ENDBRANCH  10  11
BRANCH  10  18
ATOM     17  O   UNL     1      34.422 -18.951 -24.417  0.00  0.00    -0.286 OA
ATOM     18  C   UNL     1      34.847 -19.396 -23.354  0.00  0.00    +0.227 C 
ENDBRANCH  10  18
ENDBRANCH   2  10
TORSDOF 5
ENDMDL
MODEL 2
REMARK VINA RESULT:      -7.5      1.808      2.553
REMARK  Name = 448022
REMARK  5 active torsions:
REMARK  status: ('A' for Active; 'I' for Inactive)
REMARK    1  A    between atoms: N_2  and  CA_10
REMARK    2  A    between atoms: C_3  and  O_5
REMARK    3  A    between atoms: O_5  and  C_6
REMARK    4  A    between atoms: CA_10  and  C_11
REMARK    5  A    between atoms: CA_10  and  C_18
REMARK                            x       y       z     vdW  Elec       q    Type
REMARK                         _______ _______ _______ _____ _____    ______ ____
ROOT
ATOM      1  O   UNL     1      33.508 -16.006 -22.215  0.00  0.00    -0.226 OA
ATOM      2  N   UNL     1      35.322 -16.144 -23.655  0.00  0.00    -0.265 N 
ATOM      3  C   UNL     1      34.363 -15.474 -22.914  0.00  0.00    +0.402 C 
ATOM      4  H   UNL     1      35.959 -15.606 -24.180  0.00  0.00    +0.153 HD
ENDROOT
BRANCH   3   5
ATOM      5  O   UNL     1      34.508 -14.125 -23.073  0.00  0.00    -0.442 OA
BRANCH   5   6
ATOM      6  C   UNL     1      33.442 -13.461 -23.762  0.00  0.00    +0.138 C 
ATOM      7  C   UNL     1      33.021 -14.322 -24.951  0.00  0.00    +0.044 C 
ATOM      8  C   UNL     1      32.285 -13.303 -22.777  0.00  0.00    +0.044 C 
ATOM      9  C   UNL     1      33.941 -12.094 -24.228  0.00  0.00    +0.044 C 
ENDBRANCH   5   6
ENDBRANCH   3   5
BRANCH   2  10
ATOM     10  CA  UNL     1      35.445 -17.573 -23.708  0.00  0.00    +0.139 C 
BRANCH  10  11
ATOM     11  C   UNL     1      35.357 -18.184 -22.311  0.00  0.00    +0.026 C 
ATOM     12  C   UNL     1      34.306 -19.300 -22.273  0.00  0.00    +0.002 C 
ATOM     13  C   UNL     1      36.727 -18.710 -21.862  0.00  0.00    +0.002 C 
ATOM     14  C   UNL     1      34.236 -19.964 -20.900  0.00  0.00    +0.000 C 
ATOM     15  C   UNL     1      36.654 -19.375 -20.489  0.00  0.00    +0.000 C 
ATOM     16  C   UNL     1      35.601 -20.477 -20.454  0.00  0.00    +0.000 C 
ENDBRANCH  10  11
BRANCH  10  18
ATOM     17  O   UNL     1      34.097 -17.607 -25.710  0.00  0.00    -0.286 OA
ATOM     18  C   UNL     1      34.352 -18.088 -24.609  0.00  0.00    +0.227 C 
ENDBRANCH  10  18
ENDBRANCH   2  10
TORSDOF 5
ENDMDL
MODEL 3
REMARK VINA RESULT:      -7.4      7.293     10.101
REMARK  Name = 448022
REMARK  5 active torsions:
REMARK  status: ('A' for Active; 'I' for Inactive)
REMARK    1  A    between atoms: N_2  and  CA_10
REMARK    2  A    between atoms: C_3  and  O_5
REMARK    3  A    between atoms: O_5  and  C_6
REMARK    4  A    between atoms: CA_10  and  C_11
REMARK    5  A    between atoms: CA_10  and  C_18
REMARK                            x       y       z     vdW  Elec       q    Type
REMARK                         _______ _______ _______ _____ _____    ______ ____
ROOT
ATOM      1  O   UNL     1      36.159 -25.570 -15.343  0.00  0.00    -0.226 OA
ATOM      2  N   UNL     1      35.185 -23.466 -15.246  0.00  0.00    -0.265 N 
ATOM      3  C   UNL     1      36.149 -24.411 -14.940  0.00  0.00    +0.402 C 
ATOM      4  H   UNL     1      35.285 -22.565 -14.861  0.00  0.00    +0.153 HD
ENDROOT
BRANCH   3   5
ATOM      5  O   UNL     1      37.096 -23.866 -14.120  0.00  0.00    -0.442 OA
BRANCH   5   6
ATOM      6  C   UNL     1      37.013 -24.237 -12.739  0.00  0.00    +0.138 C 
ATOM      7  C   UNL     1      37.910 -25.452 -12.507  0.00  0.00    +0.044 C 
ATOM      8  C   UNL     1      37.498 -23.047 -11.913  0.00  0.00    +0.044 C 
ATOM      9  C   UNL     1      35.558 -24.563 -12.409  0.00  0.00    +0.044 C 
ENDBRANCH   5   6
ENDBRANCH   3   5
BRANCH   2  10
ATOM     10  CA  UNL     1      34.050 -23.717 -16.086  0.00  0.00    +0.139 C 
BRANCH  10  11
ATOM     11  C   UNL     1      32.747 -23.362 -15.372  0.00  0.00    +0.026 C 
ATOM     12  C   UNL     1      31.601 -23.211 -16.380  0.00  0.00    +0.002 C 
ATOM     13  C   UNL     1      32.406 -24.417 -14.311  0.00  0.00    +0.002 C 
ATOM     14  C   UNL     1      30.275 -22.909 -15.685  0.00  0.00    +0.000 C 
ATOM     15  C   UNL     1      31.079 -24.113 -13.620  0.00  0.00    +0.000 C 
ATOM     16  C   UNL     1      29.944 -23.954 -14.626  0.00  0.00    +0.000 C 
ENDBRANCH  10  11
BRANCH  10  18
ATOM     17  O   UNL     1      35.328 -22.586 -17.795  0.00  0.00    -0.286 OA
ATOM     18  C   UNL     1      34.231 -22.906 -17.345  0.00  0.00    +0.227 C 
ENDBRANCH  10  18
ENDBRANCH   2  10
TORSDOF 5
ENDMDL
MODEL 4
REMARK VINA RESULT:      -7.3      2.840      6.708
REMARK  Name = 448022
REMARK  5 active torsions:
REMARK  status: ('A' for Active; 'I' for Inactive)
REMARK    1  A    between atoms: N_2  and  CA_10
REMARK    2  A    between atoms: C_3  and  O_5
REMARK    3  A    between atoms: O_5  and  C_6
REMARK    4  A    between atoms: CA_10  and  C_11
REMARK    5  A    between atoms: CA_10  and  C_18
REMARK                            x       y       z     vdW  Elec       q    Type
REMARK                         _______ _______ _______ _____ _____    ______ ____
ROOT
ATOM      1  O   UNL     1      34.954 -15.390 -20.486  0.00  0.00    -0.226 OA
ATOM      2  N   UNL     1      33.502 -15.362 -22.295  0.00  0.00    -0.265 N 
ATOM      3  C   UNL     1      34.204 -15.966 -21.266  0.00  0.00    +0.402 C 
ATOM      4  H   UNL     1      32.928 -15.930 -22.858  0.00  0.00    +0.153 HD
ENDROOT
BRANCH   3   5
ATOM      5  O   UNL     1      33.939 -17.306 -21.243  0.00  0.00    -0.442 OA
BRANCH   5   6
ATOM      6  C   UNL     1      34.877 -18.139 -21.934  0.00  0.00    +0.138 C 
ATOM      7  C   UNL     1      36.051 -18.427 -21.000  0.00  0.00    +0.044 C 
ATOM      8  C   UNL     1      34.155 -19.434 -22.305  0.00  0.00    +0.044 C 
ATOM      9  C   UNL     1      35.345 -17.406 -23.189  0.00  0.00    +0.044 C 
ENDBRANCH   5   6
ENDBRANCH   3   5
BRANCH   2  10
ATOM     10  CA  UNL     1      33.559 -13.959 -22.593  0.00  0.00    +0.139 C 
BRANCH  10  11
ATOM     11  C   UNL     1      33.899 -13.723 -24.064  0.00  0.00    +0.026 C 
ATOM     12  C   UNL     1      33.099 -14.672 -24.964  0.00  0.00    +0.002 C 
ATOM     13  C   UNL     1      33.644 -12.260 -24.450  0.00  0.00    +0.002 C 
ATOM     14  C   UNL     1      33.381 -14.419 -26.443  0.00  0.00    +0.000 C 
ATOM     15  C   UNL     1      33.925 -12.010 -25.930  0.00  0.00    +0.000 C 
ATOM     16  C   UNL     1      33.135 -12.962 -26.821  0.00  0.00    +0.000 C 
ENDBRANCH  10  11
BRANCH  10  18
ATOM     17  O   UNL     1      32.034 -12.671 -21.235  0.00  0.00    -0.286 OA
ATOM     18  C   UNL     1      32.221 -13.365 -22.231  0.00  0.00    +0.227 C 
ENDBRANCH  10  18
ENDBRANCH   2  10
TORSDOF 5
ENDMDL
MODEL 5
REMARK VINA RESULT:      -7.3      8.415     10.135
REMARK  Name = 448022
REMARK  5 active torsions:
REMARK  status: ('A' for Active; 'I' for Inactive)
REMARK    1  A    between atoms: N_2  and  CA_10
REMARK    2  A    between atoms: C_3  and  O_5
REMARK    3  A    between atoms: O_5  and  C_6
REMARK    4  A    between atoms: CA_10  and  C_11
REMARK    5  A    between atoms: CA_10  and  C_18
REMARK                            x       y       z     vdW  Elec       q    Type
REMARK                         _______ _______ _______ _____ _____    ______ ____
ROOT
ATOM      1  O   UNL     1      31.747 -25.260 -13.264  0.00  0.00    -0.226 OA
ATOM      2  N   UNL     1      33.262 -23.633 -13.931  0.00  0.00    -0.265 N 
ATOM      3  C   UNL     1      31.995 -24.132 -13.676  0.00  0.00    +0.402 C 
ATOM      4  H   UNL     1      33.335 -22.708 -14.260  0.00  0.00    +0.153 HD
ENDROOT
BRANCH   3   5
ATOM      5  O   UNL     1      31.053 -23.181 -13.952  0.00  0.00    -0.442 OA
BRANCH   5   6
ATOM      6  C   UNL     1      30.339 -23.350 -15.182  0.00  0.00    +0.138 C 
ATOM      7  C   UNL     1      29.820 -24.784 -15.251  0.00  0.00    +0.044 C 
ATOM      8  C   UNL     1      29.177 -22.358 -15.178  0.00  0.00    +0.044 C 
ATOM      9  C   UNL     1      31.291 -23.058 -16.341  0.00  0.00    +0.044 C 
ENDBRANCH   5   6
ENDBRANCH   3   5
BRANCH   2  10
ATOM     10  CA  UNL     1      34.473 -24.379 -13.744  0.00  0.00    +0.139 C 
BRANCH  10  11
ATOM     11  C   UNL     1      35.484 -24.071 -14.847  0.00  0.00    +0.026 C 
ATOM     12  C   UNL     1      35.022 -22.873 -15.686  0.00  0.00    +0.002 C 
ATOM     13  C   UNL     1      36.875 -23.816 -14.250  0.00  0.00    +0.002 C 
ATOM     14  C   UNL     1      36.043 -22.511 -16.762  0.00  0.00    +0.000 C 
ATOM     15  C   UNL     1      37.893 -23.453 -15.329  0.00  0.00    +0.000 C 
ATOM     16  C   UNL     1      37.426 -22.268 -16.166  0.00  0.00    +0.000 C 
ENDBRANCH  10  11
BRANCH  10  18
ATOM     17  O   UNL     1      34.972 -24.791 -11.418  0.00  0.00    -0.286 OA
ATOM     18  C   UNL     1      35.014 -24.029 -12.381  0.00  0.00    +0.227 C 
ENDBRANCH  10  18
ENDBRANCH   2  10
TORSDOF 5
ENDMDL
MODEL 6
REMARK VINA RESULT:      -7.3      2.776      3.764
REMARK  Name = 448022
REMARK  5 active torsions:
REMARK  status: ('A' for Active; 'I' for Inactive)
REMARK    1  A    between atoms: N_2  and  CA_10
REMARK    2  A    between atoms: C_3  and  O_5
REMARK    3  A    between atoms: O_5  and  C_6
REMARK    4  A    between atoms: CA_10  and  C_11
REMARK    5  A    between atoms: CA_10  and  C_18
REMARK                            x       y       z     vdW  Elec       q    Type
REMARK                         _______ _______ _______ _____ _____    ______ ____
ROOT
ATOM      1  O   UNL     1      33.863 -12.911 -23.747  0.00  0.00    -0.226 OA
ATOM      2  N   UNL     1      33.337 -15.170 -23.825  0.00  0.00    -0.265 N 
ATOM      3  C   UNL     1      33.223 -13.877 -23.345  0.00  0.00    +0.402 C 
ATOM      4  H   UNL     1      32.768 -15.864 -23.422  0.00  0.00    +0.153 HD
ENDROOT
BRANCH   3   5
ATOM      5  O   UNL     1      32.287 -13.828 -22.350  0.00  0.00    -0.442 OA
BRANCH   5   6
ATOM      6  C   UNL     1      32.755 -14.158 -21.038  0.00  0.00    +0.138 C 
ATOM      7  C   UNL     1      34.281 -14.206 -21.062  0.00  0.00    +0.044 C 
ATOM      8  C   UNL     1      32.267 -13.066 -20.087  0.00  0.00    +0.044 C 
ATOM      9  C   UNL     1      32.173 -15.514 -20.641  0.00  0.00    +0.044 C 
ENDBRANCH   5   6
ENDBRANCH   3   5
BRANCH   2  10
ATOM     10  CA  UNL     1      34.234 -15.562 -24.874  0.00  0.00    +0.139 C 
BRANCH  10  11
ATOM     11  C   UNL     1      34.937 -16.875 -24.535  0.00  0.00    +0.026 C 
ATOM     12  C   UNL     1      35.172 -16.989 -23.024  0.00  0.00    +0.002 C 
ATOM     13  C   UNL     1      34.127 -18.072 -25.053  0.00  0.00    +0.002 C 
ATOM     14  C   UNL     1      35.825 -18.319 -22.653  0.00  0.00    +0.000 C 
ATOM     15  C   UNL     1      34.782 -19.400 -24.680  0.00  0.00    +0.000 C 
ATOM     16  C   UNL     1      35.023 -19.505 -23.177  0.00  0.00    +0.000 C 
ENDBRANCH  10  11
BRANCH  10  18
ATOM     17  O   UNL     1      33.451 -14.840 -27.041  0.00  0.00    -0.286 OA
ATOM     18  C   UNL     1      33.426 -15.677 -26.142  0.00  0.00    +0.227 C 
ENDBRANCH  10  18
ENDBRANCH   2  10
TORSDOF 5
ENDMDL
MODEL 7
REMARK VINA RESULT:      -7.3      5.212      7.518
REMARK  Name = 448022
REMARK  5 active torsions:
REMARK  status: ('A' for Active; 'I' for Inactive)
REMARK    1  A    between atoms: N_2  and  CA_10
REMARK    2  A    between atoms: C_3  and  O_5
REMARK    3  A    between atoms: O_5  and  C_6
REMARK    4  A    between atoms: CA_10  and  C_11
REMARK    5  A    between atoms: CA_10  and  C_18
REMARK                            x       y       z     vdW  Elec       q    Type
REMARK                         _______ _______ _______ _____ _____    ______ ____
ROOT
ATOM      1  O   UNL     1      30.868  -9.349 -22.977  0.00  0.00    -0.226 OA
ATOM      2  N   UNL     1      32.495 -10.961 -22.603  0.00  0.00    -0.265 N 
ATOM      3  C   UNL     1      32.022  -9.751 -23.082  0.00  0.00    +0.402 C 
ATOM      4  H   UNL     1      33.445 -11.174 -22.747  0.00  0.00    +0.153 HD
ENDROOT
BRANCH   3   5
ATOM      5  O   UNL     1      33.032  -9.062 -23.692  0.00  0.00    -0.442 OA
BRANCH   5   6
ATOM      6  C   UNL     1      33.373  -7.802 -23.102  0.00  0.00    +0.138 C 
ATOM      7  C   UNL     1      33.076  -7.870 -21.605  0.00  0.00    +0.044 C 
ATOM      8  C   UNL     1      34.864  -7.570 -23.343  0.00  0.00    +0.044 C 
ATOM      9  C   UNL     1      32.543  -6.710 -23.774  0.00  0.00    +0.044 C 
ENDBRANCH   5   6
ENDBRANCH   3   5
BRANCH   2  10
ATOM     10  CA  UNL     1      31.687 -11.923 -21.910  0.00  0.00    +0.139 C 
BRANCH  10  11
ATOM     11  C   UNL     1      32.249 -13.334 -22.075  0.00  0.00    +0.026 C 
ATOM     12  C   UNL     1      33.428 -13.336 -23.057  0.00  0.00    +0.002 C 
ATOM     13  C   UNL     1      32.669 -13.912 -20.717  0.00  0.00    +0.002 C 
ATOM     14  C   UNL     1      34.042 -14.727 -23.198  0.00  0.00    +0.000 C 
ATOM     15  C   UNL     1      33.284 -15.302 -20.861  0.00  0.00    +0.000 C 
ATOM     16  C   UNL     1      34.449 -15.302 -21.845  0.00  0.00    +0.000 C 
ENDBRANCH  10  11
BRANCH  10  18
ATOM     17  O   UNL     1      30.759 -10.795 -19.988  0.00  0.00    -0.286 OA
ATOM     18  C   UNL     1      31.637 -11.512 -20.460  0.00  0.00    +0.227 C 
ENDBRANCH  10  18
ENDBRANCH   2  10
TORSDOF 5
ENDMDL
MODEL 8
REMARK VINA RESULT:      -7.3      4.159      8.560
REMARK  Name = 448022
REMARK  5 active torsions:
REMARK  status: ('A' for Active; 'I' for Inactive)
REMARK    1  A    between atoms: N_2  and  CA_10
REMARK    2  A    between atoms: C_3  and  O_5
REMARK    3  A    between atoms: O_5  and  C_6
REMARK    4  A    between atoms: CA_10  and  C_11
REMARK    5  A    between atoms: CA_10  and  C_18
REMARK                            x       y       z     vdW  Elec       q    Type
REMARK                         _______ _______ _______ _____ _____    ______ ____
ROOT
ATOM      1  O   UNL     1      33.009 -14.237 -24.396  0.00  0.00    -0.226 OA
ATOM      2  N   UNL     1      34.228 -12.441 -23.575  0.00  0.00    -0.265 N 
ATOM      3  C   UNL     1      33.878 -13.778 -23.663  0.00  0.00    +0.402 C 
ATOM      4  H   UNL     1      34.945 -12.193 -22.947  0.00  0.00    +0.153 HD
ENDROOT
BRANCH   3   5
ATOM      5  O   UNL     1      34.646 -14.520 -22.810  0.00  0.00    -0.442 OA
BRANCH   5   6
ATOM      6  C   UNL     1      33.941 -15.186 -21.756  0.00  0.00    +0.138 C 
ATOM      7  C   UNL     1      33.948 -16.687 -22.039  0.00  0.00    +0.044 C 
ATOM      8  C   UNL     1      34.673 -14.882 -20.450  0.00  0.00    +0.044 C 
ATOM      9  C   UNL     1      32.513 -14.646 -21.709  0.00  0.00    +0.044 C 
ENDBRANCH   5   6
ENDBRANCH   3   5
BRANCH   2  10
ATOM     10  CA  UNL     1      33.611 -11.396 -24.340  0.00  0.00    +0.139 C 
BRANCH  10  11
ATOM     11  C   UNL     1      33.685 -10.059 -23.605  0.00  0.00    +0.026 C 
ATOM     12  C   UNL     1      34.765  -9.161 -24.222  0.00  0.00    +0.002 C 
ATOM     13  C   UNL     1      32.320  -9.358 -23.618  0.00  0.00    +0.002 C 
ATOM     14  C   UNL     1      34.822  -7.797 -23.539  0.00  0.00    +0.000 C 
ATOM     15  C   UNL     1      32.380  -7.994 -22.936  0.00  0.00    +0.000 C 
ATOM     16  C   UNL     1      33.462  -7.108 -23.545  0.00  0.00    +0.000 C 
ENDBRANCH  10  11
BRANCH  10  18
ATOM     17  O   UNL     1      33.960 -11.982 -26.656  0.00  0.00    -0.286 OA
ATOM     18  C   UNL     1      34.313 -11.337 -25.673  0.00  0.00    +0.227 C 
ENDBRANCH  10  18
ENDBRANCH   2  10
TORSDOF 5
ENDMDL
MODEL 9
REMARK VINA RESULT:      -7.3      2.223      6.616
REMARK  Name = 448022
REMARK  5 active torsions:
REMARK  status: ('A' for Active; 'I' for Inactive)
REMARK    1  A    between atoms: N_2  and  CA_10
REMARK    2  A    between atoms: C_3  and  O_5
REMARK    3  A    between atoms: O_5  and  C_6
REMARK    4  A    between atoms: CA_10  and  C_11
REMARK    5  A    between atoms: CA_10  and  C_18
REMARK                            x       y       z     vdW  Elec       q    Type
REMARK                         _______ _______ _______ _____ _____    ______ ____
ROOT
ATOM      1  O   UNL     1      33.234 -16.146 -21.204  0.00  0.00    -0.226 OA
ATOM      2  N   UNL     1      34.346 -15.730 -23.198  0.00  0.00    -0.265 N 
ATOM      3  C   UNL     1      34.209 -16.282 -21.936  0.00  0.00    +0.402 C 
ATOM      4  H   UNL     1      35.178 -15.910 -23.692  0.00  0.00    +0.153 HD
ENDROOT
BRANCH   3   5
ATOM      5  O   UNL     1      35.323 -17.007 -21.618  0.00  0.00    -0.442 OA
BRANCH   5   6
ATOM      6  C   UNL     1      35.214 -18.424 -21.791  0.00  0.00    +0.138 C 
ATOM      7  C   UNL     1      35.228 -18.734 -23.287  0.00  0.00    +0.044 C 
ATOM      8  C   UNL     1      36.416 -19.065 -21.099  0.00  0.00    +0.044 C 
ATOM      9  C   UNL     1      33.911 -18.895 -21.149  0.00  0.00    +0.044 C 
ENDBRANCH   5   6
ENDBRANCH   3   5
BRANCH   2  10
ATOM     10  CA  UNL     1      33.353 -14.910 -23.830  0.00  0.00    +0.139 C 
BRANCH  10  11
ATOM     11  C   UNL     1      33.478 -13.454 -23.388  0.00  0.00    +0.026 C 
ATOM     12  C   UNL     1      33.809 -12.551 -24.582  0.00  0.00    +0.002 C 
ATOM     13  C   UNL     1      32.192 -12.987 -22.691  0.00  0.00    +0.002 C 
ATOM     14  C   UNL     1      33.887 -11.081 -24.176  0.00  0.00    +0.000 C 
ATOM     15  C   UNL     1      32.272 -11.517 -22.287  0.00  0.00    +0.000 C 
ATOM     16  C   UNL     1      32.611 -10.624 -23.475  0.00  0.00    +0.000 C 
ENDBRANCH  10  11
BRANCH  10  18
ATOM     17  O   UNL     1      34.099 -16.006 -25.848  0.00  0.00    -0.286 OA
ATOM     18  C   UNL     1      33.529 -15.054 -25.321  0.00  0.00    +0.227 C 
ENDBRANCH  10  18
ENDBRANCH   2  10
TORSDOF 5
ENDMDL
