MODEL 1
REMARK VINA RESULT:      -9.1      0.000      0.000
REMARK  Name = 9782
REMARK  5 active torsions:
REMARK  status: ('A' for Active; 'I' for Inactive)
REMARK    1  A    between atoms: C_7  and  O_23
REMARK    2  A    between atoms: C_7  and  C_28
REMARK    3  A    between atoms: C_11  and  O_25
REMARK    4  A    between atoms: C_28  and  C_29
REMARK    5  A    between atoms: C_29  and  O_30
REMARK                            x       y       z     vdW  Elec       q    Type
REMARK                         _______ _______ _______ _____ _____    ______ ____
ROOT
ATOM      1  F   UNL     1      35.678 -25.497 -14.877  0.00  0.00    -0.237 F 
ATOM      2  O   UNL     1      40.516 -26.121 -14.894  0.00  0.00    -0.287 OA
ATOM      3  C   UNL     1      32.609 -23.884 -14.303  0.00  0.00    +0.032 C 
ATOM      4  C   UNL     1      33.560 -23.725 -15.510  0.00  0.00    +0.005 C 
ATOM      5  C   UNL     1      34.972 -23.261 -15.116  0.00  0.00    +0.033 C 
ATOM      6  C   UNL     1      35.608 -24.318 -14.150  0.00  0.00    +0.164 C 
ATOM      7  C   UNL     1      31.294 -24.278 -15.044  0.00  0.00    +0.141 C 
ATOM      8  C   UNL     1      32.748 -22.870 -16.477  0.00  0.00    +0.003 C 
ATOM      9  C   UNL     1      33.215 -24.963 -13.381  0.00  0.00    +0.035 C 
ATOM     10  C   UNL     1      31.321 -23.470 -16.381  0.00  0.00    +0.032 C 
ATOM     11  C   UNL     1      34.669 -24.656 -12.953  0.00  0.00    +0.141 C 
ATOM     12  C   UNL     1      37.101 -23.961 -13.779  0.00  0.00    +0.064 C 
ATOM     13  C   UNL     1      35.840 -23.063 -16.374  0.00  0.00    +0.007 C 
ATOM     14  C   UNL     1      32.392 -22.563 -13.514  0.00  0.00    +0.003 C 
ATOM     15  C   UNL     1      37.283 -22.718 -16.031  0.00  0.00    +0.023 C 
ATOM     16  C   UNL     1      37.861 -23.747 -15.093  0.00  0.00    -0.035 C 
ATOM     17  C   UNL     1      30.265 -22.381 -16.546  0.00  0.00    +0.003 C 
ATOM     18  C   UNL     1      37.250 -22.678 -12.929  0.00  0.00    +0.011 C 
ATOM     19  C   UNL     1      37.723 -25.083 -12.961  0.00  0.00    -0.017 C 
ATOM     20  C   UNL     1      38.953 -24.444 -15.446  0.00  0.00    +0.034 C 
ATOM     21  C   UNL     1      38.809 -25.783 -13.308  0.00  0.00    +0.038 C 
ATOM     22  C   UNL     1      39.509 -25.498 -14.574  0.00  0.00    +0.195 C 
ENDROOT
BRANCH   7  23
ATOM     23  O   UNL     1      31.317 -25.674 -15.371  0.00  0.00    -0.380 OA
ATOM     24  H   UNL     1      31.950 -26.130 -14.793  0.00  0.00    +0.211 HD
ENDBRANCH   7  23
BRANCH  11  25
ATOM     25  O   UNL     1      34.675 -23.627 -11.976  0.00  0.00    -0.382 OA
ATOM     26  H   UNL     1      33.793 -23.551 -11.581  0.00  0.00    +0.210 HD
ENDBRANCH  11  25
BRANCH   7  28
ATOM     27  O   UNL     1      30.087 -23.742 -13.059  0.00  0.00    -0.291 OA
ATOM     28  C   UNL     1      30.051 -24.176 -14.210  0.00  0.00    +0.204 C 
BRANCH  28  29
ATOM     29  C   UNL     1      28.765 -24.634 -14.865  0.00  0.00    +0.204 C 
BRANCH  29  30
ATOM     30  O   UNL     1      28.321 -25.847 -14.297  0.00  0.00    -0.375 OA
ATOM     31  H   UNL     1      27.532 -25.681 -13.756  0.00  0.00    +0.211 HD
ENDBRANCH  29  30
ENDBRANCH  28  29
ENDBRANCH   7  28
TORSDOF 5
ENDMDL
MODEL 2
REMARK VINA RESULT:      -8.2     15.018     17.272
REMARK  Name = 9782
REMARK  5 active torsions:
REMARK  status: ('A' for Active; 'I' for Inactive)
REMARK    1  A    between atoms: C_7  and  O_23
REMARK    2  A    between atoms: C_7  and  C_28
REMARK    3  A    between atoms: C_11  and  O_25
REMARK    4  A    between atoms: C_28  and  C_29
REMARK    5  A    between atoms: C_29  and  O_30
REMARK                            x       y       z     vdW  Elec       q    Type
REMARK                         _______ _______ _______ _____ _____    ______ ____
ROOT
ATOM      1  F   UNL     1      31.746  -9.467 -24.256  0.00  0.00    -0.237 F 
ATOM      2  O   UNL     1      30.661  -4.713 -24.106  0.00  0.00    -0.287 OA
ATOM      3  C   UNL     1      33.506 -12.424 -23.547  0.00  0.00    +0.032 C 
ATOM      4  C   UNL     1      32.392 -11.753 -22.713  0.00  0.00    +0.005 C 
ATOM      5  C   UNL     1      32.730 -10.315 -22.289  0.00  0.00    +0.033 C 
ATOM      6  C   UNL     1      32.952  -9.441 -23.571  0.00  0.00    +0.164 C 
ATOM      7  C   UNL     1      32.887 -13.844 -23.736  0.00  0.00    +0.141 C 
ATOM      8  C   UNL     1      32.100 -12.790 -21.633  0.00  0.00    +0.003 C 
ATOM      9  C   UNL     1      33.684 -11.588 -24.832  0.00  0.00    +0.035 C 
ATOM     10  C   UNL     1      32.121 -14.135 -22.405  0.00  0.00    +0.032 C 
ATOM     11  C   UNL     1      33.970 -10.094 -24.555  0.00  0.00    +0.141 C 
ATOM     12  C   UNL     1      33.206  -7.923 -23.218  0.00  0.00    +0.064 C 
ATOM     13  C   UNL     1      31.604  -9.738 -21.411  0.00  0.00    +0.007 C 
ATOM     14  C   UNL     1      34.857 -12.537 -22.787  0.00  0.00    +0.003 C 
ATOM     15  C   UNL     1      31.836  -8.273 -21.062  0.00  0.00    +0.023 C 
ATOM     16  C   UNL     1      32.056  -7.464 -22.314  0.00  0.00    -0.035 C 
ATOM     17  C   UNL     1      32.672 -15.254 -21.527  0.00  0.00    +0.003 C 
ATOM     18  C   UNL     1      34.533  -7.664 -22.469  0.00  0.00    +0.011 C 
ATOM     19  C   UNL     1      33.271  -7.091 -24.491  0.00  0.00    -0.017 C 
ATOM     20  C   UNL     1      31.242  -6.436 -22.606  0.00  0.00    +0.034 C 
ATOM     21  C   UNL     1      32.462  -6.068 -24.788  0.00  0.00    +0.038 C 
ATOM     22  C   UNL     1      31.397  -5.661 -23.853  0.00  0.00    +0.195 C 
ENDROOT
BRANCH   7  23
ATOM     23  O   UNL     1      31.930 -13.821 -24.802  0.00  0.00    -0.380 OA
ATOM     24  H   UNL     1      31.852 -12.917 -25.147  0.00  0.00    +0.211 HD
ENDBRANCH   7  23
BRANCH  11  25
ATOM     25  O   UNL     1      35.307  -9.935 -24.106  0.00  0.00    -0.382 OA
ATOM     26  H   UNL     1      35.681 -10.803 -23.891  0.00  0.00    +0.210 HD
ENDBRANCH  11  25
BRANCH   7  28
ATOM     27  O   UNL     1      34.925 -15.078 -23.634  0.00  0.00    -0.291 OA
ATOM     28  C   UNL     1      33.853 -14.890 -24.209  0.00  0.00    +0.204 C 
BRANCH  28  29
ATOM     29  C   UNL     1      33.432 -15.691 -25.423  0.00  0.00    +0.204 C 
BRANCH  29  30
ATOM     30  O   UNL     1      33.746 -14.997 -26.611  0.00  0.00    -0.375 OA
ATOM     31  H   UNL     1      33.144 -14.244 -26.716  0.00  0.00    +0.211 HD
ENDBRANCH  29  30
ENDBRANCH  28  29
ENDBRANCH   7  28
TORSDOF 5
ENDMDL
MODEL 3
REMARK VINA RESULT:      -7.4      1.881      7.089
REMARK  Name = 9782
REMARK  5 active torsions:
REMARK  status: ('A' for Active; 'I' for Inactive)
REMARK    1  A    between atoms: C_7  and  O_23
REMARK    2  A    between atoms: C_7  and  C_28
REMARK    3  A    between atoms: C_11  and  O_25
REMARK    4  A    between atoms: C_28  and  C_29
REMARK    5  A    between atoms: C_29  and  O_30
REMARK                            x       y       z     vdW  Elec       q    Type
REMARK                         _______ _______ _______ _____ _____    ______ ____
ROOT
ATOM      1  F   UNL     1      32.106 -22.483 -14.311  0.00  0.00    -0.237 F 
ATOM      2  O   UNL     1      27.432 -21.648 -15.431  0.00  0.00    -0.287 OA
ATOM      3  C   UNL     1      35.203 -24.142 -14.311  0.00  0.00    +0.032 C 
ATOM      4  C   UNL     1      34.664 -23.127 -15.343  0.00  0.00    +0.005 C 
ATOM      5  C   UNL     1      33.344 -23.566 -15.999  0.00  0.00    +0.033 C 
ATOM      6  C   UNL     1      32.252 -23.736 -14.888  0.00  0.00    +0.164 C 
ATOM      7  C   UNL     1      36.539 -23.441 -13.913  0.00  0.00    +0.141 C 
ATOM      8  C   UNL     1      35.875 -22.865 -16.232  0.00  0.00    +0.003 C 
ATOM      9  C   UNL     1      34.145 -24.266 -13.194  0.00  0.00    +0.035 C 
ATOM     10  C   UNL     1      37.049 -22.762 -15.224  0.00  0.00    +0.032 C 
ATOM     11  C   UNL     1      32.741 -24.645 -13.720  0.00  0.00    +0.141 C 
ATOM     12  C   UNL     1      30.838 -24.090 -15.495  0.00  0.00    +0.064 C 
ATOM     13  C   UNL     1      32.905 -22.537 -17.058  0.00  0.00    +0.007 C 
ATOM     14  C   UNL     1      35.504 -25.538 -14.924  0.00  0.00    +0.003 C 
ATOM     15  C   UNL     1      31.542 -22.867 -17.653  0.00  0.00    +0.023 C 
ATOM     16  C   UNL     1      30.518 -23.034 -16.559  0.00  0.00    -0.035 C 
ATOM     17  C   UNL     1      38.333 -23.320 -15.831  0.00  0.00    +0.003 C 
ATOM     18  C   UNL     1      30.771 -25.480 -16.169  0.00  0.00    +0.011 C 
ATOM     19  C   UNL     1      29.783 -24.101 -14.398  0.00  0.00    -0.017 C 
ATOM     20  C   UNL     1      29.427 -22.252 -16.532  0.00  0.00    +0.034 C 
ATOM     21  C   UNL     1      28.694 -23.324 -14.364  0.00  0.00    +0.038 C 
ATOM     22  C   UNL     1      28.435 -22.353 -15.442  0.00  0.00    +0.195 C 
ENDROOT
BRANCH   7  23
ATOM     23  O   UNL     1      36.281 -22.410 -12.952  0.00  0.00    -0.380 OA
ATOM     24  H   UNL     1      35.388 -22.523 -12.588  0.00  0.00    +0.211 HD
ENDBRANCH   7  23
BRANCH  11  25
ATOM     25  O   UNL     1      32.717 -26.018 -14.080  0.00  0.00    -0.382 OA
ATOM     26  H   UNL     1      32.184 -26.132 -14.882  0.00  0.00    +0.210 HD
ENDBRANCH  11  25
BRANCH   7  28
ATOM     27  O   UNL     1      38.045 -25.280 -13.723  0.00  0.00    -0.291 OA
ATOM     28  C   UNL     1      37.509 -24.317 -13.176  0.00  0.00    +0.204 C 
BRANCH  28  29
ATOM     29  C   UNL     1      37.785 -23.946 -11.734  0.00  0.00    +0.204 C 
BRANCH  29  30
ATOM     30  O   UNL     1      38.710 -22.881 -11.662  0.00  0.00    -0.375 OA
ATOM     31  H   UNL     1      38.397 -22.143 -12.208  0.00  0.00    +0.211 HD
ENDBRANCH  29  30
ENDBRANCH  28  29
ENDBRANCH   7  28
TORSDOF 5
ENDMDL
MODEL 4
REMARK VINA RESULT:      -6.6      1.646      7.245
REMARK  Name = 9782
REMARK  5 active torsions:
REMARK  status: ('A' for Active; 'I' for Inactive)
REMARK    1  A    between atoms: C_7  and  O_23
REMARK    2  A    between atoms: C_7  and  C_28
REMARK    3  A    between atoms: C_11  and  O_25
REMARK    4  A    between atoms: C_28  and  C_29
REMARK    5  A    between atoms: C_29  and  O_30
REMARK                            x       y       z     vdW  Elec       q    Type
REMARK                         _______ _______ _______ _____ _____    ______ ____
ROOT
ATOM      1  F   UNL     1      33.128 -25.614 -14.196  0.00  0.00    -0.237 F 
ATOM      2  O   UNL     1      28.256 -25.572 -14.445  0.00  0.00    -0.287 OA
ATOM      3  C   UNL     1      36.406 -24.371 -14.427  0.00  0.00    +0.032 C 
ATOM      4  C   UNL     1      35.419 -24.245 -13.246  0.00  0.00    +0.005 C 
ATOM      5  C   UNL     1      34.103 -23.546 -13.623  0.00  0.00    +0.033 C 
ATOM      6  C   UNL     1      33.390 -24.370 -14.750  0.00  0.00    +0.164 C 
ATOM      7  C   UNL     1      37.617 -25.035 -13.699  0.00  0.00    +0.141 C 
ATOM      8  C   UNL     1      36.281 -23.645 -12.140  0.00  0.00    +0.003 C 
ATOM      9  C   UNL     1      35.718 -25.226 -15.512  0.00  0.00    +0.035 C 
ATOM     10  C   UNL     1      37.621 -24.415 -12.266  0.00  0.00    +0.032 C 
ATOM     11  C   UNL     1      34.342 -24.670 -15.946  0.00  0.00    +0.141 C 
ATOM     12  C   UNL     1      31.979 -23.767 -15.122  0.00  0.00    +0.064 C 
ATOM     13  C   UNL     1      33.200 -23.401 -12.383  0.00  0.00    +0.007 C 
ATOM     14  C   UNL     1      36.836 -22.999 -15.016  0.00  0.00    +0.003 C 
ATOM     15  C   UNL     1      31.835 -22.820 -12.728  0.00  0.00    +0.023 C 
ATOM     16  C   UNL     1      31.181 -23.628 -13.820  0.00  0.00    -0.035 C 
ATOM     17  C   UNL     1      38.799 -23.511 -11.912  0.00  0.00    +0.003 C 
ATOM     18  C   UNL     1      32.044 -22.374 -15.791  0.00  0.00    +0.011 C 
ATOM     19  C   UNL     1      31.263 -24.676 -16.110  0.00  0.00    -0.017 C 
ATOM     20  C   UNL     1      29.990 -24.211 -13.608  0.00  0.00    +0.034 C 
ATOM     21  C   UNL     1      30.078 -25.261 -15.904  0.00  0.00    +0.038 C 
ATOM     22  C   UNL     1      29.352 -25.055 -14.638  0.00  0.00    +0.195 C 
ENDROOT
BRANCH   7  23
ATOM     23  O   UNL     1      37.395 -26.445 -13.571  0.00  0.00    -0.380 OA
ATOM     24  H   UNL     1      38.137 -26.847 -13.092  0.00  0.00    +0.211 HD
ENDBRANCH   7  23
BRANCH  11  25
ATOM     25  O   UNL     1      34.523 -23.529 -16.771  0.00  0.00    -0.382 OA
ATOM     26  H   UNL     1      33.703 -23.347 -17.255  0.00  0.00    +0.210 HD
ENDBRANCH  11  25
BRANCH   7  28
ATOM     27  O   UNL     1      39.157 -24.075 -15.245  0.00  0.00    -0.291 OA
ATOM     28  C   UNL     1      38.906 -24.993 -14.465  0.00  0.00    +0.204 C 
BRANCH  28  29
ATOM     29  C   UNL     1      39.869 -26.136 -14.220  0.00  0.00    +0.204 C 
BRANCH  29  30
ATOM     30  O   UNL     1      40.893 -26.141 -15.191  0.00  0.00    -0.375 OA
ATOM     31  H   UNL     1      41.714 -25.806 -14.797  0.00  0.00    +0.211 HD
ENDBRANCH  29  30
ENDBRANCH  28  29
ENDBRANCH   7  28
TORSDOF 5
ENDMDL
