MODEL 1
REMARK VINA RESULT:      -8.3      0.000      0.000
REMARK  Name = 3053755
REMARK  0 active torsions:
REMARK  status: ('A' for Active; 'I' for Inactive)
REMARK                            x       y       z     vdW  Elec       q    Type
REMARK                         _______ _______ _______ _____ _____    ______ ____
ROOT
ATOM      1 CL   UNL     1      40.887 -26.517 -14.193  0.00  0.00    -0.082 Cl
ATOM      2  O   UNL     1      35.217 -25.291 -15.149  0.00  0.00    -0.466 OA
ATOM      3  O   UNL     1      34.938 -24.117 -11.079  0.00  0.00    -0.275 OA
ATOM      4  N   UNL     1      34.340 -24.144 -13.291  0.00  0.00    -0.277 N 
ATOM      5  N   UNL     1      34.685 -22.393 -17.164  0.00  0.00    +0.386 N 
ATOM      6  C   UNL     1      35.644 -22.855 -14.939  0.00  0.00    +0.039 C 
ATOM      7  C   UNL     1      34.678 -24.025 -14.709  0.00  0.00    +0.189 C 
ATOM      8  C   UNL     1      36.881 -23.156 -14.086  0.00  0.00    +0.037 C 
ATOM      9  C   UNL     1      35.939 -22.637 -16.434  0.00  0.00    -0.072 C 
ATOM     10  C   UNL     1      33.411 -23.777 -15.542  0.00  0.00    +0.037 C 
ATOM     11  C   UNL     1      36.469 -23.081 -12.609  0.00  0.00    +0.090 C 
ATOM     12  C   UNL     1      33.747 -23.515 -17.016  0.00  0.00    -0.072 C 
ATOM     13  C   UNL     1      37.408 -24.536 -14.400  0.00  0.00    +0.013 C 
ATOM     14  C   UNL     1      35.200 -23.847 -12.252  0.00  0.00    +0.225 C 
ATOM     15  C   UNL     1      36.544 -25.520 -14.895  0.00  0.00    +0.136 C 
ATOM     16  C   UNL     1      34.958 -22.134 -18.578  0.00  0.00    -0.101 C 
ATOM     17  C   UNL     1      38.754 -24.856 -14.180  0.00  0.00    +0.010 C 
ATOM     18  C   UNL     1      37.022 -26.799 -15.185  0.00  0.00    +0.038 C 
ATOM     19  C   UNL     1      39.229 -26.136 -14.464  0.00  0.00    +0.058 C 
ATOM     20  C   UNL     1      38.365 -27.106 -14.967  0.00  0.00    +0.014 C 
ATOM     21  H   UNL     1      33.435 -24.457 -13.060  0.00  0.00    +0.152 HD
ATOM     22  H   UNL     1      34.246 -21.566 -16.758  0.00  0.00    -0.080 HD
ENDROOT
TORSDOF 0
ENDMDL
MODEL 2
REMARK VINA RESULT:      -7.3     16.742     19.170
REMARK  Name = 3053755
REMARK  0 active torsions:
REMARK  status: ('A' for Active; 'I' for Inactive)
REMARK                            x       y       z     vdW  Elec       q    Type
REMARK                         _______ _______ _______ _____ _____    ______ ____
ROOT
ATOM      1 CL   UNL     1      31.460  -3.249 -24.082  0.00  0.00    -0.082 Cl
ATOM      2  O   UNL     1      31.469  -9.108 -23.601  0.00  0.00    -0.466 OA
ATOM      3  O   UNL     1      35.366  -9.092 -25.283  0.00  0.00    -0.275 OA
ATOM      4  N   UNL     1      33.631  -9.927 -24.042  0.00  0.00    -0.277 N 
ATOM      5  N   UNL     1      31.731 -10.282 -20.240  0.00  0.00    +0.386 N 
ATOM      6  C   UNL     1      33.170  -9.020 -21.796  0.00  0.00    +0.039 C 
ATOM      7  C   UNL     1      32.606  -9.772 -23.009  0.00  0.00    +0.189 C 
ATOM      8  C   UNL     1      33.646  -7.664 -22.326  0.00  0.00    +0.037 C 
ATOM      9  C   UNL     1      32.148  -8.931 -20.647  0.00  0.00    -0.072 C 
ATOM     10  C   UNL     1      32.112 -11.149 -22.537  0.00  0.00    +0.037 C 
ATOM     11  C   UNL     1      34.839  -7.912 -23.261  0.00  0.00    +0.090 C 
ATOM     12  C   UNL     1      31.134 -11.024 -21.361  0.00  0.00    -0.072 C 
ATOM     13  C   UNL     1      32.535  -6.980 -23.086  0.00  0.00    +0.013 C 
ATOM     14  C   UNL     1      34.627  -9.007 -24.301  0.00  0.00    +0.225 C 
ATOM     15  C   UNL     1      31.526  -7.742 -23.688  0.00  0.00    +0.136 C 
ATOM     16  C   UNL     1      30.798 -10.213 -19.116  0.00  0.00    -0.101 C 
ATOM     17  C   UNL     1      32.510  -5.586 -23.218  0.00  0.00    +0.010 C 
ATOM     18  C   UNL     1      30.497  -7.118 -24.395  0.00  0.00    +0.038 C 
ATOM     19  C   UNL     1      31.484  -4.964 -23.929  0.00  0.00    +0.058 C 
ATOM     20  C   UNL     1      30.478  -5.730 -24.516  0.00  0.00    +0.014 C 
ATOM     21  H   UNL     1      33.609 -10.744 -24.591  0.00  0.00    +0.152 HD
ATOM     22  H   UNL     1      32.565 -10.789 -19.943  0.00  0.00    -0.080 HD
ENDROOT
TORSDOF 0
ENDMDL
MODEL 3
REMARK VINA RESULT:      -7.0      2.775      4.942
REMARK  Name = 3053755
REMARK  0 active torsions:
REMARK  status: ('A' for Active; 'I' for Inactive)
REMARK                            x       y       z     vdW  Elec       q    Type
REMARK                         _______ _______ _______ _____ _____    ______ ____
ROOT
ATOM      1 CL   UNL     1      34.801 -22.032 -19.209  0.00  0.00    -0.082 Cl
ATOM      2  O   UNL     1      37.585 -22.968 -14.117  0.00  0.00    -0.466 OA
ATOM      3  O   UNL     1      33.779 -23.365 -12.280  0.00  0.00    -0.275 OA
ATOM      4  N   UNL     1      36.037 -23.690 -12.499  0.00  0.00    -0.277 N 
ATOM      5  N   UNL     1      39.228 -26.132 -13.928  0.00  0.00    +0.386 N 
ATOM      6  C   UNL     1      36.895 -25.352 -14.106  0.00  0.00    +0.039 C 
ATOM      7  C   UNL     1      37.201 -24.088 -13.291  0.00  0.00    +0.189 C 
ATOM      8  C   UNL     1      35.700 -24.999 -14.997  0.00  0.00    +0.037 C 
ATOM      9  C   UNL     1      38.132 -25.858 -14.871  0.00  0.00    -0.072 C 
ATOM     10  C   UNL     1      38.396 -24.383 -12.372  0.00  0.00    +0.037 C 
ATOM     11  C   UNL     1      34.481 -24.775 -14.089  0.00  0.00    +0.090 C 
ATOM     12  C   UNL     1      39.593 -24.932 -13.161  0.00  0.00    -0.072 C 
ATOM     13  C   UNL     1      35.988 -23.743 -15.784  0.00  0.00    +0.013 C 
ATOM     14  C   UNL     1      34.725 -23.861 -12.894  0.00  0.00    +0.225 C 
ATOM     15  C   UNL     1      36.898 -22.800 -15.291  0.00  0.00    +0.136 C 
ATOM     16  C   UNL     1      40.393 -26.661 -14.638  0.00  0.00    -0.101 C 
ATOM     17  C   UNL     1      35.337 -23.494 -16.999  0.00  0.00    +0.010 C 
ATOM     18  C   UNL     1      37.168 -21.636 -16.010  0.00  0.00    +0.038 C 
ATOM     19  C   UNL     1      35.603 -22.327 -17.715  0.00  0.00    +0.058 C 
ATOM     20  C   UNL     1      36.519 -21.399 -17.221  0.00  0.00    +0.014 C 
ATOM     21  H   UNL     1      36.200 -23.271 -11.622  0.00  0.00    +0.152 HD
ATOM     22  H   UNL     1      38.901 -26.835 -13.266  0.00  0.00    -0.080 HD
ENDROOT
TORSDOF 0
ENDMDL
MODEL 4
REMARK VINA RESULT:      -6.8      2.746      4.927
REMARK  Name = 3053755
REMARK  0 active torsions:
REMARK  status: ('A' for Active; 'I' for Inactive)
REMARK                            x       y       z     vdW  Elec       q    Type
REMARK                         _______ _______ _______ _____ _____    ______ ____
ROOT
ATOM      1 CL   UNL     1      35.985 -21.176 -20.092  0.00  0.00    -0.082 Cl
ATOM      2  O   UNL     1      36.002 -22.942 -14.485  0.00  0.00    -0.466 OA
ATOM      3  O   UNL     1      31.844 -22.098 -14.362  0.00  0.00    -0.275 OA
ATOM      4  N   UNL     1      33.786 -23.129 -13.716  0.00  0.00    -0.277 N 
ATOM      5  N   UNL     1      36.417 -26.465 -14.081  0.00  0.00    +0.386 N 
ATOM      6  C   UNL     1      34.707 -24.981 -15.058  0.00  0.00    +0.039 C 
ATOM      7  C   UNL     1      35.002 -23.879 -14.031  0.00  0.00    +0.189 C 
ATOM      8  C   UNL     1      34.149 -24.266 -16.293  0.00  0.00    +0.037 C 
ATOM      9  C   UNL     1      35.943 -25.857 -15.334  0.00  0.00    -0.072 C 
ATOM     10  C   UNL     1      35.565 -24.539 -12.763  0.00  0.00    +0.037 C 
ATOM     11  C   UNL     1      32.787 -23.662 -15.917  0.00  0.00    +0.090 C 
ATOM     12  C   UNL     1      36.764 -25.443 -13.082  0.00  0.00    -0.072 C 
ATOM     13  C   UNL     1      35.090 -23.169 -16.731  0.00  0.00    +0.013 C 
ATOM     14  C   UNL     1      32.769 -22.871 -14.613  0.00  0.00    +0.225 C 
ATOM     15  C   UNL     1      35.945 -22.566 -15.802  0.00  0.00    +0.136 C 
ATOM     16  C   UNL     1      37.561 -27.340 -14.338  0.00  0.00    -0.101 C 
ATOM     17  C   UNL     1      35.105 -22.728 -18.061  0.00  0.00    +0.010 C 
ATOM     18  C   UNL     1      36.816 -21.551 -16.198  0.00  0.00    +0.038 C 
ATOM     19  C   UNL     1      35.971 -21.709 -18.455  0.00  0.00    +0.058 C 
ATOM     20  C   UNL     1      36.827 -21.121 -17.525  0.00  0.00    +0.014 C 
ATOM     21  H   UNL     1      33.685 -22.782 -12.799  0.00  0.00    +0.152 HD
ATOM     22  H   UNL     1      35.655 -27.025 -13.699  0.00  0.00    -0.080 HD
ENDROOT
TORSDOF 0
ENDMDL
MODEL 5
REMARK VINA RESULT:      -6.1     16.808     18.923
REMARK  Name = 3053755
REMARK  0 active torsions:
REMARK  status: ('A' for Active; 'I' for Inactive)
REMARK                            x       y       z     vdW  Elec       q    Type
REMARK                         _______ _______ _______ _____ _____    ______ ____
ROOT
ATOM      1 CL   UNL     1      30.810 -10.719 -18.841  0.00  0.00    -0.082 Cl
ATOM      2  O   UNL     1      33.602  -7.092 -22.530  0.00  0.00    -0.466 OA
ATOM      3  O   UNL     1      35.517 -10.496 -24.192  0.00  0.00    -0.275 OA
ATOM      4  N   UNL     1      34.707  -8.353 -24.181  0.00  0.00    -0.277 N 
ATOM      5  N   UNL     1      31.494  -5.684 -25.044  0.00  0.00    +0.386 N 
ATOM      6  C   UNL     1      32.291  -7.944 -24.458  0.00  0.00    +0.039 C 
ATOM      7  C   UNL     1      33.628  -7.394 -23.942  0.00  0.00    +0.189 C 
ATOM      8  C   UNL     1      32.057  -9.257 -23.705  0.00  0.00    +0.037 C 
ATOM      9  C   UNL     1      31.153  -6.917 -24.316  0.00  0.00    -0.072 C 
ATOM     10  C   UNL     1      33.919  -6.071 -24.666  0.00  0.00    +0.037 C 
ATOM     11  C   UNL     1      33.129 -10.261 -24.156  0.00  0.00    +0.090 C 
ATOM     12  C   UNL     1      32.744  -5.091 -24.546  0.00  0.00    -0.072 C 
ATOM     13  C   UNL     1      32.163  -9.032 -22.216  0.00  0.00    +0.013 C 
ATOM     14  C   UNL     1      34.557  -9.725 -24.152  0.00  0.00    +0.225 C 
ATOM     15  C   UNL     1      32.938  -7.976 -21.720  0.00  0.00    +0.136 C 
ATOM     16  C   UNL     1      30.398  -4.719 -24.958  0.00  0.00    -0.101 C 
ATOM     17  C   UNL     1      31.509  -9.882 -21.314  0.00  0.00    +0.010 C 
ATOM     18  C   UNL     1      33.043  -7.762 -20.345  0.00  0.00    +0.038 C 
ATOM     19  C   UNL     1      31.620  -9.671 -19.940  0.00  0.00    +0.058 C 
ATOM     20  C   UNL     1      32.385  -8.611 -19.456  0.00  0.00    +0.014 C 
ATOM     21  H   UNL     1      35.604  -7.995 -24.377  0.00  0.00    +0.152 HD
ATOM     22  H   UNL     1      31.637  -5.931 -26.023  0.00  0.00    -0.080 HD
ENDROOT
TORSDOF 0
ENDMDL
MODEL 6
REMARK VINA RESULT:      -5.9      2.834      4.977
REMARK  Name = 3053755
REMARK  0 active torsions:
REMARK  status: ('A' for Active; 'I' for Inactive)
REMARK                            x       y       z     vdW  Elec       q    Type
REMARK                         _______ _______ _______ _____ _____    ______ ____
ROOT
ATOM      1 CL   UNL     1      33.413 -23.118 -17.990  0.00  0.00    -0.082 Cl
ATOM      2  O   UNL     1      37.743 -23.041 -14.015  0.00  0.00    -0.466 OA
ATOM      3  O   UNL     1      34.778 -23.383 -10.997  0.00  0.00    -0.275 OA
ATOM      4  N   UNL     1      36.874 -23.593 -11.899  0.00  0.00    -0.277 N 
ATOM      5  N   UNL     1      39.710 -26.020 -13.962  0.00  0.00    +0.386 N 
ATOM      6  C   UNL     1      37.367 -25.432 -13.466  0.00  0.00    +0.039 C 
ATOM      7  C   UNL     1      37.768 -24.036 -12.969  0.00  0.00    +0.189 C 
ATOM      8  C   UNL     1      35.920 -25.305 -13.954  0.00  0.00    +0.037 C 
ATOM      9  C   UNL     1      38.349 -25.972 -14.520  0.00  0.00    -0.072 C 
ATOM     10  C   UNL     1      39.217 -24.102 -12.462  0.00  0.00    +0.037 C 
ATOM     11  C   UNL     1      35.030 -25.018 -12.735  0.00  0.00    +0.090 C 
ATOM     12  C   UNL     1      40.159 -24.691 -13.520  0.00  0.00    -0.072 C 
ATOM     13  C   UNL     1      35.802 -24.175 -14.950  0.00  0.00    +0.013 C 
ATOM     14  C   UNL     1      35.532 -23.909 -11.816  0.00  0.00    +0.225 C 
ATOM     15  C   UNL     1      36.708 -23.109 -14.910  0.00  0.00    +0.136 C 
ATOM     16  C   UNL     1      40.645 -26.579 -14.938  0.00  0.00    -0.101 C 
ATOM     17  C   UNL     1      34.778 -24.168 -15.906  0.00  0.00    +0.010 C 
ATOM     18  C   UNL     1      36.604 -22.060 -15.824  0.00  0.00    +0.038 C 
ATOM     19  C   UNL     1      34.672 -23.116 -16.816  0.00  0.00    +0.058 C 
ATOM     20  C   UNL     1      35.585 -22.064 -16.776  0.00  0.00    +0.014 C 
ATOM     21  H   UNL     1      37.255 -23.029 -11.187  0.00  0.00    +0.152 HD
ATOM     22  H   UNL     1      39.689 -26.627 -13.143  0.00  0.00    -0.080 HD
ENDROOT
TORSDOF 0
ENDMDL
MODEL 7
REMARK VINA RESULT:      -5.8      7.812     11.209
REMARK  Name = 3053755
REMARK  0 active torsions:
REMARK  status: ('A' for Active; 'I' for Inactive)
REMARK                            x       y       z     vdW  Elec       q    Type
REMARK                         _______ _______ _______ _____ _____    ______ ____
ROOT
ATOM      1 CL   UNL     1      32.577 -13.000 -20.426  0.00  0.00    -0.082 Cl
ATOM      2  O   UNL     1      33.496 -18.696 -21.557  0.00  0.00    -0.466 OA
ATOM      3  O   UNL     1      34.038 -17.646 -25.634  0.00  0.00    -0.275 OA
ATOM      4  N   UNL     1      34.289 -18.939 -23.759  0.00  0.00    -0.277 N 
ATOM      5  N   UNL     1      36.609 -19.930 -20.320  0.00  0.00    +0.386 N 
ATOM      6  C   UNL     1      35.901 -18.281 -22.012  0.00  0.00    +0.039 C 
ATOM      7  C   UNL     1      34.639 -19.089 -22.346  0.00  0.00    +0.189 C 
ATOM      8  C   UNL     1      35.572 -16.826 -22.361  0.00  0.00    +0.037 C 
ATOM      9  C   UNL     1      36.356 -18.500 -20.558  0.00  0.00    -0.072 C 
ATOM     10  C   UNL     1      34.909 -20.566 -22.017  0.00  0.00    +0.037 C 
ATOM     11  C   UNL     1      35.400 -16.730 -23.884  0.00  0.00    +0.090 C 
ATOM     12  C   UNL     1      35.409 -20.741 -20.577  0.00  0.00    -0.072 C 
ATOM     13  C   UNL     1      34.297 -16.399 -21.674  0.00  0.00    +0.013 C 
ATOM     14  C   UNL     1      34.495 -17.792 -24.500  0.00  0.00    +0.225 C 
ATOM     15  C   UNL     1      33.333 -17.354 -21.329  0.00  0.00    +0.136 C 
ATOM     16  C   UNL     1      37.091 -20.145 -18.956  0.00  0.00    -0.101 C 
ATOM     17  C   UNL     1      34.052 -15.048 -21.395  0.00  0.00    +0.010 C 
ATOM     18  C   UNL     1      32.151 -16.968 -20.697  0.00  0.00    +0.038 C 
ATOM     19  C   UNL     1      32.867 -14.662 -20.769  0.00  0.00    +0.058 C 
ATOM     20  C   UNL     1      31.918 -15.621 -20.419  0.00  0.00    +0.014 C 
ATOM     21  H   UNL     1      33.877 -19.710 -24.214  0.00  0.00    +0.152 HD
ATOM     22  H   UNL     1      37.332 -20.231 -20.974  0.00  0.00    -0.080 HD
ENDROOT
TORSDOF 0
ENDMDL
MODEL 8
REMARK VINA RESULT:      -5.5     16.314     18.588
REMARK  Name = 3053755
REMARK  0 active torsions:
REMARK  status: ('A' for Active; 'I' for Inactive)
REMARK                            x       y       z     vdW  Elec       q    Type
REMARK                         _______ _______ _______ _____ _____    ______ ____
ROOT
ATOM      1 CL   UNL     1      34.324 -11.882 -26.664  0.00  0.00    -0.082 Cl
ATOM      2  O   UNL     1      33.838  -7.825 -22.437  0.00  0.00    -0.466 OA
ATOM      3  O   UNL     1      31.332  -5.613 -25.054  0.00  0.00    -0.275 OA
ATOM      4  N   UNL     1      32.165  -6.278 -23.026  0.00  0.00    -0.277 N 
ATOM      5  N   UNL     1      31.863  -8.869 -19.652  0.00  0.00    +0.386 N 
ATOM      6  C   UNL     1      31.462  -8.428 -22.045  0.00  0.00    +0.039 C 
ATOM      7  C   UNL     1      32.532  -7.328 -22.074  0.00  0.00    +0.189 C 
ATOM      8  C   UNL     1      31.374  -8.967 -23.476  0.00  0.00    +0.037 C 
ATOM      9  C   UNL     1      31.764  -9.497 -20.979  0.00  0.00    -0.072 C 
ATOM     10  C   UNL     1      32.664  -6.744 -20.659  0.00  0.00    +0.037 C 
ATOM     11  C   UNL     1      30.810  -7.853 -24.371  0.00  0.00    +0.090 C 
ATOM     12  C   UNL     1      32.915  -7.842 -19.617  0.00  0.00    -0.072 C 
ATOM     13  C   UNL     1      32.744  -9.372 -23.967  0.00  0.00    +0.013 C 
ATOM     14  C   UNL     1      31.475  -6.491 -24.202  0.00  0.00    +0.225 C 
ATOM     15  C   UNL     1      33.887  -8.768 -23.431  0.00  0.00    +0.136 C 
ATOM     16  C   UNL     1      32.101  -9.882 -18.623  0.00  0.00    -0.101 C 
ATOM     17  C   UNL     1      32.888 -10.335 -24.975  0.00  0.00    +0.010 C 
ATOM     18  C   UNL     1      35.156  -9.133 -23.880  0.00  0.00    +0.038 C 
ATOM     19  C   UNL     1      34.157 -10.695 -25.428  0.00  0.00    +0.058 C 
ATOM     20  C   UNL     1      35.290 -10.096 -24.880  0.00  0.00    +0.014 C 
ATOM     21  H   UNL     1      32.430  -5.353 -22.812  0.00  0.00    +0.152 HD
ATOM     22  H   UNL     1      30.974  -8.408 -19.459  0.00  0.00    -0.080 HD
ENDROOT
TORSDOF 0
ENDMDL
MODEL 9
REMARK VINA RESULT:      -5.4     16.321     19.142
REMARK  Name = 3053755
REMARK  0 active torsions:
REMARK  status: ('A' for Active; 'I' for Inactive)
REMARK                            x       y       z     vdW  Elec       q    Type
REMARK                         _______ _______ _______ _____ _____    ______ ____
ROOT
ATOM      1 CL   UNL     1      34.636  -5.688 -26.909  0.00  0.00    -0.082 Cl
ATOM      2  O   UNL     1      33.376  -8.084 -21.691  0.00  0.00    -0.466 OA
ATOM      3  O   UNL     1      30.771  -4.808 -20.982  0.00  0.00    -0.275 OA
ATOM      4  N   UNL     1      31.557  -6.945 -20.725  0.00  0.00    -0.277 N 
ATOM      5  N   UNL     1      31.386 -11.041 -21.902  0.00  0.00    +0.386 N 
ATOM      6  C   UNL     1      31.077  -8.653 -22.437  0.00  0.00    +0.039 C 
ATOM      7  C   UNL     1      31.997  -8.223 -21.286  0.00  0.00    +0.189 C 
ATOM      8  C   UNL     1      31.147  -7.527 -23.474  0.00  0.00    +0.037 C 
ATOM      9  C   UNL     1      31.449 -10.044 -22.982  0.00  0.00    -0.072 C 
ATOM     10  C   UNL     1      31.966  -9.318 -20.208  0.00  0.00    +0.037 C 
ATOM     11  C   UNL     1      30.500  -6.276 -22.861  0.00  0.00    +0.090 C 
ATOM     12  C   UNL     1      32.292 -10.697 -20.796  0.00  0.00    -0.072 C 
ATOM     13  C   UNL     1      32.585  -7.235 -23.832  0.00  0.00    +0.013 C 
ATOM     14  C   UNL     1      30.973  -5.928 -21.453  0.00  0.00    +0.225 C 
ATOM     15  C   UNL     1      33.606  -7.516 -22.917  0.00  0.00    +0.136 C 
ATOM     16  C   UNL     1      31.688 -12.376 -22.418  0.00  0.00    -0.101 C 
ATOM     17  C   UNL     1      32.913  -6.662 -25.068  0.00  0.00    +0.010 C 
ATOM     18  C   UNL     1      34.937  -7.247 -23.239  0.00  0.00    +0.038 C 
ATOM     19  C   UNL     1      34.243  -6.388 -25.386  0.00  0.00    +0.058 C 
ATOM     20  C   UNL     1      35.254  -6.681 -24.473  0.00  0.00    +0.014 C 
ATOM     21  H   UNL     1      31.687  -6.799 -19.759  0.00  0.00    +0.152 HD
ATOM     22  H   UNL     1      30.434 -11.040 -21.533  0.00  0.00    -0.080 HD
ENDROOT
TORSDOF 0
ENDMDL
