MODEL 1
REMARK VINA RESULT:      -8.2      0.000      0.000
REMARK  Name = 24963032
REMARK  12 active torsions:
REMARK  status: ('A' for Active; 'I' for Inactive)
REMARK    1  A    between atoms: N_2  and  C_10
REMARK    2  A    between atoms: C_5  and  O_21
REMARK    3  A    between atoms: C_6  and  O_23
REMARK    4  A    between atoms: C_7  and  O_25
REMARK    5  A    between atoms: C_10  and  N_11
REMARK    6  A    between atoms: N_11  and  C_13
REMARK    7  A    between atoms: C_13  and  C_14
REMARK    8  A    between atoms: C_14  and  C_15
REMARK    9  A    between atoms: C_15  and  C_16
REMARK   10  A    between atoms: C_16  and  C_17
REMARK   11  A    between atoms: C_17  and  C_18
REMARK   12  A    between atoms: C_18  and  C_19
REMARK                            x       y       z     vdW  Elec       q    Type
REMARK                         _______ _______ _______ _____ _____    ______ ____
ROOT
ATOM      1  O   UNL     1      38.441 -23.817 -14.243  0.00  0.00    -0.334 OA
ATOM      2  N   UNL     1      36.205 -24.040 -14.432  0.00  0.00    -0.264 N 
ATOM      3  C   UNL     1      36.635 -25.334 -14.022  0.00  0.00    +0.135 C 
ATOM      4  C   UNL     1      37.201 -23.112 -14.013  0.00  0.00    +0.224 C 
ATOM      5  C   UNL     1      36.429 -25.403 -12.492  0.00  0.00    +0.160 C 
ATOM      6  C   UNL     1      37.038 -22.917 -12.495  0.00  0.00    +0.187 C 
ATOM      7  C   UNL     1      37.172 -24.264 -11.752  0.00  0.00    +0.170 C 
ATOM      8  C   UNL     1      38.103 -25.218 -14.423  0.00  0.00    +0.166 C 
ENDROOT
BRANCH   2  10
ATOM      9  S   UNL     1      33.570 -24.013 -14.126  0.00  0.00    -0.019 S 
ATOM     10  C   UNL     1      34.987 -23.726 -14.968  0.00  0.00    +0.136 C 
BRANCH  10  11
ATOM     11  N   UNL     1      34.977 -23.161 -16.227  0.00  0.00    -0.316 N 
ATOM     12  H   UNL     1      35.797 -22.695 -16.510  0.00  0.00    +0.148 HD
BRANCH  11  13
ATOM     13  C   UNL     1      33.890 -23.186 -17.166  0.00  0.00    +0.088 C 
BRANCH  13  14
ATOM     14  C   UNL     1      34.223 -22.459 -18.465  0.00  0.00    +0.021 C 
BRANCH  14  15
ATOM     15  C   UNL     1      35.609 -21.807 -18.435  0.00  0.00    +0.002 C 
BRANCH  15  16
ATOM     16  C   UNL     1      36.199 -21.565 -19.828  0.00  0.00    +0.000 C 
BRANCH  16  17
ATOM     17  C   UNL     1      36.158 -20.119 -20.331  0.00  0.00    +0.000 C 
BRANCH  17  18
ATOM     18  C   UNL     1      35.159 -19.898 -21.470  0.00  0.00    +0.000 C 
BRANCH  18  19
ATOM     19  C   UNL     1      33.958 -19.076 -21.002  0.00  0.00    +0.000 C 
ATOM     20  C   UNL     1      32.768 -19.965 -20.678  0.00  0.00    +0.000 C 
ENDBRANCH  18  19
ENDBRANCH  17  18
ENDBRANCH  16  17
ENDBRANCH  15  16
ENDBRANCH  14  15
ENDBRANCH  13  14
ENDBRANCH  11  13
ENDBRANCH  10  11
ENDBRANCH   2  10
BRANCH   5  21
ATOM     21  O   UNL     1      36.896 -26.663 -12.018  0.00  0.00    -0.380 OA
ATOM     22  H   UNL     1      36.764 -26.717 -11.059  0.00  0.00    +0.211 HD
ENDBRANCH   5  21
BRANCH   6  23
ATOM     23  O   UNL     1      38.039 -22.026 -12.010  0.00  0.00    -0.378 OA
ATOM     24  H   UNL     1      37.736 -21.616 -11.185  0.00  0.00    +0.211 HD
ENDBRANCH   6  23
BRANCH   7  25
ATOM     25  O   UNL     1      36.618 -24.140 -10.441  0.00  0.00    -0.379 OA
ATOM     26  H   UNL     1      37.334 -24.003  -9.801  0.00  0.00    +0.211 HD
ENDBRANCH   7  25
TORSDOF 12
ENDMDL
MODEL 2
REMARK VINA RESULT:      -7.8      1.694      2.911
REMARK  Name = 24963032
REMARK  12 active torsions:
REMARK  status: ('A' for Active; 'I' for Inactive)
REMARK    1  A    between atoms: N_2  and  C_10
REMARK    2  A    between atoms: C_5  and  O_21
REMARK    3  A    between atoms: C_6  and  O_23
REMARK    4  A    between atoms: C_7  and  O_25
REMARK    5  A    between atoms: C_10  and  N_11
REMARK    6  A    between atoms: N_11  and  C_13
REMARK    7  A    between atoms: C_13  and  C_14
REMARK    8  A    between atoms: C_14  and  C_15
REMARK    9  A    between atoms: C_15  and  C_16
REMARK   10  A    between atoms: C_16  and  C_17
REMARK   11  A    between atoms: C_17  and  C_18
REMARK   12  A    between atoms: C_18  and  C_19
REMARK                            x       y       z     vdW  Elec       q    Type
REMARK                         _______ _______ _______ _____ _____    ______ ____
ROOT
ATOM      1  O   UNL     1      35.404 -25.075 -12.090  0.00  0.00    -0.334 OA
ATOM      2  N   UNL     1      36.055 -23.687 -13.744  0.00  0.00    -0.264 N 
ATOM      3  C   UNL     1      36.768 -23.209 -12.608  0.00  0.00    +0.135 C 
ATOM      4  C   UNL     1      35.734 -25.053 -13.497  0.00  0.00    +0.224 C 
ATOM      5  C   UNL     1      38.182 -23.828 -12.683  0.00  0.00    +0.160 C 
ATOM      6  C   UNL     1      37.021 -25.871 -13.697  0.00  0.00    +0.187 C 
ATOM      7  C   UNL     1      38.139 -25.374 -12.755  0.00  0.00    +0.170 C 
ATOM      8  C   UNL     1      35.899 -23.834 -11.521  0.00  0.00    +0.166 C 
ENDROOT
BRANCH   2  10
ATOM      9  S   UNL     1      37.158 -22.642 -15.918  0.00  0.00    -0.019 S 
ATOM     10  C   UNL     1      35.868 -23.016 -14.921  0.00  0.00    +0.136 C 
BRANCH  10  11
ATOM     11  N   UNL     1      34.575 -22.666 -15.250  0.00  0.00    -0.316 N 
ATOM     12  H   UNL     1      34.365 -21.704 -15.263  0.00  0.00    +0.148 HD
BRANCH  11  13
ATOM     13  C   UNL     1      33.503 -23.566 -15.577  0.00  0.00    +0.088 C 
BRANCH  13  14
ATOM     14  C   UNL     1      32.843 -23.229 -16.909  0.00  0.00    +0.021 C 
BRANCH  14  15
ATOM     15  C   UNL     1      33.854 -22.784 -17.970  0.00  0.00    +0.002 C 
BRANCH  15  16
ATOM     16  C   UNL     1      33.234 -21.933 -19.084  0.00  0.00    +0.000 C 
BRANCH  16  17
ATOM     17  C   UNL     1      34.196 -21.003 -19.830  0.00  0.00    +0.000 C 
BRANCH  17  18
ATOM     18  C   UNL     1      33.486 -19.932 -20.662  0.00  0.00    +0.000 C 
BRANCH  18  19
ATOM     19  C   UNL     1      34.490 -18.967 -21.294  0.00  0.00    +0.000 C 
ATOM     20  C   UNL     1      34.751 -19.312 -22.752  0.00  0.00    +0.000 C 
ENDBRANCH  18  19
ENDBRANCH  17  18
ENDBRANCH  16  17
ENDBRANCH  15  16
ENDBRANCH  14  15
ENDBRANCH  13  14
ENDBRANCH  11  13
ENDBRANCH  10  11
ENDBRANCH   2  10
BRANCH   5  21
ATOM     21  O   UNL     1      38.926 -23.425 -11.535  0.00  0.00    -0.380 OA
ATOM     22  H   UNL     1      38.372 -22.862 -10.973  0.00  0.00    +0.211 HD
ENDBRANCH   5  21
BRANCH   6  23
ATOM     23  O   UNL     1      36.769 -27.246 -13.422  0.00  0.00    -0.378 OA
ATOM     24  H   UNL     1      37.591 -27.752 -13.524  0.00  0.00    +0.211 HD
ENDBRANCH   6  23
BRANCH   7  25
ATOM     25  O   UNL     1      39.402 -25.840 -13.230  0.00  0.00    -0.379 OA
ATOM     26  H   UNL     1      39.294 -26.718 -13.626  0.00  0.00    +0.211 HD
ENDBRANCH   7  25
TORSDOF 12
ENDMDL
MODEL 3
REMARK VINA RESULT:      -7.7      1.482      1.756
REMARK  Name = 24963032
REMARK  12 active torsions:
REMARK  status: ('A' for Active; 'I' for Inactive)
REMARK    1  A    between atoms: N_2  and  C_10
REMARK    2  A    between atoms: C_5  and  O_21
REMARK    3  A    between atoms: C_6  and  O_23
REMARK    4  A    between atoms: C_7  and  O_25
REMARK    5  A    between atoms: C_10  and  N_11
REMARK    6  A    between atoms: N_11  and  C_13
REMARK    7  A    between atoms: C_13  and  C_14
REMARK    8  A    between atoms: C_14  and  C_15
REMARK    9  A    between atoms: C_15  and  C_16
REMARK   10  A    between atoms: C_16  and  C_17
REMARK   11  A    between atoms: C_17  and  C_18
REMARK   12  A    between atoms: C_18  and  C_19
REMARK                            x       y       z     vdW  Elec       q    Type
REMARK                         _______ _______ _______ _____ _____    ______ ____
ROOT
ATOM      1  O   UNL     1      38.942 -23.929 -12.971  0.00  0.00    -0.334 OA
ATOM      2  N   UNL     1      37.203 -23.900 -14.408  0.00  0.00    -0.264 N 
ATOM      3  C   UNL     1      37.468 -25.289 -14.233  0.00  0.00    +0.135 C 
ATOM      4  C   UNL     1      37.713 -23.226 -13.261  0.00  0.00    +0.224 C 
ATOM      5  C   UNL     1      36.471 -25.796 -13.167  0.00  0.00    +0.160 C 
ATOM      6  C   UNL     1      36.733 -23.483 -12.103  0.00  0.00    +0.187 C 
ATOM      7  C   UNL     1      36.575 -24.997 -11.845  0.00  0.00    +0.170 C 
ATOM      8  C   UNL     1      38.897 -25.179 -13.711  0.00  0.00    +0.166 C 
ENDROOT
BRANCH   2  10
ATOM      9  S   UNL     1      37.047 -22.103 -16.352  0.00  0.00    -0.019 S 
ATOM     10  C   UNL     1      36.448 -23.341 -15.401  0.00  0.00    +0.136 C 
BRANCH  10  11
ATOM     11  N   UNL     1      35.176 -23.843 -15.586  0.00  0.00    -0.316 N 
ATOM     12  H   UNL     1      35.058 -24.811 -15.453  0.00  0.00    +0.148 HD
BRANCH  11  13
ATOM     13  C   UNL     1      34.006 -23.093 -15.950  0.00  0.00    +0.088 C 
BRANCH  13  14
ATOM     14  C   UNL     1      33.398 -23.562 -17.268  0.00  0.00    +0.021 C 
BRANCH  14  15
ATOM     15  C   UNL     1      33.279 -22.433 -18.296  0.00  0.00    +0.002 C 
BRANCH  15  16
ATOM     16  C   UNL     1      34.376 -22.464 -19.365  0.00  0.00    +0.000 C 
BRANCH  16  17
ATOM     17  C   UNL     1      34.996 -21.110 -19.727  0.00  0.00    +0.000 C 
BRANCH  17  18
ATOM     18  C   UNL     1      34.061 -20.209 -20.538  0.00  0.00    +0.000 C 
BRANCH  18  19
ATOM     19  C   UNL     1      34.842 -19.113 -21.264  0.00  0.00    +0.000 C 
ATOM     20  C   UNL     1      34.652 -19.199 -22.770  0.00  0.00    +0.000 C 
ENDBRANCH  18  19
ENDBRANCH  17  18
ENDBRANCH  16  17
ENDBRANCH  15  16
ENDBRANCH  14  15
ENDBRANCH  13  14
ENDBRANCH  11  13
ENDBRANCH  10  11
ENDBRANCH   2  10
BRANCH   5  21
ATOM     21  O   UNL     1      36.729 -27.175 -12.911  0.00  0.00    -0.380 OA
ATOM     22  H   UNL     1      37.122 -27.272 -12.031  0.00  0.00    +0.211 HD
ENDBRANCH   5  21
BRANCH   6  23
ATOM     23  O   UNL     1      37.214 -22.864 -10.914  0.00  0.00    -0.378 OA
ATOM     24  H   UNL     1      37.315 -23.533 -10.219  0.00  0.00    +0.211 HD
ENDBRANCH   6  23
BRANCH   7  25
ATOM     25  O   UNL     1      35.388 -25.227 -11.084  0.00  0.00    -0.379 OA
ATOM     26  H   UNL     1      34.880 -25.947 -11.488  0.00  0.00    +0.211 HD
ENDBRANCH   7  25
TORSDOF 12
ENDMDL
MODEL 4
REMARK VINA RESULT:      -7.5      4.928      6.149
REMARK  Name = 24963032
REMARK  12 active torsions:
REMARK  status: ('A' for Active; 'I' for Inactive)
REMARK    1  A    between atoms: N_2  and  C_10
REMARK    2  A    between atoms: C_5  and  O_21
REMARK    3  A    between atoms: C_6  and  O_23
REMARK    4  A    between atoms: C_7  and  O_25
REMARK    5  A    between atoms: C_10  and  N_11
REMARK    6  A    between atoms: N_11  and  C_13
REMARK    7  A    between atoms: C_13  and  C_14
REMARK    8  A    between atoms: C_14  and  C_15
REMARK    9  A    between atoms: C_15  and  C_16
REMARK   10  A    between atoms: C_16  and  C_17
REMARK   11  A    between atoms: C_17  and  C_18
REMARK   12  A    between atoms: C_18  and  C_19
REMARK                            x       y       z     vdW  Elec       q    Type
REMARK                         _______ _______ _______ _____ _____    ______ ____
ROOT
ATOM      1  O   UNL     1      30.067 -22.387 -14.285  0.00  0.00    -0.334 OA
ATOM      2  N   UNL     1      31.557 -23.281 -15.723  0.00  0.00    -0.264 N 
ATOM      3  C   UNL     1      31.163 -24.389 -14.919  0.00  0.00    +0.135 C 
ATOM      4  C   UNL     1      30.507 -22.320 -15.660  0.00  0.00    +0.224 C 
ATOM      5  C   UNL     1      30.071 -25.142 -15.713  0.00  0.00    +0.160 C 
ATOM      6  C   UNL     1      29.363 -22.830 -16.552  0.00  0.00    +0.187 C 
ATOM      7  C   UNL     1      28.883 -24.222 -16.086  0.00  0.00    +0.170 C 
ATOM      8  C   UNL     1      30.609 -23.614 -13.728  0.00  0.00    +0.166 C 
ENDROOT
BRANCH   2  10
ATOM      9  S   UNL     1      34.168 -23.666 -15.988  0.00  0.00    -0.019 S 
ATOM     10  C   UNL     1      32.652 -23.225 -16.540  0.00  0.00    +0.136 C 
BRANCH  10  11
ATOM     11  N   UNL     1      32.452 -22.793 -17.835  0.00  0.00    -0.316 N 
ATOM     12  H   UNL     1      31.519 -22.660 -18.119  0.00  0.00    +0.148 HD
BRANCH  11  13
ATOM     13  C   UNL     1      33.470 -22.518 -18.810  0.00  0.00    +0.088 C 
BRANCH  13  14
ATOM     14  C   UNL     1      33.237 -21.201 -19.543  0.00  0.00    +0.021 C 
BRANCH  14  15
ATOM     15  C   UNL     1      34.528 -20.614 -20.122  0.00  0.00    +0.002 C 
BRANCH  15  16
ATOM     16  C   UNL     1      34.299 -19.740 -21.360  0.00  0.00    +0.000 C 
BRANCH  16  17
ATOM     17  C   UNL     1      35.242 -18.543 -21.518  0.00  0.00    +0.000 C 
BRANCH  17  18
ATOM     18  C   UNL     1      35.731 -18.338 -22.954  0.00  0.00    +0.000 C 
BRANCH  18  19
ATOM     19  C   UNL     1      34.744 -18.925 -23.964  0.00  0.00    +0.000 C 
ATOM     20  C   UNL     1      34.437 -17.940 -25.080  0.00  0.00    +0.000 C 
ENDBRANCH  18  19
ENDBRANCH  17  18
ENDBRANCH  16  17
ENDBRANCH  15  16
ENDBRANCH  14  15
ENDBRANCH  13  14
ENDBRANCH  11  13
ENDBRANCH  10  11
ENDBRANCH   2  10
BRANCH   5  21
ATOM     21  O   UNL     1      29.598 -26.235 -14.928  0.00  0.00    -0.380 OA
ATOM     22  H   UNL     1      29.462 -25.941 -14.015  0.00  0.00    +0.211 HD
ENDBRANCH   5  21
BRANCH   6  23
ATOM     23  O   UNL     1      28.264 -21.925 -16.496  0.00  0.00    -0.378 OA
ATOM     24  H   UNL     1      27.957 -21.731 -17.395  0.00  0.00    +0.211 HD
ENDBRANCH   6  23
BRANCH   7  25
ATOM     25  O   UNL     1      28.142 -24.844 -17.136  0.00  0.00    -0.379 OA
ATOM     26  H   UNL     1      28.695 -25.512 -17.569  0.00  0.00    +0.211 HD
ENDBRANCH   7  25
TORSDOF 12
ENDMDL
MODEL 5
REMARK VINA RESULT:      -7.4      1.117      2.543
REMARK  Name = 24963032
REMARK  12 active torsions:
REMARK  status: ('A' for Active; 'I' for Inactive)
REMARK    1  A    between atoms: N_2  and  C_10
REMARK    2  A    between atoms: C_5  and  O_21
REMARK    3  A    between atoms: C_6  and  O_23
REMARK    4  A    between atoms: C_7  and  O_25
REMARK    5  A    between atoms: C_10  and  N_11
REMARK    6  A    between atoms: N_11  and  C_13
REMARK    7  A    between atoms: C_13  and  C_14
REMARK    8  A    between atoms: C_14  and  C_15
REMARK    9  A    between atoms: C_15  and  C_16
REMARK   10  A    between atoms: C_16  and  C_17
REMARK   11  A    between atoms: C_17  and  C_18
REMARK   12  A    between atoms: C_18  and  C_19
REMARK                            x       y       z     vdW  Elec       q    Type
REMARK                         _______ _______ _______ _____ _____    ______ ____
ROOT
ATOM      1  O   UNL     1      36.982 -23.905 -12.005  0.00  0.00    -0.334 OA
ATOM      2  N   UNL     1      35.743 -24.073 -13.882  0.00  0.00    -0.264 N 
ATOM      3  C   UNL     1      36.969 -23.512 -14.342  0.00  0.00    +0.135 C 
ATOM      4  C   UNL     1      36.024 -24.760 -12.666  0.00  0.00    +0.224 C 
ATOM      5  C   UNL     1      37.811 -24.684 -14.892  0.00  0.00    +0.160 C 
ATOM      6  C   UNL     1      36.732 -26.075 -13.034  0.00  0.00    +0.187 C 
ATOM      7  C   UNL     1      38.022 -25.797 -13.836  0.00  0.00    +0.170 C 
ATOM      8  C   UNL     1      37.484 -22.981 -13.008  0.00  0.00    +0.166 C 
ENDROOT
BRANCH   2  10
ATOM      9  S   UNL     1      33.099 -24.245 -13.767  0.00  0.00    -0.019 S 
ATOM     10  C   UNL     1      34.560 -24.099 -14.567  0.00  0.00    +0.136 C 
BRANCH  10  11
ATOM     11  N   UNL     1      34.623 -23.996 -15.942  0.00  0.00    -0.316 N 
ATOM     12  H   UNL     1      34.822 -24.821 -16.440  0.00  0.00    +0.148 HD
BRANCH  11  13
ATOM     13  C   UNL     1      34.427 -22.803 -16.719  0.00  0.00    +0.088 C 
BRANCH  13  14
ATOM     14  C   UNL     1      33.584 -23.051 -17.966  0.00  0.00    +0.021 C 
BRANCH  14  15
ATOM     15  C   UNL     1      34.136 -22.331 -19.200  0.00  0.00    +0.002 C 
BRANCH  15  16
ATOM     16  C   UNL     1      35.605 -21.918 -19.059  0.00  0.00    +0.000 C 
BRANCH  16  17
ATOM     17  C   UNL     1      36.078 -20.798 -19.992  0.00  0.00    +0.000 C 
BRANCH  17  18
ATOM     18  C   UNL     1      34.932 -20.056 -20.683  0.00  0.00    +0.000 C 
BRANCH  18  19
ATOM     19  C   UNL     1      35.381 -18.679 -21.173  0.00  0.00    +0.000 C 
ATOM     20  C   UNL     1      34.197 -17.746 -21.371  0.00  0.00    +0.000 C 
ENDBRANCH  18  19
ENDBRANCH  17  18
ENDBRANCH  16  17
ENDBRANCH  15  16
ENDBRANCH  14  15
ENDBRANCH  13  14
ENDBRANCH  11  13
ENDBRANCH  10  11
ENDBRANCH   2  10
BRANCH   5  21
ATOM     21  O   UNL     1      39.077 -24.186 -15.318  0.00  0.00    -0.380 OA
ATOM     22  H   UNL     1      39.764 -24.842 -15.126  0.00  0.00    +0.211 HD
ENDBRANCH   5  21
BRANCH   6  23
ATOM     23  O   UNL     1      37.076 -26.789 -11.850  0.00  0.00    -0.378 OA
ATOM     24  H   UNL     1      37.989 -27.108 -11.917  0.00  0.00    +0.211 HD
ENDBRANCH   6  23
BRANCH   7  25
ATOM     25  O   UNL     1      38.428 -26.989 -14.510  0.00  0.00    -0.379 OA
ATOM     26  H   UNL     1      39.296 -26.848 -14.920  0.00  0.00    +0.211 HD
ENDBRANCH   7  25
TORSDOF 12
ENDMDL
MODEL 6
REMARK VINA RESULT:      -7.4      3.251      4.528
REMARK  Name = 24963032
REMARK  12 active torsions:
REMARK  status: ('A' for Active; 'I' for Inactive)
REMARK    1  A    between atoms: N_2  and  C_10
REMARK    2  A    between atoms: C_5  and  O_21
REMARK    3  A    between atoms: C_6  and  O_23
REMARK    4  A    between atoms: C_7  and  O_25
REMARK    5  A    between atoms: C_10  and  N_11
REMARK    6  A    between atoms: N_11  and  C_13
REMARK    7  A    between atoms: C_13  and  C_14
REMARK    8  A    between atoms: C_14  and  C_15
REMARK    9  A    between atoms: C_15  and  C_16
REMARK   10  A    between atoms: C_16  and  C_17
REMARK   11  A    between atoms: C_17  and  C_18
REMARK   12  A    between atoms: C_18  and  C_19
REMARK                            x       y       z     vdW  Elec       q    Type
REMARK                         _______ _______ _______ _____ _____    ______ ____
ROOT
ATOM      1  O   UNL     1      38.955 -23.794 -12.638  0.00  0.00    -0.334 OA
ATOM      2  N   UNL     1      37.332 -23.905 -14.199  0.00  0.00    -0.264 N 
ATOM      3  C   UNL     1      37.623 -25.272 -13.923  0.00  0.00    +0.135 C 
ATOM      4  C   UNL     1      37.733 -23.150 -13.060  0.00  0.00    +0.224 C 
ATOM      5  C   UNL     1      36.562 -25.751 -12.907  0.00  0.00    +0.160 C 
ATOM      6  C   UNL     1      36.674 -23.373 -11.965  0.00  0.00    +0.187 C 
ATOM      7  C   UNL     1      36.541 -24.875 -11.630  0.00  0.00    +0.170 C 
ATOM      8  C   UNL     1      39.004 -25.085 -13.303  0.00  0.00    +0.166 C 
ENDROOT
BRANCH   2  10
ATOM      9  S   UNL     1      37.182 -22.101 -16.138  0.00  0.00    -0.019 S 
ATOM     10  C   UNL     1      36.639 -23.429 -15.278  0.00  0.00    +0.136 C 
BRANCH  10  11
ATOM     11  N   UNL     1      35.480 -24.091 -15.626  0.00  0.00    -0.316 N 
ATOM     12  H   UNL     1      35.486 -25.071 -15.540  0.00  0.00    +0.148 HD
BRANCH  11  13
ATOM     13  C   UNL     1      34.264 -23.491 -16.101  0.00  0.00    +0.088 C 
BRANCH  13  14
ATOM     14  C   UNL     1      33.259 -23.241 -14.981  0.00  0.00    +0.021 C 
BRANCH  14  15
ATOM     15  C   UNL     1      31.818 -23.158 -15.491  0.00  0.00    +0.002 C 
BRANCH  15  16
ATOM     16  C   UNL     1      30.769 -23.351 -14.391  0.00  0.00    +0.000 C 
BRANCH  16  17
ATOM     17  C   UNL     1      29.849 -24.566 -14.549  0.00  0.00    +0.000 C 
BRANCH  17  18
ATOM     18  C   UNL     1      28.926 -24.477 -15.767  0.00  0.00    +0.000 C 
BRANCH  18  19
ATOM     19  C   UNL     1      28.132 -23.170 -15.765  0.00  0.00    +0.000 C 
ATOM     20  C   UNL     1      27.845 -22.691 -17.178  0.00  0.00    +0.000 C 
ENDBRANCH  18  19
ENDBRANCH  17  18
ENDBRANCH  16  17
ENDBRANCH  15  16
ENDBRANCH  14  15
ENDBRANCH  13  14
ENDBRANCH  11  13
ENDBRANCH  10  11
ENDBRANCH   2  10
BRANCH   5  21
ATOM     21  O   UNL     1      36.839 -27.104 -12.551  0.00  0.00    -0.380 OA
ATOM     22  H   UNL     1      36.560 -27.690 -13.271  0.00  0.00    +0.211 HD
ENDBRANCH   5  21
BRANCH   6  23
ATOM     23  O   UNL     1      37.045 -22.672 -10.782  0.00  0.00    -0.378 OA
ATOM     24  H   UNL     1      37.332 -23.306 -10.107  0.00  0.00    +0.211 HD
ENDBRANCH   6  23
BRANCH   7  25
ATOM     25  O   UNL     1      35.307 -25.100 -10.948  0.00  0.00    -0.379 OA
ATOM     26  H   UNL     1      34.591 -25.190 -11.597  0.00  0.00    +0.211 HD
ENDBRANCH   7  25
TORSDOF 12
ENDMDL
MODEL 7
REMARK VINA RESULT:      -7.4      1.677      2.285
REMARK  Name = 24963032
REMARK  12 active torsions:
REMARK  status: ('A' for Active; 'I' for Inactive)
REMARK    1  A    between atoms: N_2  and  C_10
REMARK    2  A    between atoms: C_5  and  O_21
REMARK    3  A    between atoms: C_6  and  O_23
REMARK    4  A    between atoms: C_7  and  O_25
REMARK    5  A    between atoms: C_10  and  N_11
REMARK    6  A    between atoms: N_11  and  C_13
REMARK    7  A    between atoms: C_13  and  C_14
REMARK    8  A    between atoms: C_14  and  C_15
REMARK    9  A    between atoms: C_15  and  C_16
REMARK   10  A    between atoms: C_16  and  C_17
REMARK   11  A    between atoms: C_17  and  C_18
REMARK   12  A    between atoms: C_18  and  C_19
REMARK                            x       y       z     vdW  Elec       q    Type
REMARK                         _______ _______ _______ _____ _____    ______ ____
ROOT
ATOM      1  O   UNL     1      38.268 -26.429 -15.022  0.00  0.00    -0.334 OA
ATOM      2  N   UNL     1      36.970 -24.586 -15.093  0.00  0.00    -0.264 N 
ATOM      3  C   UNL     1      36.312 -25.420 -14.145  0.00  0.00    +0.135 C 
ATOM      4  C   UNL     1      38.335 -24.990 -15.135  0.00  0.00    +0.224 C 
ATOM      5  C   UNL     1      36.770 -24.943 -12.748  0.00  0.00    +0.160 C 
ATOM      6  C   UNL     1      39.016 -24.444 -13.869  0.00  0.00    +0.187 C 
ATOM      7  C   UNL     1      38.311 -24.968 -12.598  0.00  0.00    +0.170 C 
ATOM      8  C   UNL     1      36.932 -26.753 -14.553  0.00  0.00    +0.166 C 
ENDROOT
BRANCH   2  10
ATOM      9  S   UNL     1      34.836 -23.060 -15.484  0.00  0.00    -0.019 S 
ATOM     10  C   UNL     1      36.435 -23.491 -15.715  0.00  0.00    +0.136 C 
BRANCH  10  11
ATOM     11  N   UNL     1      37.270 -22.760 -16.535  0.00  0.00    -0.316 N 
ATOM     12  H   UNL     1      38.218 -23.024 -16.552  0.00  0.00    +0.148 HD
BRANCH  11  13
ATOM     13  C   UNL     1      36.893 -21.652 -17.367  0.00  0.00    +0.088 C 
BRANCH  13  14
ATOM     14  C   UNL     1      35.993 -22.070 -18.525  0.00  0.00    +0.021 C 
BRANCH  14  15
ATOM     15  C   UNL     1      35.753 -20.934 -19.524  0.00  0.00    +0.002 C 
BRANCH  15  16
ATOM     16  C   UNL     1      34.313 -20.873 -20.044  0.00  0.00    +0.000 C 
BRANCH  16  17
ATOM     17  C   UNL     1      33.949 -19.631 -20.864  0.00  0.00    +0.000 C 
BRANCH  17  18
ATOM     18  C   UNL     1      35.165 -18.918 -21.461  0.00  0.00    +0.000 C 
BRANCH  18  19
ATOM     19  C   UNL     1      35.166 -17.431 -21.101  0.00  0.00    +0.000 C 
ATOM     20  C   UNL     1      34.703 -16.575 -22.269  0.00  0.00    +0.000 C 
ENDBRANCH  18  19
ENDBRANCH  17  18
ENDBRANCH  16  17
ENDBRANCH  15  16
ENDBRANCH  14  15
ENDBRANCH  13  14
ENDBRANCH  11  13
ENDBRANCH  10  11
ENDBRANCH   2  10
BRANCH   5  21
ATOM     21  O   UNL     1      36.182 -25.782 -11.756  0.00  0.00    -0.380 OA
ATOM     22  H   UNL     1      36.000 -25.261 -10.959  0.00  0.00    +0.211 HD
ENDBRANCH   5  21
BRANCH   6  23
ATOM     23  O   UNL     1      40.380 -24.854 -13.836  0.00  0.00    -0.378 OA
ATOM     24  H   UNL     1      40.886 -24.348 -14.490  0.00  0.00    +0.211 HD
ENDBRANCH   6  23
BRANCH   7  25
ATOM     25  O   UNL     1      38.670 -24.149 -11.485  0.00  0.00    -0.379 OA
ATOM     26  H   UNL     1      39.489 -23.670 -11.688  0.00  0.00    +0.211 HD
ENDBRANCH   7  25
TORSDOF 12
ENDMDL
MODEL 8
REMARK VINA RESULT:      -7.3      3.038      4.715
REMARK  Name = 24963032
REMARK  12 active torsions:
REMARK  status: ('A' for Active; 'I' for Inactive)
REMARK    1  A    between atoms: N_2  and  C_10
REMARK    2  A    between atoms: C_5  and  O_21
REMARK    3  A    between atoms: C_6  and  O_23
REMARK    4  A    between atoms: C_7  and  O_25
REMARK    5  A    between atoms: C_10  and  N_11
REMARK    6  A    between atoms: N_11  and  C_13
REMARK    7  A    between atoms: C_13  and  C_14
REMARK    8  A    between atoms: C_14  and  C_15
REMARK    9  A    between atoms: C_15  and  C_16
REMARK   10  A    between atoms: C_16  and  C_17
REMARK   11  A    between atoms: C_17  and  C_18
REMARK   12  A    between atoms: C_18  and  C_19
REMARK                            x       y       z     vdW  Elec       q    Type
REMARK                         _______ _______ _______ _____ _____    ______ ____
ROOT
ATOM      1  O   UNL     1      38.286 -26.398 -15.000  0.00  0.00    -0.334 OA
ATOM      2  N   UNL     1      36.918 -24.605 -15.045  0.00  0.00    -0.264 N 
ATOM      3  C   UNL     1      36.311 -25.464 -14.085  0.00  0.00    +0.135 C 
ATOM      4  C   UNL     1      38.297 -24.957 -15.113  0.00  0.00    +0.224 C 
ATOM      5  C   UNL     1      36.776 -24.971 -12.696  0.00  0.00    +0.160 C 
ATOM      6  C   UNL     1      38.980 -24.386 -13.858  0.00  0.00    +0.187 C 
ATOM      7  C   UNL     1      38.319 -24.937 -12.576  0.00  0.00    +0.170 C 
ATOM      8  C   UNL     1      36.973 -26.772 -14.506  0.00  0.00    +0.166 C 
ENDROOT
BRANCH   2  10
ATOM      9  S   UNL     1      37.248 -22.353 -16.407  0.00  0.00    -0.019 S 
ATOM     10  C   UNL     1      36.330 -23.531 -15.654  0.00  0.00    +0.136 C 
BRANCH  10  11
ATOM     11  N   UNL     1      34.952 -23.464 -15.623  0.00  0.00    -0.316 N 
ATOM     12  H   UNL     1      34.520 -23.616 -14.752  0.00  0.00    +0.148 HD
BRANCH  11  13
ATOM     13  C   UNL     1      34.085 -23.194 -16.737  0.00  0.00    +0.088 C 
BRANCH  13  14
ATOM     14  C   UNL     1      32.613 -23.384 -16.390  0.00  0.00    +0.021 C 
BRANCH  14  15
ATOM     15  C   UNL     1      32.337 -23.233 -14.891  0.00  0.00    +0.002 C 
BRANCH  15  16
ATOM     16  C   UNL     1      31.846 -24.525 -14.229  0.00  0.00    +0.000 C 
BRANCH  16  17
ATOM     17  C   UNL     1      30.360 -24.564 -13.858  0.00  0.00    +0.000 C 
BRANCH  17  18
ATOM     18  C   UNL     1      29.444 -24.868 -15.046  0.00  0.00    +0.000 C 
BRANCH  18  19
ATOM     19  C   UNL     1      28.680 -23.619 -15.489  0.00  0.00    +0.000 C 
ATOM     20  C   UNL     1      28.248 -23.717 -16.943  0.00  0.00    +0.000 C 
ENDBRANCH  18  19
ENDBRANCH  17  18
ENDBRANCH  16  17
ENDBRANCH  15  16
ENDBRANCH  14  15
ENDBRANCH  13  14
ENDBRANCH  11  13
ENDBRANCH  10  11
ENDBRANCH   2  10
BRANCH   5  21
ATOM     21  O   UNL     1      36.239 -25.832 -11.695  0.00  0.00    -0.380 OA
ATOM     22  H   UNL     1      36.668 -25.647 -10.845  0.00  0.00    +0.211 HD
ENDBRANCH   5  21
BRANCH   6  23
ATOM     23  O   UNL     1      40.359 -24.744 -13.852  0.00  0.00    -0.378 OA
ATOM     24  H   UNL     1      40.767 -24.476 -14.690  0.00  0.00    +0.211 HD
ENDBRANCH   6  23
BRANCH   7  25
ATOM     25  O   UNL     1      38.669 -24.106 -11.468  0.00  0.00    -0.379 OA
ATOM     26  H   UNL     1      37.904 -24.019 -10.877  0.00  0.00    +0.211 HD
ENDBRANCH   7  25
TORSDOF 12
ENDMDL
MODEL 9
REMARK VINA RESULT:      -7.1      3.757      5.229
REMARK  Name = 24963032
REMARK  12 active torsions:
REMARK  status: ('A' for Active; 'I' for Inactive)
REMARK    1  A    between atoms: N_2  and  C_10
REMARK    2  A    between atoms: C_5  and  O_21
REMARK    3  A    between atoms: C_6  and  O_23
REMARK    4  A    between atoms: C_7  and  O_25
REMARK    5  A    between atoms: C_10  and  N_11
REMARK    6  A    between atoms: N_11  and  C_13
REMARK    7  A    between atoms: C_13  and  C_14
REMARK    8  A    between atoms: C_14  and  C_15
REMARK    9  A    between atoms: C_15  and  C_16
REMARK   10  A    between atoms: C_16  and  C_17
REMARK   11  A    between atoms: C_17  and  C_18
REMARK   12  A    between atoms: C_18  and  C_19
REMARK                            x       y       z     vdW  Elec       q    Type
REMARK                         _______ _______ _______ _____ _____    ______ ____
ROOT
ATOM      1  O   UNL     1      36.470 -26.156 -12.730  0.00  0.00    -0.334 OA
ATOM      2  N   UNL     1      36.220 -24.218 -13.855  0.00  0.00    -0.264 N 
ATOM      3  C   UNL     1      36.797 -23.812 -12.618  0.00  0.00    +0.135 C 
ATOM      4  C   UNL     1      36.565 -25.586 -14.054  0.00  0.00    +0.224 C 
ATOM      5  C   UNL     1      38.315 -23.665 -12.868  0.00  0.00    +0.160 C 
ATOM      6  C   UNL     1      38.041 -25.629 -14.487  0.00  0.00    +0.187 C 
ATOM      7  C   UNL     1      38.943 -24.967 -13.423  0.00  0.00    +0.170 C 
ATOM      8  C   UNL     1      36.444 -25.046 -11.793  0.00  0.00    +0.166 C 
ENDROOT
BRANCH   2  10
ATOM      9  S   UNL     1      36.485 -22.523 -15.878  0.00  0.00    -0.019 S 
ATOM     10  C   UNL     1      35.602 -23.403 -14.764  0.00  0.00    +0.136 C 
BRANCH  10  11
ATOM     11  N   UNL     1      34.224 -23.342 -14.723  0.00  0.00    -0.316 N 
ATOM     12  H   UNL     1      33.784 -22.795 -15.412  0.00  0.00    +0.148 HD
BRANCH  11  13
ATOM     13  C   UNL     1      33.368 -24.000 -13.775  0.00  0.00    +0.088 C 
BRANCH  13  14
ATOM     14  C   UNL     1      31.935 -23.481 -13.823  0.00  0.00    +0.021 C 
BRANCH  14  15
ATOM     15  C   UNL     1      30.909 -24.549 -13.435  0.00  0.00    +0.002 C 
BRANCH  15  16
ATOM     16  C   UNL     1      30.327 -25.301 -14.636  0.00  0.00    +0.000 C 
BRANCH  16  17
ATOM     17  C   UNL     1      30.063 -24.459 -15.889  0.00  0.00    +0.000 C 
BRANCH  17  18
ATOM     18  C   UNL     1      28.583 -24.130 -16.101  0.00  0.00    +0.000 C 
BRANCH  18  19
ATOM     19  C   UNL     1      28.411 -22.776 -16.791  0.00  0.00    +0.000 C 
ATOM     20  C   UNL     1      27.061 -22.156 -16.469  0.00  0.00    +0.000 C 
ENDBRANCH  18  19
ENDBRANCH  17  18
ENDBRANCH  16  17
ENDBRANCH  15  16
ENDBRANCH  14  15
ENDBRANCH  13  14
ENDBRANCH  11  13
ENDBRANCH  10  11
ENDBRANCH   2  10
BRANCH   5  21
ATOM     21  O   UNL     1      38.954 -23.312 -11.644  0.00  0.00    -0.380 OA
ATOM     22  H   UNL     1      39.912 -23.434 -11.733  0.00  0.00    +0.211 HD
ENDBRANCH   5  21
BRANCH   6  23
ATOM     23  O   UNL     1      38.455 -26.981 -14.661  0.00  0.00    -0.378 OA
ATOM     24  H   UNL     1      39.351 -27.000 -15.032  0.00  0.00    +0.211 HD
ENDBRANCH   6  23
BRANCH   7  25
ATOM     25  O   UNL     1      40.207 -24.646 -14.006  0.00  0.00    -0.379 OA
ATOM     26  H   UNL     1      40.071 -24.065 -14.771  0.00  0.00    +0.211 HD
ENDBRANCH   7  25
TORSDOF 12
ENDMDL
