MODEL 1
REMARK VINA RESULT:      -9.3      0.000      0.000
REMARK  Name = 5287461
REMARK  7 active torsions:
REMARK  status: ('A' for Active; 'I' for Inactive)
REMARK    1  A    between atoms: P_1  and  O_3
REMARK    2  A    between atoms: P_1  and  O_5
REMARK    3  A    between atoms: P_1  and  O_13
REMARK    4  A    between atoms: O_5  and  C_6
REMARK    5  A    between atoms: C_6  and  C_7
REMARK    6  A    between atoms: O_13  and  C_14
REMARK    7  A    between atoms: C_15  and  C_21
REMARK                            x       y       z     vdW  Elec       q    Type
REMARK                         _______ _______ _______ _____ _____    ______ ____
ROOT
ATOM      1  P   UNL     1      34.656 -16.048 -21.148  0.00  0.00    +0.531 P 
ATOM      2  O   UNL     1      34.949 -14.881 -20.248  0.00  0.00    -0.215 OA
ENDROOT
BRANCH   1   3
ATOM      3  O   UNL     1      33.073 -16.336 -21.338  0.00  0.00    -0.293 OA
ATOM      4  H   UNL     1      32.860 -17.214 -20.985  0.00  0.00    +0.223 HD
ENDBRANCH   1   3
BRANCH   1   5
ATOM      5  O   UNL     1      35.250 -17.469 -20.645  0.00  0.00    -0.264 OA
BRANCH   5   6
ATOM      6  C   UNL     1      35.707 -18.422 -21.586  0.00  0.00    +0.155 C 
BRANCH   6   7
ATOM      7  C   UNL     1      35.153 -19.791 -21.197  0.00  0.00    +0.030 C 
ATOM      8  C   UNL     1      36.067 -20.473 -20.170  0.00  0.00    +0.003 C 
ATOM      9  C   UNL     1      33.723 -19.663 -20.655  0.00  0.00    +0.003 C 
ATOM     10  C   UNL     1      35.507 -21.822 -19.723  0.00  0.00    +0.000 C 
ATOM     11  C   UNL     1      33.167 -21.013 -20.208  0.00  0.00    +0.000 C 
ATOM     12  C   UNL     1      34.082 -21.692 -19.194  0.00  0.00    +0.000 C 
ENDBRANCH   6   7
ENDBRANCH   5   6
ENDBRANCH   1   5
BRANCH   1  13
ATOM     13  O   UNL     1      35.173 -15.880 -22.668  0.00  0.00    -0.402 OA
BRANCH  13  14
ATOM     14  C   UNL     1      34.455 -15.307 -23.683  0.00  0.00    +0.152 C 
ATOM     15  C   UNL     1      34.150 -16.030 -24.832  0.00  0.00    +0.077 C 
ATOM     16  C   UNL     1      34.032 -13.989 -23.546  0.00  0.00    +0.038 C 
ATOM     17  C   UNL     1      33.414 -15.428 -25.854  0.00  0.00    +0.006 C 
ATOM     18  C   UNL     1      33.297 -13.387 -24.568  0.00  0.00    +0.003 C 
ATOM     19  C   UNL     1      32.989 -14.107 -25.722  0.00  0.00    +0.000 C 
BRANCH  15  21
ATOM     20  O   UNL     1      33.882 -18.280 -25.515  0.00  0.00    -0.283 OA
ATOM     21  C   UNL     1      34.583 -17.411 -24.990  0.00  0.00    +0.237 C 
ENDBRANCH  15  21
ENDBRANCH  13  14
ENDBRANCH   1  13
TORSDOF 7
ENDMDL
MODEL 2
REMARK VINA RESULT:      -8.8      1.101      2.188
REMARK  Name = 5287461
REMARK  7 active torsions:
REMARK  status: ('A' for Active; 'I' for Inactive)
REMARK    1  A    between atoms: P_1  and  O_3
REMARK    2  A    between atoms: P_1  and  O_5
REMARK    3  A    between atoms: P_1  and  O_13
REMARK    4  A    between atoms: O_5  and  C_6
REMARK    5  A    between atoms: C_6  and  C_7
REMARK    6  A    between atoms: O_13  and  C_14
REMARK    7  A    between atoms: C_15  and  C_21
REMARK                            x       y       z     vdW  Elec       q    Type
REMARK                         _______ _______ _______ _____ _____    ______ ____
ROOT
ATOM      1  P   UNL     1      34.233 -16.034 -21.173  0.00  0.00    +0.531 P 
ATOM      2  O   UNL     1      34.973 -15.777 -19.890  0.00  0.00    -0.215 OA
ENDROOT
BRANCH   1   3
ATOM      3  O   UNL     1      32.678 -15.583 -21.122  0.00  0.00    -0.293 OA
ATOM      4  H   UNL     1      32.617 -14.621 -21.226  0.00  0.00    +0.223 HD
ENDBRANCH   1   3
BRANCH   1   5
ATOM      5  O   UNL     1      34.171 -17.587 -21.631  0.00  0.00    -0.264 OA
BRANCH   5   6
ATOM      6  C   UNL     1      35.342 -18.383 -21.606  0.00  0.00    +0.155 C 
BRANCH   6   7
ATOM      7  C   UNL     1      34.956 -19.799 -21.185  0.00  0.00    +0.030 C 
ATOM      8  C   UNL     1      35.995 -20.378 -20.216  0.00  0.00    +0.003 C 
ATOM      9  C   UNL     1      33.556 -19.815 -20.557  0.00  0.00    +0.003 C 
ATOM     10  C   UNL     1      35.604 -21.774 -19.737  0.00  0.00    +0.000 C 
ATOM     11  C   UNL     1      33.169 -21.212 -20.078  0.00  0.00    +0.000 C 
ATOM     12  C   UNL     1      34.208 -21.788 -19.121  0.00  0.00    +0.000 C 
ENDBRANCH   6   7
ENDBRANCH   5   6
ENDBRANCH   1   5
BRANCH   1  13
ATOM     13  O   UNL     1      34.796 -15.230 -22.455  0.00  0.00    -0.402 OA
BRANCH  13  14
ATOM     14  C   UNL     1      34.214 -15.224 -23.694  0.00  0.00    +0.152 C 
ATOM     15  C   UNL     1      33.472 -14.128 -24.124  0.00  0.00    +0.077 C 
ATOM     16  C   UNL     1      34.378 -16.332 -24.520  0.00  0.00    +0.038 C 
ATOM     17  C   UNL     1      32.889 -14.141 -25.392  0.00  0.00    +0.006 C 
ATOM     18  C   UNL     1      33.796 -16.345 -25.787  0.00  0.00    +0.003 C 
ATOM     19  C   UNL     1      33.050 -15.249 -26.223  0.00  0.00    +0.000 C 
BRANCH  15  21
ATOM     20  O   UNL     1      32.395 -12.875 -22.431  0.00  0.00    -0.283 OA
ATOM     21  C   UNL     1      33.292 -12.960 -23.274  0.00  0.00    +0.237 C 
ENDBRANCH  15  21
ENDBRANCH  13  14
ENDBRANCH   1  13
TORSDOF 7
ENDMDL
MODEL 3
REMARK VINA RESULT:      -8.7      1.680      2.970
REMARK  Name = 5287461
REMARK  7 active torsions:
REMARK  status: ('A' for Active; 'I' for Inactive)
REMARK    1  A    between atoms: P_1  and  O_3
REMARK    2  A    between atoms: P_1  and  O_5
REMARK    3  A    between atoms: P_1  and  O_13
REMARK    4  A    between atoms: O_5  and  C_6
REMARK    5  A    between atoms: C_6  and  C_7
REMARK    6  A    between atoms: O_13  and  C_14
REMARK    7  A    between atoms: C_15  and  C_21
REMARK                            x       y       z     vdW  Elec       q    Type
REMARK                         _______ _______ _______ _____ _____    ______ ____
ROOT
ATOM      1  P   UNL     1      34.596 -16.832 -24.507  0.00  0.00    +0.531 P 
ATOM      2  O   UNL     1      34.931 -17.215 -25.922  0.00  0.00    -0.215 OA
ENDROOT
BRANCH   1   3
ATOM      3  O   UNL     1      35.813 -16.095 -23.733  0.00  0.00    -0.293 OA
ATOM      4  H   UNL     1      36.650 -16.302 -24.175  0.00  0.00    +0.223 HD
ENDBRANCH   1   3
BRANCH   1   5
ATOM      5  O   UNL     1      34.211 -18.070 -23.534  0.00  0.00    -0.264 OA
BRANCH   5   6
ATOM      6  C   UNL     1      34.542 -18.022 -22.159  0.00  0.00    +0.155 C 
BRANCH   6   7
ATOM      7  C   UNL     1      34.536 -19.447 -21.610  0.00  0.00    +0.030 C 
ATOM      8  C   UNL     1      35.826 -19.734 -20.830  0.00  0.00    +0.003 C 
ATOM      9  C   UNL     1      33.301 -19.684 -20.730  0.00  0.00    +0.003 C 
ATOM     10  C   UNL     1      35.821 -21.136 -20.225  0.00  0.00    +0.000 C 
ATOM     11  C   UNL     1      33.300 -21.086 -20.125  0.00  0.00    +0.000 C 
ATOM     12  C   UNL     1      34.587 -21.370 -19.358  0.00  0.00    +0.000 C 
ENDBRANCH   6   7
ENDBRANCH   5   6
ENDBRANCH   1   5
BRANCH   1  13
ATOM     13  O   UNL     1      33.384 -15.775 -24.358  0.00  0.00    -0.402 OA
BRANCH  13  14
ATOM     14  C   UNL     1      33.469 -14.439 -24.644  0.00  0.00    +0.152 C 
ATOM     15  C   UNL     1      33.568 -13.500 -23.622  0.00  0.00    +0.077 C 
ATOM     16  C   UNL     1      33.456 -14.035 -25.975  0.00  0.00    +0.038 C 
ATOM     17  C   UNL     1      33.655 -12.143 -23.935  0.00  0.00    +0.006 C 
ATOM     18  C   UNL     1      33.543 -12.678 -26.288  0.00  0.00    +0.003 C 
ATOM     19  C   UNL     1      33.642 -11.732 -25.267  0.00  0.00    +0.000 C 
BRANCH  15  21
ATOM     20  O   UNL     1      34.582 -14.381 -21.674  0.00  0.00    -0.283 OA
ATOM     21  C   UNL     1      33.584 -13.907 -22.224  0.00  0.00    +0.237 C 
ENDBRANCH  15  21
ENDBRANCH  13  14
ENDBRANCH   1  13
TORSDOF 7
ENDMDL
MODEL 4
REMARK VINA RESULT:      -8.7      3.291      7.938
REMARK  Name = 5287461
REMARK  7 active torsions:
REMARK  status: ('A' for Active; 'I' for Inactive)
REMARK    1  A    between atoms: P_1  and  O_3
REMARK    2  A    between atoms: P_1  and  O_5
REMARK    3  A    between atoms: P_1  and  O_13
REMARK    4  A    between atoms: O_5  and  C_6
REMARK    5  A    between atoms: C_6  and  C_7
REMARK    6  A    between atoms: O_13  and  C_14
REMARK    7  A    between atoms: C_15  and  C_21
REMARK                            x       y       z     vdW  Elec       q    Type
REMARK                         _______ _______ _______ _____ _____    ______ ____
ROOT
ATOM      1  P   UNL     1      33.470 -13.922 -23.846  0.00  0.00    +0.531 P 
ATOM      2  O   UNL     1      32.995 -14.314 -25.217  0.00  0.00    -0.215 OA
ENDROOT
BRANCH   1   3
ATOM      3  O   UNL     1      32.375 -14.190 -22.682  0.00  0.00    -0.293 OA
ATOM      4  H   UNL     1      32.416 -13.473 -22.030  0.00  0.00    +0.223 HD
ENDBRANCH   1   3
BRANCH   1   5
ATOM      5  O   UNL     1      33.845 -12.355 -23.671  0.00  0.00    -0.264 OA
BRANCH   5   6
ATOM      6  C   UNL     1      34.052 -11.542 -24.812  0.00  0.00    +0.155 C 
BRANCH   6   7
ATOM      7  C   UNL     1      33.706 -10.100 -24.447  0.00  0.00    +0.030 C 
ATOM      8  C   UNL     1      32.835 -10.054 -23.185  0.00  0.00    +0.003 C 
ATOM      9  C   UNL     1      34.982  -9.268 -24.261  0.00  0.00    +0.003 C 
ATOM     10  C   UNL     1      32.520  -8.618 -22.768  0.00  0.00    +0.000 C 
ATOM     11  C   UNL     1      34.664  -7.834 -23.842  0.00  0.00    +0.000 C 
ATOM     12  C   UNL     1      33.790  -7.792 -22.592  0.00  0.00    +0.000 C 
ENDBRANCH   6   7
ENDBRANCH   5   6
ENDBRANCH   1   5
BRANCH   1  13
ATOM     13  O   UNL     1      34.761 -14.734 -23.316  0.00  0.00    -0.402 OA
BRANCH  13  14
ATOM     14  C   UNL     1      34.806 -16.086 -23.108  0.00  0.00    +0.152 C 
ATOM     15  C   UNL     1      34.766 -16.608 -21.818  0.00  0.00    +0.077 C 
ATOM     16  C   UNL     1      34.892 -16.933 -24.209  0.00  0.00    +0.038 C 
ATOM     17  C   UNL     1      34.812 -17.989 -21.629  0.00  0.00    +0.006 C 
ATOM     18  C   UNL     1      34.937 -18.314 -24.019  0.00  0.00    +0.003 C 
ATOM     19  C   UNL     1      34.898 -18.843 -22.728  0.00  0.00    +0.000 C 
BRANCH  15  21
ATOM     20  O   UNL     1      33.618 -15.221 -20.283  0.00  0.00    -0.283 OA
ATOM     21  C   UNL     1      34.675 -15.736 -20.656  0.00  0.00    +0.237 C 
ENDBRANCH  15  21
ENDBRANCH  13  14
ENDBRANCH   1  13
TORSDOF 7
ENDMDL
MODEL 5
REMARK VINA RESULT:      -8.6      6.720     11.292
REMARK  Name = 5287461
REMARK  7 active torsions:
REMARK  status: ('A' for Active; 'I' for Inactive)
REMARK    1  A    between atoms: P_1  and  O_3
REMARK    2  A    between atoms: P_1  and  O_5
REMARK    3  A    between atoms: P_1  and  O_13
REMARK    4  A    between atoms: O_5  and  C_6
REMARK    5  A    between atoms: C_6  and  C_7
REMARK    6  A    between atoms: O_13  and  C_14
REMARK    7  A    between atoms: C_15  and  C_21
REMARK                            x       y       z     vdW  Elec       q    Type
REMARK                         _______ _______ _______ _____ _____    ______ ____
ROOT
ATOM      1  P   UNL     1      34.238 -23.491 -15.266  0.00  0.00    +0.531 P 
ATOM      2  O   UNL     1      32.834 -23.245 -14.787  0.00  0.00    -0.215 OA
ENDROOT
BRANCH   1   3
ATOM      3  O   UNL     1      35.289 -22.352 -14.794  0.00  0.00    -0.293 OA
ATOM      4  H   UNL     1      35.501 -22.477 -13.856  0.00  0.00    +0.223 HD
ENDBRANCH   1   3
BRANCH   1   5
ATOM      5  O   UNL     1      34.415 -23.539 -16.876  0.00  0.00    -0.264 OA
BRANCH   5   6
ATOM      6  C   UNL     1      33.395 -23.037 -17.719  0.00  0.00    +0.155 C 
BRANCH   6   7
ATOM      7  C   UNL     1      34.047 -22.418 -18.953  0.00  0.00    +0.030 C 
ATOM      8  C   UNL     1      33.225 -21.226 -19.461  0.00  0.00    +0.003 C 
ATOM      9  C   UNL     1      35.491 -21.997 -18.649  0.00  0.00    +0.003 C 
ATOM     10  C   UNL     1      33.886 -20.556 -20.664  0.00  0.00    +0.000 C 
ATOM     11  C   UNL     1      36.147 -21.325 -19.853  0.00  0.00    +0.000 C 
ATOM     12  C   UNL     1      35.323 -20.146 -20.360  0.00  0.00    +0.000 C 
ENDBRANCH   6   7
ENDBRANCH   5   6
ENDBRANCH   1   5
BRANCH   1  13
ATOM     13  O   UNL     1      34.915 -24.851 -14.719  0.00  0.00    -0.402 OA
BRANCH  13  14
ATOM     14  C   UNL     1      36.182 -24.947 -14.211  0.00  0.00    +0.152 C 
ATOM     15  C   UNL     1      36.406 -24.857 -12.840  0.00  0.00    +0.077 C 
ATOM     16  C   UNL     1      37.245 -25.139 -15.088  0.00  0.00    +0.038 C 
ATOM     17  C   UNL     1      37.705 -24.961 -12.343  0.00  0.00    +0.006 C 
ATOM     18  C   UNL     1      38.544 -25.242 -14.591  0.00  0.00    +0.003 C 
ATOM     19  C   UNL     1      38.774 -25.152 -13.218  0.00  0.00    +0.000 C 
BRANCH  15  21
ATOM     20  O   UNL     1      35.322 -25.077 -10.749  0.00  0.00    -0.283 OA
ATOM     21  C   UNL     1      35.305 -24.659 -11.909  0.00  0.00    +0.237 C 
ENDBRANCH  15  21
ENDBRANCH  13  14
ENDBRANCH   1  13
TORSDOF 7
ENDMDL
MODEL 6
REMARK VINA RESULT:      -8.5      4.927      7.056
REMARK  Name = 5287461
REMARK  7 active torsions:
REMARK  status: ('A' for Active; 'I' for Inactive)
REMARK    1  A    between atoms: P_1  and  O_3
REMARK    2  A    between atoms: P_1  and  O_5
REMARK    3  A    between atoms: P_1  and  O_13
REMARK    4  A    between atoms: O_5  and  C_6
REMARK    5  A    between atoms: C_6  and  C_7
REMARK    6  A    between atoms: O_13  and  C_14
REMARK    7  A    between atoms: C_15  and  C_21
REMARK                            x       y       z     vdW  Elec       q    Type
REMARK                         _______ _______ _______ _____ _____    ______ ____
ROOT
ATOM      1  P   UNL     1      33.879 -11.007 -24.488  0.00  0.00    +0.531 P 
ATOM      2  O   UNL     1      33.848 -11.351 -25.951  0.00  0.00    -0.215 OA
ENDROOT
BRANCH   1   3
ATOM      3  O   UNL     1      35.270 -10.325 -24.015  0.00  0.00    -0.293 OA
ATOM      4  H   UNL     1      35.721 -10.911 -23.387  0.00  0.00    +0.223 HD
ENDBRANCH   1   3
BRANCH   1   5
ATOM      5  O   UNL     1      33.705 -12.267 -23.483  0.00  0.00    -0.264 OA
BRANCH   5   6
ATOM      6  C   UNL     1      32.901 -13.370 -23.859  0.00  0.00    +0.155 C 
BRANCH   6   7
ATOM      7  C   UNL     1      33.080 -14.475 -22.820  0.00  0.00    +0.030 C 
ATOM      8  C   UNL     1      34.528 -14.983 -22.814  0.00  0.00    +0.003 C 
ATOM      9  C   UNL     1      32.668 -13.981 -21.427  0.00  0.00    +0.003 C 
ATOM     10  C   UNL     1      34.746 -16.053 -21.745  0.00  0.00    +0.000 C 
ATOM     11  C   UNL     1      32.889 -15.052 -20.361  0.00  0.00    +0.000 C 
ATOM     12  C   UNL     1      34.327 -15.561 -20.363  0.00  0.00    +0.000 C 
ENDBRANCH   6   7
ENDBRANCH   5   6
ENDBRANCH   1   5
BRANCH   1  13
ATOM     13  O   UNL     1      32.774  -9.928 -24.019  0.00  0.00    -0.402 OA
BRANCH  13  14
ATOM     14  C   UNL     1      32.556  -9.539 -22.725  0.00  0.00    +0.152 C 
ATOM     15  C   UNL     1      33.030  -8.315 -22.262  0.00  0.00    +0.077 C 
ATOM     16  C   UNL     1      31.851 -10.389 -21.877  0.00  0.00    +0.038 C 
ATOM     17  C   UNL     1      32.796  -7.937 -20.940  0.00  0.00    +0.006 C 
ATOM     18  C   UNL     1      31.617 -10.011 -20.555  0.00  0.00    +0.003 C 
ATOM     19  C   UNL     1      32.090  -8.784 -20.086  0.00  0.00    +0.000 C 
BRANCH  15  21
ATOM     20  O   UNL     1      34.986  -7.499 -23.313  0.00  0.00    -0.283 OA
ATOM     21  C   UNL     1      33.768  -7.415 -23.137  0.00  0.00    +0.237 C 
ENDBRANCH  15  21
ENDBRANCH  13  14
ENDBRANCH   1  13
TORSDOF 7
ENDMDL
MODEL 7
REMARK VINA RESULT:      -8.5      1.199      2.063
REMARK  Name = 5287461
REMARK  7 active torsions:
REMARK  status: ('A' for Active; 'I' for Inactive)
REMARK    1  A    between atoms: P_1  and  O_3
REMARK    2  A    between atoms: P_1  and  O_5
REMARK    3  A    between atoms: P_1  and  O_13
REMARK    4  A    between atoms: O_5  and  C_6
REMARK    5  A    between atoms: C_6  and  C_7
REMARK    6  A    between atoms: O_13  and  C_14
REMARK    7  A    between atoms: C_15  and  C_21
REMARK                            x       y       z     vdW  Elec       q    Type
REMARK                         _______ _______ _______ _____ _____    ______ ____
ROOT
ATOM      1  P   UNL     1      34.489 -15.951 -22.228  0.00  0.00    +0.531 P 
ATOM      2  O   UNL     1      35.672 -16.196 -23.123  0.00  0.00    -0.215 OA
ENDROOT
BRANCH   1   3
ATOM      3  O   UNL     1      34.831 -15.023 -20.946  0.00  0.00    -0.293 OA
ATOM      4  H   UNL     1      35.787 -14.865 -20.907  0.00  0.00    +0.223 HD
ENDBRANCH   1   3
BRANCH   1   5
ATOM      5  O   UNL     1      33.834 -17.284 -21.578  0.00  0.00    -0.264 OA
BRANCH   5   6
ATOM      6  C   UNL     1      34.299 -18.565 -21.960  0.00  0.00    +0.155 C 
BRANCH   6   7
ATOM      7  C   UNL     1      34.351 -19.451 -20.718  0.00  0.00    +0.030 C 
ATOM      8  C   UNL     1      33.103 -20.340 -20.634  0.00  0.00    +0.003 C 
ATOM      9  C   UNL     1      35.629 -20.301 -20.712  0.00  0.00    +0.003 C 
ATOM     10  C   UNL     1      33.157 -21.276 -19.428  0.00  0.00    +0.000 C 
ATOM     11  C   UNL     1      35.678 -21.237 -19.507  0.00  0.00    +0.000 C 
ATOM     12  C   UNL     1      34.432 -22.113 -19.421  0.00  0.00    +0.000 C 
ENDBRANCH   6   7
ENDBRANCH   5   6
ENDBRANCH   1   5
BRANCH   1  13
ATOM     13  O   UNL     1      33.262 -15.165 -22.923  0.00  0.00    -0.402 OA
BRANCH  13  14
ATOM     14  C   UNL     1      33.393 -14.094 -23.765  0.00  0.00    +0.152 C 
ATOM     15  C   UNL     1      33.367 -14.270 -25.146  0.00  0.00    +0.077 C 
ATOM     16  C   UNL     1      33.551 -12.824 -23.219  0.00  0.00    +0.038 C 
ATOM     17  C   UNL     1      33.500 -13.165 -25.987  0.00  0.00    +0.006 C 
ATOM     18  C   UNL     1      33.684 -11.719 -24.060  0.00  0.00    +0.003 C 
ATOM     19  C   UNL     1      33.659 -11.890 -25.445  0.00  0.00    +0.000 C 
BRANCH  15  21
ATOM     20  O   UNL     1      34.152 -16.297 -26.080  0.00  0.00    -0.283 OA
ATOM     21  C   UNL     1      33.201 -15.592 -25.733  0.00  0.00    +0.237 C 
ENDBRANCH  15  21
ENDBRANCH  13  14
ENDBRANCH   1  13
TORSDOF 7
ENDMDL
MODEL 8
REMARK VINA RESULT:      -8.5      3.055      6.637
REMARK  Name = 5287461
REMARK  7 active torsions:
REMARK  status: ('A' for Active; 'I' for Inactive)
REMARK    1  A    between atoms: P_1  and  O_3
REMARK    2  A    between atoms: P_1  and  O_5
REMARK    3  A    between atoms: P_1  and  O_13
REMARK    4  A    between atoms: O_5  and  C_6
REMARK    5  A    between atoms: C_6  and  C_7
REMARK    6  A    between atoms: O_13  and  C_14
REMARK    7  A    between atoms: C_15  and  C_21
REMARK                            x       y       z     vdW  Elec       q    Type
REMARK                         _______ _______ _______ _____ _____    ______ ____
ROOT
ATOM      1  P   UNL     1      33.788 -14.907 -21.538  0.00  0.00    +0.531 P 
ATOM      2  O   UNL     1      32.656 -15.833 -21.188  0.00  0.00    -0.215 OA
ENDROOT
BRANCH   1   3
ATOM      3  O   UNL     1      34.886 -14.756 -20.357  0.00  0.00    -0.293 OA
ATOM      4  H   UNL     1      34.687 -15.387 -19.648  0.00  0.00    +0.223 HD
ENDBRANCH   1   3
BRANCH   1   5
ATOM      5  O   UNL     1      33.350 -13.380 -21.858  0.00  0.00    -0.264 OA
BRANCH   5   6
ATOM      6  C   UNL     1      32.049 -13.099 -22.339  0.00  0.00    +0.155 C 
BRANCH   6   7
ATOM      7  C   UNL     1      31.536 -11.842 -21.639  0.00  0.00    +0.030 C 
ATOM      8  C   UNL     1      31.762 -11.934 -20.124  0.00  0.00    +0.003 C 
ATOM      9  C   UNL     1      32.206 -10.588 -22.216  0.00  0.00    +0.003 C 
ATOM     10  C   UNL     1      31.305 -10.666 -19.407  0.00  0.00    +0.000 C 
ATOM     11  C   UNL     1      31.749  -9.322 -21.496  0.00  0.00    +0.000 C 
ATOM     12  C   UNL     1      31.968  -9.421 -19.989  0.00  0.00    +0.000 C 
ENDBRANCH   6   7
ENDBRANCH   5   6
ENDBRANCH   1   5
BRANCH   1  13
ATOM     13  O   UNL     1      34.681 -15.372 -22.800  0.00  0.00    -0.402 OA
BRANCH  13  14
ATOM     14  C   UNL     1      34.723 -16.643 -23.307  0.00  0.00    +0.152 C 
ATOM     15  C   UNL     1      34.338 -16.896 -24.620  0.00  0.00    +0.077 C 
ATOM     16  C   UNL     1      35.159 -17.679 -22.487  0.00  0.00    +0.038 C 
ATOM     17  C   UNL     1      34.390 -18.198 -25.118  0.00  0.00    +0.006 C 
ATOM     18  C   UNL     1      35.211 -18.981 -22.985  0.00  0.00    +0.003 C 
ATOM     19  C   UNL     1      34.825 -19.241 -24.301  0.00  0.00    +0.000 C 
BRANCH  15  21
ATOM     20  O   UNL     1      33.021 -15.981 -26.360  0.00  0.00    -0.283 OA
ATOM     21  C   UNL     1      33.881 -15.822 -25.490  0.00  0.00    +0.237 C 
ENDBRANCH  15  21
ENDBRANCH  13  14
ENDBRANCH   1  13
TORSDOF 7
ENDMDL
MODEL 9
REMARK VINA RESULT:      -8.4      6.225     10.798
REMARK  Name = 5287461
REMARK  7 active torsions:
REMARK  status: ('A' for Active; 'I' for Inactive)
REMARK    1  A    between atoms: P_1  and  O_3
REMARK    2  A    between atoms: P_1  and  O_5
REMARK    3  A    between atoms: P_1  and  O_13
REMARK    4  A    between atoms: O_5  and  C_6
REMARK    5  A    between atoms: C_6  and  C_7
REMARK    6  A    between atoms: O_13  and  C_14
REMARK    7  A    between atoms: C_15  and  C_21
REMARK                            x       y       z     vdW  Elec       q    Type
REMARK                         _______ _______ _______ _____ _____    ______ ____
ROOT
ATOM      1  P   UNL     1      35.953 -22.708 -16.157  0.00  0.00    +0.531 P 
ATOM      2  O   UNL     1      34.810 -22.555 -15.193  0.00  0.00    -0.215 OA
ENDROOT
BRANCH   1   3
ATOM      3  O   UNL     1      37.011 -21.484 -16.103  0.00  0.00    -0.293 OA
ATOM      4  H   UNL     1      36.530 -20.642 -16.070  0.00  0.00    +0.223 HD
ENDBRANCH   1   3
BRANCH   1   5
ATOM      5  O   UNL     1      35.528 -22.786 -17.719  0.00  0.00    -0.264 OA
BRANCH   5   6
ATOM      6  C   UNL     1      34.177 -22.604 -18.099  0.00  0.00    +0.155 C 
BRANCH   6   7
ATOM      7  C   UNL     1      34.144 -21.855 -19.429  0.00  0.00    +0.030 C 
ATOM      8  C   UNL     1      32.922 -20.931 -19.501  0.00  0.00    +0.003 C 
ATOM      9  C   UNL     1      35.442 -21.062 -19.637  0.00  0.00    +0.003 C 
ATOM     10  C   UNL     1      32.895 -20.130 -20.801  0.00  0.00    +0.000 C 
ATOM     11  C   UNL     1      35.411 -20.261 -20.936  0.00  0.00    +0.000 C 
ATOM     12  C   UNL     1      34.190 -19.350 -21.008  0.00  0.00    +0.000 C 
ENDBRANCH   6   7
ENDBRANCH   5   6
ENDBRANCH   1   5
BRANCH   1  13
ATOM     13  O   UNL     1      36.888 -24.000 -15.902  0.00  0.00    -0.402 OA
BRANCH  13  14
ATOM     14  C   UNL     1      37.178 -24.529 -14.673  0.00  0.00    +0.152 C 
ATOM     15  C   UNL     1      36.893 -25.861 -14.389  0.00  0.00    +0.077 C 
ATOM     16  C   UNL     1      37.764 -23.712 -13.711  0.00  0.00    +0.038 C 
ATOM     17  C   UNL     1      37.198 -26.381 -13.131  0.00  0.00    +0.006 C 
ATOM     18  C   UNL     1      38.070 -24.232 -12.453  0.00  0.00    +0.003 C 
ATOM     19  C   UNL     1      37.786 -25.567 -12.163  0.00  0.00    +0.000 C 
BRANCH  15  21
ATOM     20  O   UNL     1      36.932 -27.331 -16.242  0.00  0.00    -0.283 OA
ATOM     21  C   UNL     1      36.280 -26.729 -15.385  0.00  0.00    +0.237 C 
ENDBRANCH  15  21
ENDBRANCH  13  14
ENDBRANCH   1  13
TORSDOF 7
ENDMDL
