MODEL 1
REMARK VINA RESULT:      -9.0      0.000      0.000
REMARK  Name = 54688261
REMARK  5 active torsions:
REMARK  status: ('A' for Active; 'I' for Inactive)
REMARK    1  A    between atoms: C_3  and  C_14
REMARK    2  A    between atoms: C_4  and  O_12
REMARK    3  A    between atoms: C_14  and  C_15
REMARK    4  A    between atoms: C_14  and  C_21
REMARK    5  A    between atoms: C_21  and  C_23
REMARK                            x       y       z     vdW  Elec       q    Type
REMARK                         _______ _______ _______ _____ _____    ______ ____
ROOT
ATOM      1  O   UNL     1      36.440 -20.781 -19.213  0.00  0.00    -0.421 OA
ATOM      2  O   UNL     1      37.192 -19.197 -20.663  0.00  0.00    -0.245 OA
ATOM      3  C   UNL     1      34.870 -19.714 -20.780  0.00  0.00    +0.092 A 
ATOM      4  C   UNL     1      33.862 -20.453 -20.280  0.00  0.00    +0.139 A 
ATOM      5  C   UNL     1      34.096 -21.416 -19.202  0.00  0.00    +0.068 A 
ATOM      6  C   UNL     1      36.251 -19.860 -20.234  0.00  0.00    +0.345 A 
ATOM      7  C   UNL     1      35.385 -21.552 -18.699  0.00  0.00    +0.152 A 
ATOM      8  C   UNL     1      33.088 -22.214 -18.644  0.00  0.00    +0.006 C 
ATOM      9  C   UNL     1      35.693 -22.445 -17.672  0.00  0.00    +0.038 C 
ATOM     10  C   UNL     1      33.379 -23.115 -17.615  0.00  0.00    +0.000 C 
ATOM     11  C   UNL     1      34.682 -23.231 -17.129  0.00  0.00    +0.003 C 
ENDROOT
BRANCH   4  12
ATOM     12  O   UNL     1      32.554 -20.385 -20.712  0.00  0.00    -0.506 OA
ATOM     13  H   UNL     1      32.043 -19.617 -20.542  0.00  0.00    +0.292 HD
ENDBRANCH   4  12
BRANCH   3  14
ATOM     14  C   UNL     1      34.752 -18.706 -21.891  0.00  0.00    +0.061 C 
BRANCH  14  15
ATOM     15  C   UNL     1      34.195 -17.386 -21.379  0.00  0.00    -0.018 C 
ATOM     16  C   UNL     1      35.063 -16.357 -21.017  0.00  0.00    -0.004 C 
ATOM     17  C   UNL     1      32.817 -17.206 -21.271  0.00  0.00    -0.004 C 
ATOM     18  C   UNL     1      34.553 -15.146 -20.548  0.00  0.00    -0.000 C 
ATOM     19  C   UNL     1      32.305 -15.996 -20.801  0.00  0.00    -0.000 C 
ATOM     20  C   UNL     1      33.174 -14.966 -20.440  0.00  0.00    -0.000 C 
ENDBRANCH  14  15
BRANCH  14  21
ATOM     21  C   UNL     1      33.928 -19.291 -23.054  0.00  0.00    +0.074 C 
BRANCH  21  23
ATOM     22  O   UNL     1      35.036 -20.064 -25.065  0.00  0.00    -0.296 OA
ATOM     23  C   UNL     1      34.585 -19.121 -24.418  0.00  0.00    +0.152 C 
ATOM     24  C   UNL     1      34.700 -17.707 -24.926  0.00  0.00    +0.072 C 
ENDBRANCH  21  23
ENDBRANCH  14  21
ENDBRANCH   3  14
TORSDOF 5
ENDMDL
MODEL 2
REMARK VINA RESULT:      -8.5      1.250      1.709
REMARK  Name = 54688261
REMARK  5 active torsions:
REMARK  status: ('A' for Active; 'I' for Inactive)
REMARK    1  A    between atoms: C_3  and  C_14
REMARK    2  A    between atoms: C_4  and  O_12
REMARK    3  A    between atoms: C_14  and  C_15
REMARK    4  A    between atoms: C_14  and  C_21
REMARK    5  A    between atoms: C_21  and  C_23
REMARK                            x       y       z     vdW  Elec       q    Type
REMARK                         _______ _______ _______ _____ _____    ______ ____
ROOT
ATOM      1  O   UNL     1      36.531 -20.064 -20.516  0.00  0.00    -0.421 OA
ATOM      2  O   UNL     1      37.216 -18.398 -21.906  0.00  0.00    -0.245 OA
ATOM      3  C   UNL     1      34.862 -18.655 -21.651  0.00  0.00    +0.092 A 
ATOM      4  C   UNL     1      33.869 -19.342 -21.056  0.00  0.00    +0.139 A 
ATOM      5  C   UNL     1      34.162 -20.450 -20.144  0.00  0.00    +0.068 A 
ATOM      6  C   UNL     1      36.287 -19.008 -21.384  0.00  0.00    +0.345 A 
ATOM      7  C   UNL     1      35.491 -20.779 -19.901  0.00  0.00    +0.152 A 
ATOM      8  C   UNL     1      33.172 -21.202 -19.498  0.00  0.00    +0.006 C 
ATOM      9  C   UNL     1      35.856 -21.819 -19.046  0.00  0.00    +0.038 C 
ATOM     10  C   UNL     1      33.520 -22.250 -18.638  0.00  0.00    +0.000 C 
ATOM     11  C   UNL     1      34.861 -22.558 -18.412  0.00  0.00    +0.003 C 
ENDROOT
BRANCH   4  12
ATOM     12  O   UNL     1      32.526 -19.087 -21.233  0.00  0.00    -0.506 OA
ATOM     13  H   UNL     1      32.106 -19.319 -22.038  0.00  0.00    +0.292 HD
ENDBRANCH   4  12
BRANCH   3  14
ATOM     14  C   UNL     1      34.683 -17.510 -22.612  0.00  0.00    +0.061 C 
BRANCH  14  15
ATOM     15  C   UNL     1      34.130 -16.281 -21.906  0.00  0.00    -0.018 C 
ATOM     16  C   UNL     1      33.079 -15.564 -22.475  0.00  0.00    -0.004 C 
ATOM     17  C   UNL     1      34.675 -15.873 -20.689  0.00  0.00    -0.004 C 
ATOM     18  C   UNL     1      32.572 -14.436 -21.828  0.00  0.00    -0.000 C 
ATOM     19  C   UNL     1      34.169 -14.746 -20.041  0.00  0.00    -0.000 C 
ATOM     20  C   UNL     1      33.117 -14.028 -20.611  0.00  0.00    -0.000 C 
ENDBRANCH  14  15
BRANCH  14  21
ATOM     21  C   UNL     1      33.819 -17.951 -23.809  0.00  0.00    +0.074 C 
BRANCH  21  23
ATOM     22  O   UNL     1      34.852 -17.573 -25.967  0.00  0.00    -0.296 OA
ATOM     23  C   UNL     1      34.628 -18.346 -25.037  0.00  0.00    +0.152 C 
ATOM     24  C   UNL     1      35.111 -19.772 -25.083  0.00  0.00    +0.072 C 
ENDBRANCH  21  23
ENDBRANCH  14  21
ENDBRANCH   3  14
TORSDOF 5
ENDMDL
MODEL 3
REMARK VINA RESULT:      -8.3      4.958      7.775
REMARK  Name = 54688261
REMARK  5 active torsions:
REMARK  status: ('A' for Active; 'I' for Inactive)
REMARK    1  A    between atoms: C_3  and  C_14
REMARK    2  A    between atoms: C_4  and  O_12
REMARK    3  A    between atoms: C_14  and  C_15
REMARK    4  A    between atoms: C_14  and  C_21
REMARK    5  A    between atoms: C_21  and  C_23
REMARK                            x       y       z     vdW  Elec       q    Type
REMARK                         _______ _______ _______ _____ _____    ______ ____
ROOT
ATOM      1  O   UNL     1      33.383 -15.843 -25.580  0.00  0.00    -0.421 OA
ATOM      2  O   UNL     1      32.308 -13.919 -26.145  0.00  0.00    -0.245 OA
ATOM      3  C   UNL     1      33.383 -13.938 -24.020  0.00  0.00    +0.092 A 
ATOM      4  C   UNL     1      34.121 -14.647 -23.146  0.00  0.00    +0.139 A 
ATOM      5  C   UNL     1      34.535 -16.019 -23.448  0.00  0.00    +0.068 A 
ATOM      6  C   UNL     1      32.976 -14.540 -25.324  0.00  0.00    +0.345 A 
ATOM      7  C   UNL     1      34.151 -16.578 -24.663  0.00  0.00    +0.152 A 
ATOM      8  C   UNL     1      35.301 -16.806 -22.578  0.00  0.00    +0.006 C 
ATOM      9  C   UNL     1      34.503 -17.878 -25.028  0.00  0.00    +0.038 C 
ATOM     10  C   UNL     1      35.662 -18.111 -22.928  0.00  0.00    +0.000 C 
ATOM     11  C   UNL     1      35.263 -18.647 -24.152  0.00  0.00    +0.003 C 
ENDROOT
BRANCH   4  12
ATOM     12  O   UNL     1      34.551 -14.176 -21.923  0.00  0.00    -0.506 OA
ATOM     13  H   UNL     1      34.374 -14.666 -21.144  0.00  0.00    +0.292 HD
ENDBRANCH   4  12
BRANCH   3  14
ATOM     14  C   UNL     1      32.892 -12.530 -23.814  0.00  0.00    +0.061 C 
BRANCH  14  15
ATOM     15  C   UNL     1      33.837 -11.520 -24.447  0.00  0.00    -0.018 C 
ATOM     16  C   UNL     1      34.370 -11.762 -25.713  0.00  0.00    -0.004 C 
ATOM     17  C   UNL     1      34.169 -10.352 -23.761  0.00  0.00    -0.004 C 
ATOM     18  C   UNL     1      35.237 -10.835 -26.294  0.00  0.00    -0.000 C 
ATOM     19  C   UNL     1      35.036  -9.425 -24.342  0.00  0.00    -0.000 C 
ATOM     20  C   UNL     1      35.569  -9.668 -25.608  0.00  0.00    -0.000 C 
ENDBRANCH  14  15
BRANCH  14  21
ATOM     21  C   UNL     1      32.650 -12.265 -22.316  0.00  0.00    +0.074 C 
BRANCH  21  23
ATOM     22  O   UNL     1      30.926 -10.662 -22.884  0.00  0.00    -0.296 OA
ATOM     23  C   UNL     1      31.433 -11.394 -22.035  0.00  0.00    +0.152 C 
ATOM     24  C   UNL     1      30.897 -11.435 -20.628  0.00  0.00    +0.072 C 
ENDBRANCH  21  23
ENDBRANCH  14  21
ENDBRANCH   3  14
TORSDOF 5
ENDMDL
MODEL 4
REMARK VINA RESULT:      -8.2      5.691      9.729
REMARK  Name = 54688261
REMARK  5 active torsions:
REMARK  status: ('A' for Active; 'I' for Inactive)
REMARK    1  A    between atoms: C_3  and  C_14
REMARK    2  A    between atoms: C_4  and  O_12
REMARK    3  A    between atoms: C_14  and  C_15
REMARK    4  A    between atoms: C_14  and  C_21
REMARK    5  A    between atoms: C_21  and  C_23
REMARK                            x       y       z     vdW  Elec       q    Type
REMARK                         _______ _______ _______ _____ _____    ______ ____
ROOT
ATOM      1  O   UNL     1      31.894 -10.008 -22.169  0.00  0.00    -0.421 OA
ATOM      2  O   UNL     1      31.064 -12.115 -21.945  0.00  0.00    -0.245 OA
ATOM      3  C   UNL     1      32.911 -11.863 -23.428  0.00  0.00    +0.092 A 
ATOM      4  C   UNL     1      33.801 -11.012 -23.972  0.00  0.00    +0.139 A 
ATOM      5  C   UNL     1      33.781  -9.587 -23.639  0.00  0.00    +0.068 A 
ATOM      6  C   UNL     1      31.887 -11.365 -22.464  0.00  0.00    +0.345 A 
ATOM      7  C   UNL     1      32.822  -9.125 -22.743  0.00  0.00    +0.152 A 
ATOM      8  C   UNL     1      34.679  -8.654 -24.175  0.00  0.00    +0.006 C 
ATOM      9  C   UNL     1      32.734  -7.783 -22.372  0.00  0.00    +0.038 C 
ATOM     10  C   UNL     1      34.604  -7.304 -23.815  0.00  0.00    +0.000 C 
ATOM     11  C   UNL     1      33.633  -6.869 -22.913  0.00  0.00    +0.003 C 
ENDROOT
BRANCH   4  12
ATOM     12  O   UNL     1      34.787 -11.377 -24.864  0.00  0.00    -0.506 OA
ATOM     13  H   UNL     1      35.630 -11.638 -24.550  0.00  0.00    +0.292 HD
ENDBRANCH   4  12
BRANCH   3  14
ATOM     14  C   UNL     1      32.829 -13.340 -23.703  0.00  0.00    +0.061 C 
BRANCH  14  15
ATOM     15  C   UNL     1      33.235 -14.151 -22.481  0.00  0.00    -0.018 C 
ATOM     16  C   UNL     1      32.290 -14.931 -21.816  0.00  0.00    -0.004 C 
ATOM     17  C   UNL     1      34.553 -14.113 -22.027  0.00  0.00    -0.004 C 
ATOM     18  C   UNL     1      32.663 -15.675 -20.696  0.00  0.00    -0.000 C 
ATOM     19  C   UNL     1      34.927 -14.856 -20.907  0.00  0.00    -0.000 C 
ATOM     20  C   UNL     1      33.981 -15.637 -20.242  0.00  0.00    -0.000 C 
ENDBRANCH  14  15
BRANCH  14  21
ATOM     21  C   UNL     1      33.652 -13.695 -24.957  0.00  0.00    +0.074 C 
BRANCH  21  23
ATOM     22  O   UNL     1      32.410 -15.158 -26.434  0.00  0.00    -0.296 OA
ATOM     23  C   UNL     1      33.281 -15.036 -25.575  0.00  0.00    +0.152 C 
ATOM     24  C   UNL     1      34.014 -16.238 -25.039  0.00  0.00    +0.072 C 
ENDBRANCH  21  23
ENDBRANCH  14  21
ENDBRANCH   3  14
TORSDOF 5
ENDMDL
MODEL 5
REMARK VINA RESULT:      -8.2      8.996     13.176
REMARK  Name = 54688261
REMARK  5 active torsions:
REMARK  status: ('A' for Active; 'I' for Inactive)
REMARK    1  A    between atoms: C_3  and  C_14
REMARK    2  A    between atoms: C_4  and  O_12
REMARK    3  A    between atoms: C_14  and  C_15
REMARK    4  A    between atoms: C_14  and  C_21
REMARK    5  A    between atoms: C_21  and  C_23
REMARK                            x       y       z     vdW  Elec       q    Type
REMARK                         _______ _______ _______ _____ _____    ______ ____
ROOT
ATOM      1  O   UNL     1      32.248  -5.833 -21.374  0.00  0.00    -0.421 OA
ATOM      2  O   UNL     1      33.008  -7.691 -20.303  0.00  0.00    -0.245 OA
ATOM      3  C   UNL     1      32.255  -8.000 -22.541  0.00  0.00    +0.092 A 
ATOM      4  C   UNL     1      31.744  -7.415 -23.641  0.00  0.00    +0.139 A 
ATOM      5  C   UNL     1      31.451  -5.980 -23.664  0.00  0.00    +0.068 A 
ATOM      6  C   UNL     1      32.538  -7.190 -21.321  0.00  0.00    +0.345 A 
ATOM      7  C   UNL     1      31.712  -5.229 -22.523  0.00  0.00    +0.152 A 
ATOM      8  C   UNL     1      30.918  -5.317 -24.777  0.00  0.00    +0.006 C 
ATOM      9  C   UNL     1      31.462  -3.858 -22.461  0.00  0.00    +0.038 C 
ATOM     10  C   UNL     1      30.659  -3.943 -24.732  0.00  0.00    +0.000 C 
ATOM     11  C   UNL     1      30.932  -3.214 -23.575  0.00  0.00    +0.003 C 
ENDROOT
BRANCH   4  12
ATOM     12  O   UNL     1      31.456  -8.076 -24.817  0.00  0.00    -0.506 OA
ATOM     13  H   UNL     1      31.520  -9.010 -24.857  0.00  0.00    +0.292 HD
ENDBRANCH   4  12
BRANCH   3  14
ATOM     14  C   UNL     1      32.584  -9.461 -22.398  0.00  0.00    +0.061 C 
BRANCH  14  15
ATOM     15  C   UNL     1      33.453  -9.944 -23.550  0.00  0.00    -0.018 C 
ATOM     16  C   UNL     1      33.147 -11.139 -24.201  0.00  0.00    -0.004 C 
ATOM     17  C   UNL     1      34.554  -9.191 -23.956  0.00  0.00    -0.004 C 
ATOM     18  C   UNL     1      33.943 -11.583 -25.257  0.00  0.00    -0.000 C 
ATOM     19  C   UNL     1      35.351  -9.634 -25.012  0.00  0.00    -0.000 C 
ATOM     20  C   UNL     1      35.045 -10.830 -25.663  0.00  0.00    -0.000 C 
ENDBRANCH  14  15
BRANCH  14  21
ATOM     21  C   UNL     1      31.292 -10.285 -22.238  0.00  0.00    +0.074 C 
BRANCH  21  23
ATOM     22  O   UNL     1      31.570 -12.468 -21.227  0.00  0.00    -0.296 OA
ATOM     23  C   UNL     1      31.333 -11.271 -21.078  0.00  0.00    +0.152 C 
ATOM     24  C   UNL     1      31.015 -10.708 -19.717  0.00  0.00    +0.072 C 
ENDBRANCH  21  23
ENDBRANCH  14  21
ENDBRANCH   3  14
TORSDOF 5
ENDMDL
MODEL 6
REMARK VINA RESULT:      -8.1      4.556      7.251
REMARK  Name = 54688261
REMARK  5 active torsions:
REMARK  status: ('A' for Active; 'I' for Inactive)
REMARK    1  A    between atoms: C_3  and  C_14
REMARK    2  A    between atoms: C_4  and  O_12
REMARK    3  A    between atoms: C_14  and  C_15
REMARK    4  A    between atoms: C_14  and  C_21
REMARK    5  A    between atoms: C_21  and  C_23
REMARK                            x       y       z     vdW  Elec       q    Type
REMARK                         _______ _______ _______ _____ _____    ______ ____
ROOT
ATOM      1  O   UNL     1      33.468 -15.716 -25.616  0.00  0.00    -0.421 OA
ATOM      2  O   UNL     1      32.873 -13.585 -26.145  0.00  0.00    -0.245 OA
ATOM      3  C   UNL     1      34.028 -13.873 -24.082  0.00  0.00    +0.092 A 
ATOM      4  C   UNL     1      34.615 -14.745 -23.241  0.00  0.00    +0.139 A 
ATOM      5  C   UNL     1      34.658 -16.176 -23.548  0.00  0.00    +0.068 A 
ATOM      6  C   UNL     1      33.412 -14.354 -25.353  0.00  0.00    +0.345 A 
ATOM      7  C   UNL     1      34.079 -16.620 -24.733  0.00  0.00    +0.152 A 
ATOM      8  C   UNL     1      35.253 -17.130 -22.712  0.00  0.00    +0.006 C 
ATOM      9  C   UNL     1      34.077 -17.966 -25.101  0.00  0.00    +0.038 C 
ATOM     10  C   UNL     1      35.258 -18.484 -23.065  0.00  0.00    +0.000 C 
ATOM     11  C   UNL     1      34.671 -18.901 -24.259  0.00  0.00    +0.003 C 
ENDROOT
BRANCH   4  12
ATOM     12  O   UNL     1      35.216 -14.398 -22.049  0.00  0.00    -0.506 OA
ATOM     13  H   UNL     1      35.949 -14.889 -21.733  0.00  0.00    +0.292 HD
ENDBRANCH   4  12
BRANCH   3  14
ATOM     14  C   UNL     1      33.913 -12.388 -23.867  0.00  0.00    +0.061 C 
BRANCH  14  15
ATOM     15  C   UNL     1      32.803 -12.059 -22.881  0.00  0.00    -0.018 C 
ATOM     16  C   UNL     1      32.473 -12.966 -21.874  0.00  0.00    -0.004 C 
ATOM     17  C   UNL     1      32.114 -10.851 -22.984  0.00  0.00    -0.004 C 
ATOM     18  C   UNL     1      31.454 -12.665 -20.969  0.00  0.00    -0.000 C 
ATOM     19  C   UNL     1      31.095 -10.549 -22.080  0.00  0.00    -0.000 C 
ATOM     20  C   UNL     1      30.766 -11.456 -21.072  0.00  0.00    -0.000 C 
ENDBRANCH  14  15
BRANCH  14  21
ATOM     21  C   UNL     1      33.746 -11.666 -25.218  0.00  0.00    +0.074 C 
BRANCH  21  23
ATOM     22  O   UNL     1      35.537 -10.711 -26.540  0.00  0.00    -0.296 OA
ATOM     23  C   UNL     1      34.853 -10.664 -25.519  0.00  0.00    +0.152 C 
ATOM     24  C   UNL     1      35.107  -9.620 -24.463  0.00  0.00    +0.072 C 
ENDBRANCH  21  23
ENDBRANCH  14  21
ENDBRANCH   3  14
TORSDOF 5
ENDMDL
MODEL 7
REMARK VINA RESULT:      -8.0      4.190      9.384
REMARK  Name = 54688261
REMARK  5 active torsions:
REMARK  status: ('A' for Active; 'I' for Inactive)
REMARK    1  A    between atoms: C_3  and  C_14
REMARK    2  A    between atoms: C_4  and  O_12
REMARK    3  A    between atoms: C_14  and  C_15
REMARK    4  A    between atoms: C_14  and  C_21
REMARK    5  A    between atoms: C_21  and  C_23
REMARK                            x       y       z     vdW  Elec       q    Type
REMARK                         _______ _______ _______ _____ _____    ______ ____
ROOT
ATOM      1  O   UNL     1      33.654 -23.094 -17.090  0.00  0.00    -0.421 OA
ATOM      2  O   UNL     1      33.583 -24.064 -15.033  0.00  0.00    -0.245 OA
ATOM      3  C   UNL     1      35.646 -23.042 -15.644  0.00  0.00    +0.092 A 
ATOM      4  C   UNL     1      36.319 -22.359 -16.589  0.00  0.00    +0.139 A 
ATOM      5  C   UNL     1      35.683 -22.003 -17.858  0.00  0.00    +0.068 A 
ATOM      6  C   UNL     1      34.228 -23.445 -15.875  0.00  0.00    +0.345 A 
ATOM      7  C   UNL     1      34.363 -22.384 -18.072  0.00  0.00    +0.152 A 
ATOM      8  C   UNL     1      36.334 -21.296 -18.879  0.00  0.00    +0.006 C 
ATOM      9  C   UNL     1      33.683 -22.085 -19.253  0.00  0.00    +0.038 C 
ATOM     10  C   UNL     1      35.668 -20.989 -20.070  0.00  0.00    +0.000 C 
ATOM     11  C   UNL     1      34.343 -21.382 -20.257  0.00  0.00    +0.003 C 
ENDROOT
BRANCH   4  12
ATOM     12  O   UNL     1      37.627 -21.937 -16.465  0.00  0.00    -0.506 OA
ATOM     13  H   UNL     1      38.272 -22.226 -17.080  0.00  0.00    +0.292 HD
ENDBRANCH   4  12
BRANCH   3  14
ATOM     14  C   UNL     1      36.197 -23.472 -14.311  0.00  0.00    +0.061 C 
BRANCH  14  15
ATOM     15  C   UNL     1      37.081 -24.702 -14.452  0.00  0.00    -0.018 C 
ATOM     16  C   UNL     1      38.450 -24.609 -14.203  0.00  0.00    -0.004 C 
ATOM     17  C   UNL     1      36.522 -25.922 -14.831  0.00  0.00    -0.004 C 
ATOM     18  C   UNL     1      39.261 -25.737 -14.332  0.00  0.00    -0.000 C 
ATOM     19  C   UNL     1      37.332 -27.050 -14.961  0.00  0.00    -0.000 C 
ATOM     20  C   UNL     1      38.702 -26.957 -14.711  0.00  0.00    -0.000 C 
ENDBRANCH  14  15
BRANCH  14  21
ATOM     21  C   UNL     1      35.051 -23.672 -13.301  0.00  0.00    +0.074 C 
BRANCH  21  23
ATOM     22  O   UNL     1      35.003 -24.918 -11.224  0.00  0.00    -0.296 OA
ATOM     23  C   UNL     1      35.524 -24.032 -11.899  0.00  0.00    +0.152 C 
ATOM     24  C   UNL     1      36.655 -23.202 -11.348  0.00  0.00    +0.072 C 
ENDBRANCH  21  23
ENDBRANCH  14  21
ENDBRANCH   3  14
TORSDOF 5
ENDMDL
MODEL 8
REMARK VINA RESULT:      -8.0      5.109      8.250
REMARK  Name = 54688261
REMARK  5 active torsions:
REMARK  status: ('A' for Active; 'I' for Inactive)
REMARK    1  A    between atoms: C_3  and  C_14
REMARK    2  A    between atoms: C_4  and  O_12
REMARK    3  A    between atoms: C_14  and  C_15
REMARK    4  A    between atoms: C_14  and  C_21
REMARK    5  A    between atoms: C_21  and  C_23
REMARK                            x       y       z     vdW  Elec       q    Type
REMARK                         _______ _______ _______ _____ _____    ______ ____
ROOT
ATOM      1  O   UNL     1      32.241 -23.551 -17.199  0.00  0.00    -0.421 OA
ATOM      2  O   UNL     1      34.192 -23.466 -18.368  0.00  0.00    -0.245 OA
ATOM      3  C   UNL     1      34.383 -23.404 -15.995  0.00  0.00    +0.092 A 
ATOM      4  C   UNL     1      33.728 -23.422 -14.818  0.00  0.00    +0.139 A 
ATOM      5  C   UNL     1      32.267 -23.504 -14.771  0.00  0.00    +0.068 A 
ATOM      6  C   UNL     1      33.626 -23.475 -17.278  0.00  0.00    +0.345 A 
ATOM      7  C   UNL     1      31.564 -23.566 -15.969  0.00  0.00    +0.152 A 
ATOM      8  C   UNL     1      31.531 -23.524 -13.578  0.00  0.00    +0.006 C 
ATOM      9  C   UNL     1      30.172 -23.646 -16.013  0.00  0.00    +0.038 C 
ATOM     10  C   UNL     1      30.135 -23.602 -13.603  0.00  0.00    +0.000 C 
ATOM     11  C   UNL     1      29.456 -23.664 -14.820  0.00  0.00    +0.003 C 
ENDROOT
BRANCH   4  12
ATOM     12  O   UNL     1      34.339 -23.368 -13.583  0.00  0.00    -0.506 OA
ATOM     13  H   UNL     1      34.040 -23.921 -12.888  0.00  0.00    +0.292 HD
ENDBRANCH   4  12
BRANCH   3  14
ATOM     14  C   UNL     1      35.875 -23.310 -16.166  0.00  0.00    +0.061 C 
BRANCH  14  15
ATOM     15  C   UNL     1      36.593 -24.344 -15.311  0.00  0.00    -0.018 C 
ATOM     16  C   UNL     1      37.595 -23.944 -14.429  0.00  0.00    -0.004 C 
ATOM     17  C   UNL     1      36.248 -25.691 -15.411  0.00  0.00    -0.004 C 
ATOM     18  C   UNL     1      38.254 -24.892 -13.644  0.00  0.00    -0.000 C 
ATOM     19  C   UNL     1      36.906 -26.640 -14.627  0.00  0.00    -0.000 C 
ATOM     20  C   UNL     1      37.909 -26.239 -13.744  0.00  0.00    -0.000 C 
ENDBRANCH  14  15
BRANCH  14  21
ATOM     21  C   UNL     1      36.353 -21.871 -15.891  0.00  0.00    +0.074 C 
BRANCH  21  23
ATOM     22  O   UNL     1      37.864 -20.304 -16.955  0.00  0.00    -0.296 OA
ATOM     23  C   UNL     1      37.051 -21.219 -17.078  0.00  0.00    +0.152 C 
ATOM     24  C   UNL     1      36.656 -21.726 -18.440  0.00  0.00    +0.072 C 
ENDBRANCH  21  23
ENDBRANCH  14  21
ENDBRANCH   3  14
TORSDOF 5
ENDMDL
MODEL 9
REMARK VINA RESULT:      -8.0      3.965      8.672
REMARK  Name = 54688261
REMARK  5 active torsions:
REMARK  status: ('A' for Active; 'I' for Inactive)
REMARK    1  A    between atoms: C_3  and  C_14
REMARK    2  A    between atoms: C_4  and  O_12
REMARK    3  A    between atoms: C_14  and  C_15
REMARK    4  A    between atoms: C_14  and  C_21
REMARK    5  A    between atoms: C_21  and  C_23
REMARK                            x       y       z     vdW  Elec       q    Type
REMARK                         _______ _______ _______ _____ _____    ______ ____
ROOT
ATOM      1  O   UNL     1      37.038 -21.703 -17.050  0.00  0.00    -0.421 OA
ATOM      2  O   UNL     1      37.269 -22.495 -14.930  0.00  0.00    -0.245 OA
ATOM      3  C   UNL     1      35.201 -22.971 -16.010  0.00  0.00    +0.092 A 
ATOM      4  C   UNL     1      34.467 -22.836 -17.131  0.00  0.00    +0.139 A 
ATOM      5  C   UNL     1      34.989 -22.111 -18.291  0.00  0.00    +0.068 A 
ATOM      6  C   UNL     1      36.571 -22.385 -15.934  0.00  0.00    +0.345 A 
ATOM      7  C   UNL     1      36.266 -21.563 -18.215  0.00  0.00    +0.152 A 
ATOM      8  C   UNL     1      34.271 -21.935 -19.482  0.00  0.00    +0.006 C 
ATOM      9  C   UNL     1      36.837 -20.858 -19.274  0.00  0.00    +0.038 C 
ATOM     10  C   UNL     1      34.829 -21.230 -20.553  0.00  0.00    +0.000 C 
ATOM     11  C   UNL     1      36.112 -20.692 -20.449  0.00  0.00    +0.003 C 
ENDROOT
BRANCH   4  12
ATOM     12  O   UNL     1      33.197 -23.346 -17.300  0.00  0.00    -0.506 OA
ATOM     13  H   UNL     1      33.074 -24.159 -17.749  0.00  0.00    +0.292 HD
ENDBRANCH   4  12
BRANCH   3  14
ATOM     14  C   UNL     1      34.766 -23.682 -14.757  0.00  0.00    +0.061 C 
BRANCH  14  15
ATOM     15  C   UNL     1      35.702 -24.834 -14.426  0.00  0.00    -0.018 C 
ATOM     16  C   UNL     1      36.021 -25.777 -15.403  0.00  0.00    -0.004 C 
ATOM     17  C   UNL     1      36.241 -24.948 -13.145  0.00  0.00    -0.004 C 
ATOM     18  C   UNL     1      36.879 -26.834 -15.100  0.00  0.00    -0.000 C 
ATOM     19  C   UNL     1      37.100 -26.005 -12.841  0.00  0.00    -0.000 C 
ATOM     20  C   UNL     1      37.419 -26.948 -13.818  0.00  0.00    -0.000 C 
ENDBRANCH  14  15
BRANCH  14  21
ATOM     21  C   UNL     1      33.295 -24.123 -14.880  0.00  0.00    +0.074 C 
BRANCH  21  23
ATOM     22  O   UNL     1      32.514 -23.270 -12.751  0.00  0.00    -0.296 OA
ATOM     23  C   UNL     1      32.347 -23.356 -13.966  0.00  0.00    +0.152 C 
ATOM     24  C   UNL     1      31.144 -22.736 -14.628  0.00  0.00    +0.072 C 
ENDBRANCH  21  23
ENDBRANCH  14  21
ENDBRANCH   3  14
TORSDOF 5
ENDMDL
