MODEL 1
REMARK VINA RESULT:     -10.2      0.000      0.000
REMARK  Name = 3710
REMARK  10 active torsions:
REMARK  status: ('A' for Active; 'I' for Inactive)
REMARK    1  A    between atoms: N_1  and  C_19
REMARK    2  A    between atoms: C_2  and  C_26
REMARK    3  A    between atoms: C_9  and  O_11
REMARK    4  A    between atoms: O_11  and  C_12
REMARK    5  A    between atoms: C_12  and  C_13
REMARK    6  A    between atoms: C_13  and  C_14
REMARK    7  A    between atoms: C_14  and  C_16
REMARK    8  A    between atoms: C_16  and  O_17
REMARK    9  A    between atoms: C_19  and  C_20
REMARK   10  A    between atoms: C_26  and  C_29
REMARK                            x       y       z     vdW  Elec       q    Type
REMARK                         _______ _______ _______ _____ _____    ______ ____
ROOT
ATOM      1  N   UNL     1      34.848 -16.651 -23.042  0.00  0.00    -0.327 N 
ATOM      2  C   UNL     1      33.523 -15.377 -24.285  0.00  0.00    +0.000 A 
ATOM      3  C   UNL     1      34.247 -15.768 -22.173  0.00  0.00    +0.060 A 
ATOM      4  C   UNL     1      33.404 -14.953 -22.933  0.00  0.00    +0.016 A 
ATOM      5  C   UNL     1      34.417 -16.422 -24.321  0.00  0.00    +0.034 A 
ATOM      6  C   UNL     1      32.660 -13.951 -22.279  0.00  0.00    +0.038 C 
ATOM      7  C   UNL     1      34.383 -15.630 -20.786  0.00  0.00    +0.020 C 
ATOM      8  C   UNL     1      34.898 -17.224 -25.466  0.00  0.00    +0.050 C 
ATOM      9  C   UNL     1      32.785 -13.801 -20.893  0.00  0.00    +0.139 C 
ATOM     10  C   UNL     1      33.634 -14.629 -20.160  0.00  0.00    +0.038 C 
ENDROOT
BRANCH   9  11
ATOM     11  O   UNL     1      32.070 -12.834 -20.254  0.00  0.00    -0.475 OA
BRANCH  11  12
ATOM     12  C   UNL     1      31.490 -11.815 -21.066  0.00  0.00    +0.206 C 
BRANCH  12  13
ATOM     13  C   UNL     1      30.867 -10.739 -20.185  0.00  0.00    +0.059 C 
BRANCH  13  14
ATOM     14  C   UNL     1      31.922  -9.869 -19.500  0.00  0.00    +0.113 C 
BRANCH  14  16
ATOM     15  O   UNL     1      31.854  -8.410 -21.449  0.00  0.00    -0.250 OA
ATOM     16  C   UNL     1      32.255  -8.640 -20.317  0.00  0.00    +0.314 C 
BRANCH  16  17
ATOM     17  O   UNL     1      33.074  -7.798 -19.633  0.00  0.00    -0.480 OA
ATOM     18  H   UNL     1      33.961  -7.679 -19.912  0.00  0.00    +0.295 HD
ENDBRANCH  16  17
ENDBRANCH  14  16
ENDBRANCH  13  14
ENDBRANCH  12  13
ENDBRANCH  11  12
ENDBRANCH   9  11
BRANCH   1  19
ATOM     19  C   UNL     1      35.801 -17.671 -22.657  0.00  0.00    +0.132 C 
BRANCH  19  20
ATOM     20  C   UNL     1      35.159 -18.724 -21.794  0.00  0.00    +0.000 C 
ATOM     21  C   UNL     1      33.784 -18.910 -21.850  0.00  0.00    -0.002 C 
ATOM     22  C   UNL     1      35.949 -19.495 -20.953  0.00  0.00    -0.002 C 
ATOM     23  C   UNL     1      33.188 -19.885 -21.050  0.00  0.00    -0.000 C 
ATOM     24  C   UNL     1      35.354 -20.471 -20.153  0.00  0.00    -0.000 C 
ATOM     25  C   UNL     1      33.974 -20.665 -20.201  0.00  0.00    -0.000 C 
ENDBRANCH  19  20
ENDBRANCH   1  19
BRANCH   2  26
ATOM     26  C   UNL     1      32.812 -14.801 -25.446  0.00  0.00    +0.112 C 
BRANCH  26  29
ATOM     27  O   UNL     1      33.789 -12.595 -25.170  0.00  0.00    -0.275 OA
ATOM     28  N   UNL     1      33.512 -13.412 -27.300  0.00  0.00    -0.329 N 
ATOM     29  C   UNL     1      33.417 -13.488 -25.927  0.00  0.00    +0.224 C 
ATOM     30  H   UNL     1      33.888 -12.608 -27.724  0.00  0.00    +0.145 HD
ATOM     31  H   UNL     1      33.202 -14.163 -27.857  0.00  0.00    +0.145 HD
ENDBRANCH  26  29
ENDBRANCH   2  26
TORSDOF 10
ENDMDL
MODEL 2
REMARK VINA RESULT:     -10.0      8.746     12.993
REMARK  Name = 3710
REMARK  10 active torsions:
REMARK  status: ('A' for Active; 'I' for Inactive)
REMARK    1  A    between atoms: N_1  and  C_19
REMARK    2  A    between atoms: C_2  and  C_26
REMARK    3  A    between atoms: C_9  and  O_11
REMARK    4  A    between atoms: O_11  and  C_12
REMARK    5  A    between atoms: C_12  and  C_13
REMARK    6  A    between atoms: C_13  and  C_14
REMARK    7  A    between atoms: C_14  and  C_16
REMARK    8  A    between atoms: C_16  and  O_17
REMARK    9  A    between atoms: C_19  and  C_20
REMARK   10  A    between atoms: C_26  and  C_29
REMARK                            x       y       z     vdW  Elec       q    Type
REMARK                         _______ _______ _______ _____ _____    ______ ____
ROOT
ATOM      1  N   UNL     1      33.771 -23.337 -17.087  0.00  0.00    -0.327 N 
ATOM      2  C   UNL     1      32.999 -23.082 -15.022  0.00  0.00    +0.000 A 
ATOM      3  C   UNL     1      34.880 -23.261 -16.274  0.00  0.00    +0.060 A 
ATOM      4  C   UNL     1      34.420 -23.100 -14.965  0.00  0.00    +0.016 A 
ATOM      5  C   UNL     1      32.630 -23.229 -16.339  0.00  0.00    +0.034 A 
ATOM      6  C   UNL     1      35.362 -22.995 -13.923  0.00  0.00    +0.038 C 
ATOM      7  C   UNL     1      36.242 -23.322 -16.594  0.00  0.00    +0.020 C 
ATOM      8  C   UNL     1      31.285 -23.278 -16.951  0.00  0.00    +0.050 C 
ATOM      9  C   UNL     1      36.727 -23.054 -14.227  0.00  0.00    +0.139 C 
ATOM     10  C   UNL     1      37.158 -23.215 -15.543  0.00  0.00    +0.038 C 
ENDROOT
BRANCH   9  11
ATOM     11  O   UNL     1      37.645 -22.952 -13.225  0.00  0.00    -0.475 OA
BRANCH  11  12
ATOM     12  C   UNL     1      37.527 -23.874 -12.144  0.00  0.00    +0.206 C 
BRANCH  12  13
ATOM     13  C   UNL     1      38.186 -25.198 -12.513  0.00  0.00    +0.059 C 
BRANCH  13  14
ATOM     14  C   UNL     1      37.160 -26.285 -12.835  0.00  0.00    +0.113 C 
BRANCH  14  16
ATOM     15  O   UNL     1      38.284 -27.122 -14.826  0.00  0.00    -0.250 OA
ATOM     16  C   UNL     1      37.261 -26.747 -14.271  0.00  0.00    +0.314 C 
BRANCH  16  17
ATOM     17  O   UNL     1      36.055 -26.694 -14.895  0.00  0.00    -0.480 OA
ATOM     18  H   UNL     1      35.299 -27.065 -14.485  0.00  0.00    +0.295 HD
ENDBRANCH  16  17
ENDBRANCH  14  16
ENDBRANCH  13  14
ENDBRANCH  12  13
ENDBRANCH  11  12
ENDBRANCH   9  11
BRANCH   1  19
ATOM     19  C   UNL     1      33.810 -23.505 -18.525  0.00  0.00    +0.132 C 
BRANCH  19  20
ATOM     20  C   UNL     1      34.032 -22.191 -19.225  0.00  0.00    +0.000 C 
ATOM     21  C   UNL     1      35.325 -21.794 -19.542  0.00  0.00    -0.002 C 
ATOM     22  C   UNL     1      32.942 -21.394 -19.544  0.00  0.00    -0.002 C 
ATOM     23  C   UNL     1      35.531 -20.577 -20.190  0.00  0.00    -0.000 C 
ATOM     24  C   UNL     1      33.148 -20.176 -20.193  0.00  0.00    -0.000 C 
ATOM     25  C   UNL     1      34.443 -19.767 -20.515  0.00  0.00    -0.000 C 
ENDBRANCH  19  20
ENDBRANCH   1  19
BRANCH   2  26
ATOM     26  C   UNL     1      32.080 -22.932 -13.873  0.00  0.00    +0.112 C 
BRANCH  26  29
ATOM     27  O   UNL     1      30.515 -24.374 -12.704  0.00  0.00    -0.275 OA
ATOM     28  N   UNL     1      32.354 -25.329 -13.696  0.00  0.00    -0.329 N 
ATOM     29  C   UNL     1      31.551 -24.262 -13.353  0.00  0.00    +0.224 C 
ATOM     30  H   UNL     1      32.110 -26.240 -13.413  0.00  0.00    +0.145 HD
ATOM     31  H   UNL     1      33.172 -25.180 -14.224  0.00  0.00    +0.145 HD
ENDBRANCH  26  29
ENDBRANCH   2  26
TORSDOF 10
ENDMDL
MODEL 3
REMARK VINA RESULT:      -9.7      3.823      9.182
REMARK  Name = 3710
REMARK  10 active torsions:
REMARK  status: ('A' for Active; 'I' for Inactive)
REMARK    1  A    between atoms: N_1  and  C_19
REMARK    2  A    between atoms: C_2  and  C_26
REMARK    3  A    between atoms: C_9  and  O_11
REMARK    4  A    between atoms: O_11  and  C_12
REMARK    5  A    between atoms: C_12  and  C_13
REMARK    6  A    between atoms: C_13  and  C_14
REMARK    7  A    between atoms: C_14  and  C_16
REMARK    8  A    between atoms: C_16  and  O_17
REMARK    9  A    between atoms: C_19  and  C_20
REMARK   10  A    between atoms: C_26  and  C_29
REMARK                            x       y       z     vdW  Elec       q    Type
REMARK                         _______ _______ _______ _____ _____    ______ ____
ROOT
ATOM      1  N   UNL     1      33.545  -8.646 -22.797  0.00  0.00    -0.327 N 
ATOM      2  C   UNL     1      32.069 -10.095 -21.993  0.00  0.00    +0.000 A 
ATOM      3  C   UNL     1      33.702  -9.796 -23.537  0.00  0.00    +0.060 A 
ATOM      4  C   UNL     1      32.781 -10.727 -23.050  0.00  0.00    +0.016 A 
ATOM      5  C   UNL     1      32.561  -8.817 -21.861  0.00  0.00    +0.034 A 
ATOM      6  C   UNL     1      32.731 -12.004 -23.641  0.00  0.00    +0.038 C 
ATOM      7  C   UNL     1      34.579 -10.082 -24.591  0.00  0.00    +0.020 C 
ATOM      8  C   UNL     1      32.176  -7.741 -20.923  0.00  0.00    +0.050 C 
ATOM      9  C   UNL     1      33.602 -12.305 -24.696  0.00  0.00    +0.139 C 
ATOM     10  C   UNL     1      34.511 -11.356 -25.161  0.00  0.00    +0.038 C 
ENDROOT
BRANCH   9  11
ATOM     11  O   UNL     1      33.560 -13.539 -25.271  0.00  0.00    -0.475 OA
BRANCH  11  12
ATOM     12  C   UNL     1      33.296 -14.645 -24.412  0.00  0.00    +0.206 C 
BRANCH  12  13
ATOM     13  C   UNL     1      34.500 -14.910 -23.517  0.00  0.00    +0.059 C 
BRANCH  13  14
ATOM     14  C   UNL     1      34.234 -16.022 -22.502  0.00  0.00    +0.113 C 
BRANCH  14  16
ATOM     15  O   UNL     1      34.866 -15.157 -20.316  0.00  0.00    -0.250 OA
ATOM     16  C   UNL     1      33.996 -15.472 -21.114  0.00  0.00    +0.314 C 
BRANCH  16  17
ATOM     17  O   UNL     1      32.667 -15.367 -20.844  0.00  0.00    -0.480 OA
ATOM     18  H   UNL     1      32.299 -14.534 -20.623  0.00  0.00    +0.295 HD
ENDBRANCH  16  17
ENDBRANCH  14  16
ENDBRANCH  13  14
ENDBRANCH  12  13
ENDBRANCH  11  12
ENDBRANCH   9  11
BRANCH   1  19
ATOM     19  C   UNL     1      34.314  -7.433 -22.983  0.00  0.00    +0.132 C 
BRANCH  19  20
ATOM     20  C   UNL     1      33.768  -6.604 -24.115  0.00  0.00    +0.000 C 
ATOM     21  C   UNL     1      34.564  -6.354 -25.225  0.00  0.00    -0.002 C 
ATOM     22  C   UNL     1      32.477  -6.101 -24.034  0.00  0.00    -0.002 C 
ATOM     23  C   UNL     1      34.060  -5.586 -26.274  0.00  0.00    -0.000 C 
ATOM     24  C   UNL     1      31.972  -5.333 -25.083  0.00  0.00    -0.000 C 
ATOM     25  C   UNL     1      32.763  -5.075 -26.203  0.00  0.00    -0.000 C 
ENDBRANCH  19  20
ENDBRANCH   1  19
BRANCH   2  26
ATOM     26  C   UNL     1      30.992 -10.700 -21.181  0.00  0.00    +0.112 C 
BRANCH  26  29
ATOM     27  O   UNL     1      32.005 -12.613 -20.080  0.00  0.00    -0.275 OA
ATOM     28  N   UNL     1      31.388 -10.809 -18.797  0.00  0.00    -0.329 N 
ATOM     29  C   UNL     1      31.515 -11.490 -19.989  0.00  0.00    +0.224 C 
ATOM     30  H   UNL     1      31.693 -11.224 -17.958  0.00  0.00    +0.145 HD
ATOM     31  H   UNL     1      30.992  -9.908 -18.785  0.00  0.00    +0.145 HD
ENDBRANCH  26  29
ENDBRANCH   2  26
TORSDOF 10
ENDMDL
MODEL 4
REMARK VINA RESULT:      -9.6      3.934      9.495
REMARK  Name = 3710
REMARK  10 active torsions:
REMARK  status: ('A' for Active; 'I' for Inactive)
REMARK    1  A    between atoms: N_1  and  C_19
REMARK    2  A    between atoms: C_2  and  C_26
REMARK    3  A    between atoms: C_9  and  O_11
REMARK    4  A    between atoms: O_11  and  C_12
REMARK    5  A    between atoms: C_12  and  C_13
REMARK    6  A    between atoms: C_13  and  C_14
REMARK    7  A    between atoms: C_14  and  C_16
REMARK    8  A    between atoms: C_16  and  O_17
REMARK    9  A    between atoms: C_19  and  C_20
REMARK   10  A    between atoms: C_26  and  C_29
REMARK                            x       y       z     vdW  Elec       q    Type
REMARK                         _______ _______ _______ _____ _____    ______ ____
ROOT
ATOM      1  N   UNL     1      33.571  -8.684 -23.035  0.00  0.00    -0.327 N 
ATOM      2  C   UNL     1      32.199 -10.344 -22.499  0.00  0.00    +0.000 A 
ATOM      3  C   UNL     1      33.858  -9.709 -23.908  0.00  0.00    +0.060 A 
ATOM      4  C   UNL     1      33.005 -10.769 -23.592  0.00  0.00    +0.016 A 
ATOM      5  C   UNL     1      32.571  -9.059 -22.179  0.00  0.00    +0.034 A 
ATOM      6  C   UNL     1      33.092 -11.957 -24.344  0.00  0.00    +0.038 C 
ATOM      7  C   UNL     1      34.797  -9.779 -24.944  0.00  0.00    +0.020 C 
ATOM      8  C   UNL     1      32.056  -8.152 -21.130  0.00  0.00    +0.050 C 
ATOM      9  C   UNL     1      34.026 -12.041 -25.384  0.00  0.00    +0.139 C 
ATOM     10  C   UNL     1      34.864 -10.967 -25.677  0.00  0.00    +0.038 C 
ENDROOT
BRANCH   9  11
ATOM     11  O   UNL     1      34.116 -13.187 -26.115  0.00  0.00    -0.475 OA
BRANCH  11  12
ATOM     12  C   UNL     1      32.891 -13.808 -26.498  0.00  0.00    +0.206 C 
BRANCH  12  13
ATOM     13  C   UNL     1      32.933 -15.294 -26.163  0.00  0.00    +0.059 C 
BRANCH  13  14
ATOM     14  C   UNL     1      33.611 -15.566 -24.819  0.00  0.00    +0.113 C 
BRANCH  14  16
ATOM     15  O   UNL     1      34.864 -17.397 -25.822  0.00  0.00    -0.250 OA
ATOM     16  C   UNL     1      34.757 -16.542 -24.954  0.00  0.00    +0.314 C 
BRANCH  16  17
ATOM     17  O   UNL     1      35.680 -16.361 -23.972  0.00  0.00    -0.480 OA
ATOM     18  H   UNL     1      35.921 -15.495 -23.709  0.00  0.00    +0.295 HD
ENDBRANCH  16  17
ENDBRANCH  14  16
ENDBRANCH  13  14
ENDBRANCH  12  13
ENDBRANCH  11  12
ENDBRANCH   9  11
BRANCH   1  19
ATOM     19  C   UNL     1      34.236  -7.397 -23.024  0.00  0.00    +0.132 C 
BRANCH  19  20
ATOM     20  C   UNL     1      33.742  -6.514 -24.138  0.00  0.00    +0.000 C 
ATOM     21  C   UNL     1      32.484  -5.935 -24.045  0.00  0.00    -0.002 C 
ATOM     22  C   UNL     1      34.551  -6.291 -25.243  0.00  0.00    -0.002 C 
ATOM     23  C   UNL     1      32.025  -5.117 -25.077  0.00  0.00    -0.000 C 
ATOM     24  C   UNL     1      34.093  -5.473 -26.276  0.00  0.00    -0.000 C 
ATOM     25  C   UNL     1      32.830  -4.886 -26.193  0.00  0.00    -0.000 C 
ENDBRANCH  19  20
ENDBRANCH   1  19
BRANCH   2  26
ATOM     26  C   UNL     1      31.150 -11.139 -21.827  0.00  0.00    +0.112 C 
BRANCH  26  29
ATOM     27  O   UNL     1      32.226 -13.090 -20.861  0.00  0.00    -0.275 OA
ATOM     28  N   UNL     1      31.513 -11.421 -19.452  0.00  0.00    -0.329 N 
ATOM     29  C   UNL     1      31.687 -12.000 -20.691  0.00  0.00    +0.224 C 
ATOM     30  H   UNL     1      31.822 -11.889 -18.642  0.00  0.00    +0.145 HD
ATOM     31  H   UNL     1      31.079 -10.541 -19.376  0.00  0.00    +0.145 HD
ENDBRANCH  26  29
ENDBRANCH   2  26
TORSDOF 10
ENDMDL
MODEL 5
REMARK VINA RESULT:      -9.6      1.460      2.003
REMARK  Name = 3710
REMARK  10 active torsions:
REMARK  status: ('A' for Active; 'I' for Inactive)
REMARK    1  A    between atoms: N_1  and  C_19
REMARK    2  A    between atoms: C_2  and  C_26
REMARK    3  A    between atoms: C_9  and  O_11
REMARK    4  A    between atoms: O_11  and  C_12
REMARK    5  A    between atoms: C_12  and  C_13
REMARK    6  A    between atoms: C_13  and  C_14
REMARK    7  A    between atoms: C_14  and  C_16
REMARK    8  A    between atoms: C_16  and  O_17
REMARK    9  A    between atoms: C_19  and  C_20
REMARK   10  A    between atoms: C_26  and  C_29
REMARK                            x       y       z     vdW  Elec       q    Type
REMARK                         _______ _______ _______ _____ _____    ______ ____
ROOT
ATOM      1  N   UNL     1      34.637 -16.277 -22.750  0.00  0.00    -0.327 N 
ATOM      2  C   UNL     1      33.457 -15.300 -24.355  0.00  0.00    +0.000 A 
ATOM      3  C   UNL     1      33.912 -15.282 -22.135  0.00  0.00    +0.060 A 
ATOM      4  C   UNL     1      33.158 -14.649 -23.126  0.00  0.00    +0.016 A 
ATOM      5  C   UNL     1      34.369 -16.296 -24.092  0.00  0.00    +0.034 A 
ATOM      6  C   UNL     1      32.316 -13.581 -22.759  0.00  0.00    +0.038 C 
ATOM      7  C   UNL     1      33.865 -14.896 -20.789  0.00  0.00    +0.020 C 
ATOM      8  C   UNL     1      35.008 -17.266 -25.006  0.00  0.00    +0.050 C 
ATOM      9  C   UNL     1      32.259 -13.184 -21.418  0.00  0.00    +0.139 C 
ATOM     10  C   UNL     1      33.023 -13.833 -20.450  0.00  0.00    +0.038 C 
ENDROOT
BRANCH   9  11
ATOM     11  O   UNL     1      31.449 -12.150 -21.057  0.00  0.00    -0.475 OA
BRANCH  11  12
ATOM     12  C   UNL     1      31.166 -11.170 -22.053  0.00  0.00    +0.206 C 
BRANCH  12  13
ATOM     13  C   UNL     1      32.234 -10.084 -22.033  0.00  0.00    +0.059 C 
BRANCH  13  14
ATOM     14  C   UNL     1      32.521  -9.528 -23.429  0.00  0.00    +0.113 C 
BRANCH  14  16
ATOM     15  O   UNL     1      34.675  -8.480 -23.864  0.00  0.00    -0.250 OA
ATOM     16  C   UNL     1      34.003  -9.492 -23.726  0.00  0.00    +0.314 C 
BRANCH  16  17
ATOM     17  O   UNL     1      34.518 -10.745 -23.830  0.00  0.00    -0.480 OA
ATOM     18  H   UNL     1      33.946 -11.486 -23.854  0.00  0.00    +0.295 HD
ENDBRANCH  16  17
ENDBRANCH  14  16
ENDBRANCH  13  14
ENDBRANCH  12  13
ENDBRANCH  11  12
ENDBRANCH   9  11
BRANCH   1  19
ATOM     19  C   UNL     1      35.552 -17.173 -22.073  0.00  0.00    +0.132 C 
BRANCH  19  20
ATOM     20  C   UNL     1      34.826 -18.341 -21.461  0.00  0.00    +0.000 C 
ATOM     21  C   UNL     1      35.552 -19.426 -20.988  0.00  0.00    -0.002 C 
ATOM     22  C   UNL     1      33.441 -18.318 -21.378  0.00  0.00    -0.002 C 
ATOM     23  C   UNL     1      34.879 -20.508 -20.422  0.00  0.00    -0.000 C 
ATOM     24  C   UNL     1      32.767 -19.400 -20.812  0.00  0.00    -0.000 C 
ATOM     25  C   UNL     1      33.487 -20.496 -20.334  0.00  0.00    -0.000 C 
ENDBRANCH  19  20
ENDBRANCH   1  19
BRANCH   2  26
ATOM     26  C   UNL     1      32.890 -14.967 -25.679  0.00  0.00    +0.112 C 
BRANCH  26  29
ATOM     27  O   UNL     1      33.597 -12.651 -25.510  0.00  0.00    -0.275 OA
ATOM     28  N   UNL     1      33.551 -13.634 -27.586  0.00  0.00    -0.329 N 
ATOM     29  C   UNL     1      33.376 -13.629 -26.219  0.00  0.00    +0.224 C 
ATOM     30  H   UNL     1      33.862 -12.821 -28.046  0.00  0.00    +0.145 HD
ATOM     31  H   UNL     1      33.363 -14.450 -28.104  0.00  0.00    +0.145 HD
ENDBRANCH  26  29
ENDBRANCH   2  26
TORSDOF 10
ENDMDL
MODEL 6
REMARK VINA RESULT:      -9.5      3.008      8.258
REMARK  Name = 3710
REMARK  10 active torsions:
REMARK  status: ('A' for Active; 'I' for Inactive)
REMARK    1  A    between atoms: N_1  and  C_19
REMARK    2  A    between atoms: C_2  and  C_26
REMARK    3  A    between atoms: C_9  and  O_11
REMARK    4  A    between atoms: O_11  and  C_12
REMARK    5  A    between atoms: C_12  and  C_13
REMARK    6  A    between atoms: C_13  and  C_14
REMARK    7  A    between atoms: C_14  and  C_16
REMARK    8  A    between atoms: C_16  and  O_17
REMARK    9  A    between atoms: C_19  and  C_20
REMARK   10  A    between atoms: C_26  and  C_29
REMARK                            x       y       z     vdW  Elec       q    Type
REMARK                         _______ _______ _______ _____ _____    ______ ____
ROOT
ATOM      1  N   UNL     1      32.091 -12.126 -22.723  0.00  0.00    -0.327 N 
ATOM      2  C   UNL     1      32.694 -13.956 -21.624  0.00  0.00    +0.000 A 
ATOM      3  C   UNL     1      32.547 -13.007 -23.677  0.00  0.00    +0.060 A 
ATOM      4  C   UNL     1      32.934 -14.172 -23.009  0.00  0.00    +0.016 A 
ATOM      5  C   UNL     1      32.176 -12.690 -21.479  0.00  0.00    +0.034 A 
ATOM      6  C   UNL     1      33.444 -15.247 -23.762  0.00  0.00    +0.038 C 
ATOM      7  C   UNL     1      32.646 -12.866 -25.066  0.00  0.00    +0.020 C 
ATOM      8  C   UNL     1      31.753 -11.968 -20.260  0.00  0.00    +0.050 C 
ATOM      9  C   UNL     1      33.549 -15.120 -25.152  0.00  0.00    +0.139 C 
ATOM     10  C   UNL     1      33.156 -13.947 -25.792  0.00  0.00    +0.038 C 
ENDROOT
BRANCH   9  11
ATOM     11  O   UNL     1      34.043 -16.156 -25.886  0.00  0.00    -0.475 OA
BRANCH  11  12
ATOM     12  C   UNL     1      34.892 -17.082 -25.211  0.00  0.00    +0.206 C 
BRANCH  12  13
ATOM     13  C   UNL     1      34.205 -18.438 -25.106  0.00  0.00    +0.059 C 
BRANCH  13  14
ATOM     14  C   UNL     1      35.004 -19.428 -24.257  0.00  0.00    +0.113 C 
BRANCH  14  16
ATOM     15  O   UNL     1      34.040 -19.238 -22.029  0.00  0.00    -0.250 OA
ATOM     16  C   UNL     1      34.980 -19.059 -22.791  0.00  0.00    +0.314 C 
BRANCH  16  17
ATOM     17  O   UNL     1      36.151 -18.486 -22.405  0.00  0.00    -0.480 OA
ATOM     18  H   UNL     1      36.964 -18.814 -22.735  0.00  0.00    +0.295 HD
ENDBRANCH  16  17
ENDBRANCH  14  16
ENDBRANCH  13  14
ENDBRANCH  12  13
ENDBRANCH  11  12
ENDBRANCH   9  11
BRANCH   1  19
ATOM     19  C   UNL     1      31.595 -10.793 -22.999  0.00  0.00    +0.132 C 
BRANCH  19  20
ATOM     20  C   UNL     1      32.722  -9.806 -23.141  0.00  0.00    +0.000 C 
ATOM     21  C   UNL     1      33.753 -10.068 -24.034  0.00  0.00    -0.002 C 
ATOM     22  C   UNL     1      32.716  -8.647 -22.378  0.00  0.00    -0.002 C 
ATOM     23  C   UNL     1      34.798  -9.154 -24.165  0.00  0.00    -0.000 C 
ATOM     24  C   UNL     1      33.761  -7.732 -22.509  0.00  0.00    -0.000 C 
ATOM     25  C   UNL     1      34.802  -7.985 -23.403  0.00  0.00    -0.000 C 
ENDBRANCH  19  20
ENDBRANCH   1  19
BRANCH   2  26
ATOM     26  C   UNL     1      32.954 -14.919 -20.532  0.00  0.00    +0.112 C 
BRANCH  26  29
ATOM     27  O   UNL     1      35.309 -14.436 -20.197  0.00  0.00    -0.275 OA
ATOM     28  N   UNL     1      34.668 -16.625 -20.469  0.00  0.00    -0.329 N 
ATOM     29  C   UNL     1      34.428 -15.270 -20.383  0.00  0.00    +0.224 C 
ATOM     30  H   UNL     1      35.587 -16.969 -20.388  0.00  0.00    +0.145 HD
ATOM     31  H   UNL     1      33.920 -17.249 -20.614  0.00  0.00    +0.145 HD
ENDBRANCH  26  29
ENDBRANCH   2  26
TORSDOF 10
ENDMDL
MODEL 7
REMARK VINA RESULT:      -9.4      6.434     10.537
REMARK  Name = 3710
REMARK  10 active torsions:
REMARK  status: ('A' for Active; 'I' for Inactive)
REMARK    1  A    between atoms: N_1  and  C_19
REMARK    2  A    between atoms: C_2  and  C_26
REMARK    3  A    between atoms: C_9  and  O_11
REMARK    4  A    between atoms: O_11  and  C_12
REMARK    5  A    between atoms: C_12  and  C_13
REMARK    6  A    between atoms: C_13  and  C_14
REMARK    7  A    between atoms: C_14  and  C_16
REMARK    8  A    between atoms: C_16  and  O_17
REMARK    9  A    between atoms: C_19  and  C_20
REMARK   10  A    between atoms: C_26  and  C_29
REMARK                            x       y       z     vdW  Elec       q    Type
REMARK                         _______ _______ _______ _____ _____    ______ ____
ROOT
ATOM      1  N   UNL     1      35.085 -23.187 -15.064  0.00  0.00    -0.327 N 
ATOM      2  C   UNL     1      33.151 -23.495 -16.108  0.00  0.00    +0.000 A 
ATOM      3  C   UNL     1      35.269 -22.725 -16.348  0.00  0.00    +0.060 A 
ATOM      4  C   UNL     1      34.063 -22.908 -17.028  0.00  0.00    +0.016 A 
ATOM      5  C   UNL     1      33.807 -23.654 -14.910  0.00  0.00    +0.034 A 
ATOM      6  C   UNL     1      33.978 -22.513 -18.378  0.00  0.00    +0.038 C 
ATOM      7  C   UNL     1      36.400 -22.165 -16.954  0.00  0.00    +0.020 C 
ATOM      8  C   UNL     1      33.327 -24.212 -13.627  0.00  0.00    +0.050 C 
ATOM      9  C   UNL     1      35.101 -21.951 -18.997  0.00  0.00    +0.139 C 
ATOM     10  C   UNL     1      36.292 -21.781 -18.294  0.00  0.00    +0.038 C 
ENDROOT
BRANCH   9  11
ATOM     11  O   UNL     1      35.027 -21.568 -20.303  0.00  0.00    -0.475 OA
BRANCH  11  12
ATOM     12  C   UNL     1      35.494 -20.259 -20.620  0.00  0.00    +0.206 C 
BRANCH  12  13
ATOM     13  C   UNL     1      34.490 -19.551 -21.522  0.00  0.00    +0.059 C 
BRANCH  13  14
ATOM     14  C   UNL     1      35.172 -18.744 -22.627  0.00  0.00    +0.113 C 
BRANCH  14  16
ATOM     15  O   UNL     1      35.038 -16.796 -21.172  0.00  0.00    -0.250 OA
ATOM     16  C   UNL     1      35.274 -17.278 -22.271  0.00  0.00    +0.314 C 
BRANCH  16  17
ATOM     17  O   UNL     1      35.665 -16.535 -23.339  0.00  0.00    -0.480 OA
ATOM     18  H   UNL     1      35.163 -16.550 -24.130  0.00  0.00    +0.295 HD
ENDBRANCH  16  17
ENDBRANCH  14  16
ENDBRANCH  13  14
ENDBRANCH  12  13
ENDBRANCH  11  12
ENDBRANCH   9  11
BRANCH   1  19
ATOM     19  C   UNL     1      36.098 -23.180 -14.030  0.00  0.00    +0.132 C 
BRANCH  19  20
ATOM     20  C   UNL     1      36.991 -24.387 -14.128  0.00  0.00    +0.000 C 
ATOM     21  C   UNL     1      38.187 -24.413 -13.422  0.00  0.00    -0.002 C 
ATOM     22  C   UNL     1      36.608 -25.459 -14.922  0.00  0.00    -0.002 C 
ATOM     23  C   UNL     1      39.015 -25.531 -13.512  0.00  0.00    -0.000 C 
ATOM     24  C   UNL     1      37.436 -26.578 -15.013  0.00  0.00    -0.000 C 
ATOM     25  C   UNL     1      38.640 -26.614 -14.308  0.00  0.00    -0.000 C 
ENDBRANCH  19  20
ENDBRANCH   1  19
BRANCH   2  26
ATOM     26  C   UNL     1      31.747 -23.867 -16.386  0.00  0.00    +0.112 C 
BRANCH  26  29
ATOM     27  O   UNL     1      30.397 -22.000 -17.152  0.00  0.00    -0.275 OA
ATOM     28  N   UNL     1      30.361 -22.535 -14.918  0.00  0.00    -0.329 N 
ATOM     29  C   UNL     1      30.776 -22.706 -16.221  0.00  0.00    +0.224 C 
ATOM     30  H   UNL     1      29.732 -21.812 -14.692  0.00  0.00    +0.145 HD
ATOM     31  H   UNL     1      30.695 -23.135 -14.212  0.00  0.00    +0.145 HD
ENDBRANCH  26  29
ENDBRANCH   2  26
TORSDOF 10
ENDMDL
MODEL 8
REMARK VINA RESULT:      -9.1      2.502      4.302
REMARK  Name = 3710
REMARK  10 active torsions:
REMARK  status: ('A' for Active; 'I' for Inactive)
REMARK    1  A    between atoms: N_1  and  C_19
REMARK    2  A    between atoms: C_2  and  C_26
REMARK    3  A    between atoms: C_9  and  O_11
REMARK    4  A    between atoms: O_11  and  C_12
REMARK    5  A    between atoms: C_12  and  C_13
REMARK    6  A    between atoms: C_13  and  C_14
REMARK    7  A    between atoms: C_14  and  C_16
REMARK    8  A    between atoms: C_16  and  O_17
REMARK    9  A    between atoms: C_19  and  C_20
REMARK   10  A    between atoms: C_26  and  C_29
REMARK                            x       y       z     vdW  Elec       q    Type
REMARK                         _______ _______ _______ _____ _____    ______ ____
ROOT
ATOM      1  N   UNL     1      34.971 -17.495 -22.735  0.00  0.00    -0.327 N 
ATOM      2  C   UNL     1      34.419 -15.441 -22.105  0.00  0.00    +0.000 A 
ATOM      3  C   UNL     1      34.433 -16.890 -23.847  0.00  0.00    +0.060 A 
ATOM      4  C   UNL     1      34.076 -15.591 -23.477  0.00  0.00    +0.016 A 
ATOM      5  C   UNL     1      34.966 -16.627 -21.676  0.00  0.00    +0.034 A 
ATOM      6  C   UNL     1      33.496 -14.746 -24.443  0.00  0.00    +0.038 C 
ATOM      7  C   UNL     1      34.236 -17.386 -25.142  0.00  0.00    +0.020 C 
ATOM      8  C   UNL     1      35.488 -17.010 -20.347  0.00  0.00    +0.050 C 
ATOM      9  C   UNL     1      33.293 -15.228 -25.741  0.00  0.00    +0.139 C 
ATOM     10  C   UNL     1      33.658 -16.529 -26.083  0.00  0.00    +0.038 C 
ENDROOT
BRANCH   9  11
ATOM     11  O   UNL     1      32.731 -14.416 -26.680  0.00  0.00    -0.475 OA
BRANCH  11  12
ATOM     12  C   UNL     1      33.538 -13.355 -27.184  0.00  0.00    +0.206 C 
BRANCH  12  13
ATOM     13  C   UNL     1      33.239 -12.067 -26.426  0.00  0.00    +0.059 C 
BRANCH  13  14
ATOM     14  C   UNL     1      34.497 -11.449 -25.814  0.00  0.00    +0.113 C 
BRANCH  14  16
ATOM     15  O   UNL     1      33.340 -11.327 -23.675  0.00  0.00    -0.250 OA
ATOM     16  C   UNL     1      34.258 -10.970 -24.400  0.00  0.00    +0.314 C 
BRANCH  16  17
ATOM     17  O   UNL     1      35.201 -10.070 -24.016  0.00  0.00    -0.480 OA
ATOM     18  H   UNL     1      34.944  -9.268 -23.606  0.00  0.00    +0.295 HD
ENDBRANCH  16  17
ENDBRANCH  14  16
ENDBRANCH  13  14
ENDBRANCH  12  13
ENDBRANCH  11  12
ENDBRANCH   9  11
BRANCH   1  19
ATOM     19  C   UNL     1      35.467 -18.855 -22.692  0.00  0.00    +0.132 C 
BRANCH  19  20
ATOM     20  C   UNL     1      34.787 -19.655 -21.614  0.00  0.00    +0.000 C 
ATOM     21  C   UNL     1      33.405 -19.599 -21.489  0.00  0.00    -0.002 C 
ATOM     22  C   UNL     1      35.550 -20.438 -20.759  0.00  0.00    -0.002 C 
ATOM     23  C   UNL     1      32.775 -20.339 -20.489  0.00  0.00    -0.000 C 
ATOM     24  C   UNL     1      34.920 -21.179 -19.759  0.00  0.00    -0.000 C 
ATOM     25  C   UNL     1      33.532 -21.129 -19.623  0.00  0.00    -0.000 C 
ENDBRANCH  19  20
ENDBRANCH   1  19
BRANCH   2  26
ATOM     26  C   UNL     1      34.223 -14.227 -21.284  0.00  0.00    +0.112 C 
BRANCH  26  29
ATOM     27  O   UNL     1      32.307 -14.803 -19.908  0.00  0.00    -0.275 OA
ATOM     28  N   UNL     1      32.119 -13.035 -21.362  0.00  0.00    -0.329 N 
ATOM     29  C   UNL     1      32.798 -14.077 -20.768  0.00  0.00    +0.224 C 
ATOM     30  H   UNL     1      31.188 -12.844 -21.107  0.00  0.00    +0.145 HD
ATOM     31  H   UNL     1      32.566 -12.482 -22.044  0.00  0.00    +0.145 HD
ENDBRANCH  26  29
ENDBRANCH   2  26
TORSDOF 10
ENDMDL
MODEL 9
REMARK VINA RESULT:      -9.1      7.324     11.220
REMARK  Name = 3710
REMARK  10 active torsions:
REMARK  status: ('A' for Active; 'I' for Inactive)
REMARK    1  A    between atoms: N_1  and  C_19
REMARK    2  A    between atoms: C_2  and  C_26
REMARK    3  A    between atoms: C_9  and  O_11
REMARK    4  A    between atoms: O_11  and  C_12
REMARK    5  A    between atoms: C_12  and  C_13
REMARK    6  A    between atoms: C_13  and  C_14
REMARK    7  A    between atoms: C_14  and  C_16
REMARK    8  A    between atoms: C_16  and  O_17
REMARK    9  A    between atoms: C_19  and  C_20
REMARK   10  A    between atoms: C_26  and  C_29
REMARK                            x       y       z     vdW  Elec       q    Type
REMARK                         _______ _______ _______ _____ _____    ______ ____
ROOT
ATOM      1  N   UNL     1      35.011 -22.442 -18.396  0.00  0.00    -0.327 N 
ATOM      2  C   UNL     1      35.982 -22.387 -16.401  0.00  0.00    +0.000 A 
ATOM      3  C   UNL     1      34.041 -22.812 -17.492  0.00  0.00    +0.060 A 
ATOM      4  C   UNL     1      34.628 -22.785 -16.224  0.00  0.00    +0.016 A 
ATOM      5  C   UNL     1      36.188 -22.184 -17.746  0.00  0.00    +0.034 A 
ATOM      6  C   UNL     1      33.842 -23.126 -15.106  0.00  0.00    +0.038 C 
ATOM      7  C   UNL     1      32.702 -23.165 -17.696  0.00  0.00    +0.020 C 
ATOM      8  C   UNL     1      37.407 -21.763 -18.469  0.00  0.00    +0.050 C 
ATOM      9  C   UNL     1      32.502 -23.481 -15.295  0.00  0.00    +0.139 C 
ATOM     10  C   UNL     1      31.942 -23.500 -16.571  0.00  0.00    +0.038 C 
ENDROOT
BRANCH   9  11
ATOM     11  O   UNL     1      31.736 -23.813 -14.218  0.00  0.00    -0.475 OA
BRANCH  11  12
ATOM     12  C   UNL     1      30.660 -24.721 -14.444  0.00  0.00    +0.206 C 
BRANCH  12  13
ATOM     13  C   UNL     1      29.355 -23.950 -14.610  0.00  0.00    +0.059 C 
BRANCH  13  14
ATOM     14  C   UNL     1      28.589 -24.372 -15.865  0.00  0.00    +0.113 C 
BRANCH  14  16
ATOM     15  O   UNL     1      28.548 -22.025 -16.511  0.00  0.00    -0.250 OA
ATOM     16  C   UNL     1      28.235 -23.186 -16.733  0.00  0.00    +0.314 C 
BRANCH  16  17
ATOM     17  O   UNL     1      27.506 -23.564 -17.816  0.00  0.00    -0.480 OA
ATOM     18  H   UNL     1      26.634 -23.241 -17.930  0.00  0.00    +0.295 HD
ENDBRANCH  16  17
ENDBRANCH  14  16
ENDBRANCH  13  14
ENDBRANCH  12  13
ENDBRANCH  11  12
ENDBRANCH   9  11
BRANCH   1  19
ATOM     19  C   UNL     1      34.813 -22.344 -19.827  0.00  0.00    +0.132 C 
BRANCH  19  20
ATOM     20  C   UNL     1      34.425 -20.948 -20.233  0.00  0.00    +0.000 C 
ATOM     21  C   UNL     1      35.405 -20.060 -20.655  0.00  0.00    -0.002 C 
ATOM     22  C   UNL     1      33.091 -20.566 -20.180  0.00  0.00    -0.002 C 
ATOM     23  C   UNL     1      35.046 -18.766 -21.031  0.00  0.00    -0.000 C 
ATOM     24  C   UNL     1      32.731 -19.272 -20.556  0.00  0.00    -0.000 C 
ATOM     25  C   UNL     1      33.708 -18.371 -20.981  0.00  0.00    -0.000 C 
ENDBRANCH  19  20
ENDBRANCH   1  19
BRANCH   2  26
ATOM     26  C   UNL     1      36.990 -22.221 -15.332  0.00  0.00    +0.112 C 
BRANCH  26  29
ATOM     27  O   UNL     1      37.145 -24.124 -13.832  0.00  0.00    -0.275 OA
ATOM     28  N   UNL     1      38.574 -24.025 -15.628  0.00  0.00    -0.329 N 
ATOM     29  C   UNL     1      37.556 -23.544 -14.833  0.00  0.00    +0.224 C 
ATOM     30  H   UNL     1      39.017 -24.875 -15.401  0.00  0.00    +0.145 HD
ATOM     31  H   UNL     1      38.859 -23.519 -16.423  0.00  0.00    +0.145 HD
ENDBRANCH  26  29
ENDBRANCH   2  26
TORSDOF 10
ENDMDL
