MODEL 1
REMARK VINA RESULT:      -8.9      0.000      0.000
REMARK  Name = 5311454
REMARK  4 active torsions:
REMARK  status: ('A' for Active; 'I' for Inactive)
REMARK    1  A    between atoms: C_1  and  C_12
REMARK    2  A    between atoms: C_2  and  C_5
REMARK    3  A    between atoms: C_12  and  C_13
REMARK    4  A    between atoms: C_12  and  O_17
REMARK                            x       y       z     vdW  Elec       q    Type
REMARK                         _______ _______ _______ _____ _____    ______ ____
ROOT
ATOM      1  C   UNL     1      35.006 -17.468 -21.478  0.00  0.00    +0.003 C 
ATOM      2  C   UNL     1      34.480 -18.685 -21.688  0.00  0.00    -0.002 C 
ENDROOT
BRANCH   2   5
ATOM      3  O   UNL     1      32.603 -22.125 -18.740  0.00  0.00    -0.435 OA
ATOM      4  O   UNL     1      34.781 -23.007 -18.205  0.00  0.00    -0.435 OA
ATOM      5  C   UNL     1      34.596 -19.828 -20.770  0.00  0.00    +0.003 C 
ATOM      6  C   UNL     1      33.443 -20.380 -20.227  0.00  0.00    +0.040 C 
ATOM      7  C   UNL     1      33.603 -21.451 -19.371  0.00  0.00    +0.176 C 
ATOM      8  C   UNL     1      35.866 -20.331 -20.468  0.00  0.00    +0.003 C 
ATOM      9  C   UNL     1      34.847 -21.955 -19.066  0.00  0.00    +0.176 C 
ATOM     10  C   UNL     1      36.000 -21.416 -19.599  0.00  0.00    +0.040 C 
ATOM     11  C   UNL     1      33.357 -23.110 -18.004  0.00  0.00    +0.429 C 
ENDBRANCH   2   5
BRANCH   1  12
ATOM     12  C   UNL     1      34.855 -16.321 -22.446  0.00  0.00    +0.132 C 
BRANCH  12  13
ATOM     13  C   UNL     1      34.064 -15.095 -21.890  0.00  0.00    +0.029 C 
ATOM     14  C   UNL     1      34.723 -14.605 -20.582  0.00  0.00    +0.003 C 
ATOM     15  C   UNL     1      34.093 -13.933 -22.902  0.00  0.00    +0.003 C 
ATOM     16  C   UNL     1      32.597 -15.449 -21.577  0.00  0.00    +0.003 C 
ENDBRANCH  12  13
BRANCH  12  17
ATOM     17  O   UNL     1      34.205 -16.852 -23.604  0.00  0.00    -0.380 OA
ATOM     18  H   UNL     1      33.890 -16.122 -24.159  0.00  0.00    +0.211 HD
ENDBRANCH  12  17
ENDBRANCH   1  12
TORSDOF 4
ENDMDL
MODEL 2
REMARK VINA RESULT:      -8.9      0.025      1.052
REMARK  Name = 5311454
REMARK  4 active torsions:
REMARK  status: ('A' for Active; 'I' for Inactive)
REMARK    1  A    between atoms: C_1  and  C_12
REMARK    2  A    between atoms: C_2  and  C_5
REMARK    3  A    between atoms: C_12  and  C_13
REMARK    4  A    between atoms: C_12  and  O_17
REMARK                            x       y       z     vdW  Elec       q    Type
REMARK                         _______ _______ _______ _____ _____    ______ ____
ROOT
ATOM      1  C   UNL     1      35.018 -17.461 -21.488  0.00  0.00    +0.003 C 
ATOM      2  C   UNL     1      34.491 -18.679 -21.693  0.00  0.00    -0.002 C 
ENDROOT
BRANCH   2   5
ATOM      3  O   UNL     1      32.613 -22.115 -18.742  0.00  0.00    -0.435 OA
ATOM      4  O   UNL     1      34.792 -22.989 -18.195  0.00  0.00    -0.435 OA
ATOM      5  C   UNL     1      34.607 -19.819 -20.771  0.00  0.00    +0.003 C 
ATOM      6  C   UNL     1      33.454 -20.373 -20.231  0.00  0.00    +0.040 C 
ATOM      7  C   UNL     1      33.614 -21.440 -19.371  0.00  0.00    +0.176 C 
ATOM      8  C   UNL     1      35.877 -20.316 -20.462  0.00  0.00    +0.003 C 
ATOM      9  C   UNL     1      34.858 -21.939 -19.059  0.00  0.00    +0.176 C 
ATOM     10  C   UNL     1      36.011 -21.398 -19.589  0.00  0.00    +0.040 C 
ATOM     11  C   UNL     1      33.367 -23.095 -17.999  0.00  0.00    +0.429 C 
ENDBRANCH   2   5
BRANCH   1  12
ATOM     12  C   UNL     1      34.867 -16.318 -22.460  0.00  0.00    +0.132 C 
BRANCH  12  13
ATOM     13  C   UNL     1      34.105 -15.076 -21.897  0.00  0.00    +0.029 C 
ATOM     14  C   UNL     1      32.637 -15.457 -21.608  0.00  0.00    +0.003 C 
ATOM     15  C   UNL     1      34.745 -14.607 -20.575  0.00  0.00    +0.003 C 
ATOM     16  C   UNL     1      34.101 -13.901 -22.896  0.00  0.00    +0.003 C 
ENDBRANCH  12  13
BRANCH  12  17
ATOM     17  O   UNL     1      34.187 -16.845 -23.602  0.00  0.00    -0.380 OA
ATOM     18  H   UNL     1      34.219 -16.197 -24.323  0.00  0.00    +0.211 HD
ENDBRANCH  12  17
ENDBRANCH   1  12
TORSDOF 4
ENDMDL
MODEL 3
REMARK VINA RESULT:      -8.2      8.036      9.947
REMARK  Name = 5311454
REMARK  4 active torsions:
REMARK  status: ('A' for Active; 'I' for Inactive)
REMARK    1  A    between atoms: C_1  and  C_12
REMARK    2  A    between atoms: C_2  and  C_5
REMARK    3  A    between atoms: C_12  and  C_13
REMARK    4  A    between atoms: C_12  and  O_17
REMARK                            x       y       z     vdW  Elec       q    Type
REMARK                         _______ _______ _______ _____ _____    ______ ____
ROOT
ATOM      1  C   UNL     1      33.584 -24.498 -13.677  0.00  0.00    +0.003 C 
ATOM      2  C   UNL     1      32.636 -23.566 -13.868  0.00  0.00    -0.002 C 
ENDROOT
BRANCH   2   5
ATOM      3  O   UNL     1      29.123 -22.244 -17.023  0.00  0.00    -0.435 OA
ATOM      4  O   UNL     1      27.861 -24.259 -16.628  0.00  0.00    -0.435 OA
ATOM      5  C   UNL     1      31.368 -23.782 -14.582  0.00  0.00    +0.003 C 
ATOM      6  C   UNL     1      30.921 -22.816 -15.474  0.00  0.00    +0.040 C 
ATOM      7  C   UNL     1      29.726 -23.063 -16.119  0.00  0.00    +0.176 C 
ATOM      8  C   UNL     1      30.645 -24.955 -14.343  0.00  0.00    +0.003 C 
ATOM      9  C   UNL     1      29.006 -24.214 -15.893  0.00  0.00    +0.176 C 
ATOM     10  C   UNL     1      29.439 -25.181 -15.010  0.00  0.00    +0.040 C 
ATOM     11  C   UNL     1      27.942 -23.009 -17.342  0.00  0.00    +0.429 C 
ENDBRANCH   2   5
BRANCH   1  12
ATOM     12  C   UNL     1      34.868 -24.233 -12.932  0.00  0.00    +0.132 C 
BRANCH  12  13
ATOM     13  C   UNL     1      36.167 -24.623 -13.707  0.00  0.00    +0.029 C 
ATOM     14  C   UNL     1      35.789 -25.338 -15.022  0.00  0.00    +0.003 C 
ATOM     15  C   UNL     1      36.978 -23.363 -14.066  0.00  0.00    +0.003 C 
ATOM     16  C   UNL     1      37.060 -25.578 -12.890  0.00  0.00    +0.003 C 
ENDBRANCH  12  13
BRANCH  12  17
ATOM     17  O   UNL     1      34.781 -24.961 -11.704  0.00  0.00    -0.380 OA
ATOM     18  H   UNL     1      33.989 -25.521 -11.717  0.00  0.00    +0.211 HD
ENDBRANCH  12  17
ENDBRANCH   1  12
TORSDOF 4
ENDMDL
MODEL 4
REMARK VINA RESULT:      -8.2      2.706      7.451
REMARK  Name = 5311454
REMARK  4 active torsions:
REMARK  status: ('A' for Active; 'I' for Inactive)
REMARK    1  A    between atoms: C_1  and  C_12
REMARK    2  A    between atoms: C_2  and  C_5
REMARK    3  A    between atoms: C_12  and  C_13
REMARK    4  A    between atoms: C_12  and  O_17
REMARK                            x       y       z     vdW  Elec       q    Type
REMARK                         _______ _______ _______ _____ _____    ______ ____
ROOT
ATOM      1  C   UNL     1      32.599 -22.595 -17.503  0.00  0.00    +0.003 C 
ATOM      2  C   UNL     1      33.623 -22.568 -18.371  0.00  0.00    -0.002 C 
ENDROOT
BRANCH   2   5
ATOM      3  O   UNL     1      36.608 -19.587 -20.870  0.00  0.00    -0.435 OA
ATOM      4  O   UNL     1      34.767 -18.502 -21.984  0.00  0.00    -0.435 OA
ATOM      5  C   UNL     1      33.890 -21.488 -19.333  0.00  0.00    +0.003 C 
ATOM      6  C   UNL     1      35.203 -21.114 -19.583  0.00  0.00    +0.040 C 
ATOM      7  C   UNL     1      35.403 -20.096 -20.493  0.00  0.00    +0.176 C 
ATOM      8  C   UNL     1      32.813 -20.866 -19.973  0.00  0.00    +0.003 C 
ATOM      9  C   UNL     1      34.352 -19.477 -21.129  0.00  0.00    +0.176 C 
ATOM     10  C   UNL     1      33.043 -19.839 -20.891  0.00  0.00    +0.040 C 
ATOM     11  C   UNL     1      36.197 -18.578 -21.815  0.00  0.00    +0.429 C 
ENDBRANCH   2   5
BRANCH   1  12
ATOM     12  C   UNL     1      32.368 -23.722 -16.528  0.00  0.00    +0.132 C 
BRANCH  12  13
ATOM     13  C   UNL     1      31.094 -23.568 -15.639  0.00  0.00    +0.029 C 
ATOM     14  C   UNL     1      31.434 -22.730 -14.387  0.00  0.00    +0.003 C 
ATOM     15  C   UNL     1      29.982 -22.835 -16.415  0.00  0.00    +0.003 C 
ATOM     16  C   UNL     1      30.555 -24.932 -15.162  0.00  0.00    +0.003 C 
ENDBRANCH  12  13
BRANCH  12  17
ATOM     17  O   UNL     1      33.540 -23.798 -15.712  0.00  0.00    -0.380 OA
ATOM     18  H   UNL     1      33.413 -24.472 -15.026  0.00  0.00    +0.211 HD
ENDBRANCH  12  17
ENDBRANCH   1  12
TORSDOF 4
ENDMDL
MODEL 5
REMARK VINA RESULT:      -8.0      2.773      7.445
REMARK  Name = 5311454
REMARK  4 active torsions:
REMARK  status: ('A' for Active; 'I' for Inactive)
REMARK    1  A    between atoms: C_1  and  C_12
REMARK    2  A    between atoms: C_2  and  C_5
REMARK    3  A    between atoms: C_12  and  C_13
REMARK    4  A    between atoms: C_12  and  O_17
REMARK                            x       y       z     vdW  Elec       q    Type
REMARK                         _______ _______ _______ _____ _____    ______ ____
ROOT
ATOM      1  C   UNL     1      32.596 -22.924 -17.201  0.00  0.00    +0.003 C 
ATOM      2  C   UNL     1      33.829 -22.958 -17.731  0.00  0.00    -0.002 C 
ENDROOT
BRANCH   2   5
ATOM      3  O   UNL     1      33.270 -19.658 -21.313  0.00  0.00    -0.435 OA
ATOM      4  O   UNL     1      35.649 -19.370 -21.566  0.00  0.00    -0.435 OA
ATOM      5  C   UNL     1      34.345 -22.017 -18.736  0.00  0.00    +0.003 C 
ATOM      6  C   UNL     1      33.447 -21.308 -19.523  0.00  0.00    +0.040 C 
ATOM      7  C   UNL     1      33.979 -20.437 -20.452  0.00  0.00    +0.176 C 
ATOM      8  C   UNL     1      35.728 -21.860 -18.873  0.00  0.00    +0.003 C 
ATOM      9  C   UNL     1      35.338 -20.273 -20.596  0.00  0.00    +0.176 C 
ATOM     10  C   UNL     1      36.240 -20.970 -19.821  0.00  0.00    +0.040 C 
ATOM     11  C   UNL     1      34.334 -18.984 -22.016  0.00  0.00    +0.429 C 
ENDBRANCH   2   5
BRANCH   1  12
ATOM     12  C   UNL     1      32.111 -23.908 -16.165  0.00  0.00    +0.132 C 
BRANCH  12  13
ATOM     13  C   UNL     1      30.714 -23.577 -15.551  0.00  0.00    +0.029 C 
ATOM     14  C   UNL     1      29.981 -24.889 -15.197  0.00  0.00    +0.003 C 
ATOM     15  C   UNL     1      30.877 -22.757 -14.255  0.00  0.00    +0.003 C 
ATOM     16  C   UNL     1      29.825 -22.788 -16.533  0.00  0.00    +0.003 C 
ENDBRANCH  12  13
BRANCH  12  17
ATOM     17  O   UNL     1      33.110 -23.944 -15.143  0.00  0.00    -0.380 OA
ATOM     18  H   UNL     1      32.771 -24.434 -14.378  0.00  0.00    +0.211 HD
ENDBRANCH  12  17
ENDBRANCH   1  12
TORSDOF 4
ENDMDL
MODEL 6
REMARK VINA RESULT:      -7.8      7.190      9.448
REMARK  Name = 5311454
REMARK  4 active torsions:
REMARK  status: ('A' for Active; 'I' for Inactive)
REMARK    1  A    between atoms: C_1  and  C_12
REMARK    2  A    between atoms: C_2  and  C_5
REMARK    3  A    between atoms: C_12  and  C_13
REMARK    4  A    between atoms: C_12  and  O_17
REMARK                            x       y       z     vdW  Elec       q    Type
REMARK                         _______ _______ _______ _____ _____    ______ ____
ROOT
ATOM      1  C   UNL     1      35.324 -24.727 -14.770  0.00  0.00    +0.003 C 
ATOM      2  C   UNL     1      34.623 -23.839 -15.491  0.00  0.00    -0.002 C 
ENDROOT
BRANCH   2   5
ATOM      3  O   UNL     1      30.195 -22.578 -17.178  0.00  0.00    -0.435 OA
ATOM      4  O   UNL     1      29.198 -22.735 -14.990  0.00  0.00    -0.435 OA
ATOM      5  C   UNL     1      33.190 -23.553 -15.322  0.00  0.00    +0.003 C 
ATOM      6  C   UNL     1      32.435 -23.199 -16.433  0.00  0.00    +0.040 C 
ATOM      7  C   UNL     1      31.095 -22.940 -16.225  0.00  0.00    +0.176 C 
ATOM      8  C   UNL     1      32.624 -23.647 -14.047  0.00  0.00    +0.003 C 
ATOM      9  C   UNL     1      30.527 -23.030 -14.975  0.00  0.00    +0.176 C 
ATOM     10  C   UNL     1      31.265 -23.382 -13.864  0.00  0.00    +0.040 C 
ATOM     11  C   UNL     1      28.995 -22.451 -16.389  0.00  0.00    +0.429 C 
ENDBRANCH   2   5
BRANCH   1  12
ATOM     12  C   UNL     1      36.797 -24.982 -14.973  0.00  0.00    +0.132 C 
BRANCH  12  13
ATOM     13  C   UNL     1      37.641 -25.026 -13.660  0.00  0.00    +0.029 C 
ATOM     14  C   UNL     1      37.168 -26.203 -12.780  0.00  0.00    +0.003 C 
ATOM     15  C   UNL     1      39.132 -25.245 -13.986  0.00  0.00    +0.003 C 
ATOM     16  C   UNL     1      37.495 -23.731 -12.837  0.00  0.00    +0.003 C 
ENDBRANCH  12  13
BRANCH  12  17
ATOM     17  O   UNL     1      37.271 -23.947 -15.838  0.00  0.00    -0.380 OA
ATOM     18  H   UNL     1      37.726 -23.271 -15.312  0.00  0.00    +0.211 HD
ENDBRANCH  12  17
ENDBRANCH   1  12
TORSDOF 4
ENDMDL
MODEL 7
REMARK VINA RESULT:      -7.8      6.763      9.406
REMARK  Name = 5311454
REMARK  4 active torsions:
REMARK  status: ('A' for Active; 'I' for Inactive)
REMARK    1  A    between atoms: C_1  and  C_12
REMARK    2  A    between atoms: C_2  and  C_5
REMARK    3  A    between atoms: C_12  and  C_13
REMARK    4  A    between atoms: C_12  and  O_17
REMARK                            x       y       z     vdW  Elec       q    Type
REMARK                         _______ _______ _______ _____ _____    ______ ____
ROOT
ATOM      1  C   UNL     1      36.324 -23.880 -15.244  0.00  0.00    +0.003 C 
ATOM      2  C   UNL     1      35.197 -23.527 -14.606  0.00  0.00    -0.002 C 
ENDROOT
BRANCH   2   5
ATOM      3  O   UNL     1      30.324 -22.993 -14.497  0.00  0.00    -0.435 OA
ATOM      4  O   UNL     1      30.181 -22.819 -16.896  0.00  0.00    -0.435 OA
ATOM      5  C   UNL     1      33.885 -23.339 -15.245  0.00  0.00    +0.003 C 
ATOM      6  C   UNL     1      32.750 -23.264 -14.450  0.00  0.00    +0.040 C 
ATOM      7  C   UNL     1      31.542 -23.088 -15.095  0.00  0.00    +0.176 C 
ATOM      8  C   UNL     1      33.816 -23.240 -16.638  0.00  0.00    +0.003 C 
ATOM      9  C   UNL     1      31.462 -22.988 -16.465  0.00  0.00    +0.176 C 
ATOM     10  C   UNL     1      32.582 -23.061 -17.267  0.00  0.00    +0.040 C 
ATOM     11  C   UNL     1      29.467 -22.822 -15.644  0.00  0.00    +0.429 C 
ENDBRANCH   2   5
BRANCH   1  12
ATOM     12  C   UNL     1      37.648 -24.068 -14.545  0.00  0.00    +0.132 C 
BRANCH  12  13
ATOM     13  C   UNL     1      37.993 -25.548 -14.184  0.00  0.00    +0.029 C 
ATOM     14  C   UNL     1      39.488 -25.814 -14.467  0.00  0.00    +0.003 C 
ATOM     15  C   UNL     1      37.738 -25.810 -12.686  0.00  0.00    +0.003 C 
ATOM     16  C   UNL     1      37.169 -26.551 -15.015  0.00  0.00    +0.003 C 
ENDBRANCH  12  13
BRANCH  12  17
ATOM     17  O   UNL     1      37.599 -23.264 -13.364  0.00  0.00    -0.380 OA
ATOM     18  H   UNL     1      36.795 -23.473 -12.864  0.00  0.00    +0.211 HD
ENDBRANCH  12  17
ENDBRANCH   1  12
TORSDOF 4
ENDMDL
MODEL 8
REMARK VINA RESULT:      -7.8      2.508      3.940
REMARK  Name = 5311454
REMARK  4 active torsions:
REMARK  status: ('A' for Active; 'I' for Inactive)
REMARK    1  A    between atoms: C_1  and  C_12
REMARK    2  A    between atoms: C_2  and  C_5
REMARK    3  A    between atoms: C_12  and  C_13
REMARK    4  A    between atoms: C_12  and  O_17
REMARK                            x       y       z     vdW  Elec       q    Type
REMARK                         _______ _______ _______ _____ _____    ______ ____
ROOT
ATOM      1  C   UNL     1      35.047 -20.549 -20.072  0.00  0.00    +0.003 C 
ATOM      2  C   UNL     1      34.648 -21.630 -19.383  0.00  0.00    -0.002 C 
ENDROOT
BRANCH   2   5
ATOM      3  O   UNL     1      34.514 -24.038 -15.114  0.00  0.00    -0.435 OA
ATOM      4  O   UNL     1      36.803 -23.482 -14.605  0.00  0.00    -0.435 OA
ATOM      5  C   UNL     1      35.250 -22.104 -18.127  0.00  0.00    +0.003 C 
ATOM      6  C   UNL     1      34.485 -22.867 -17.256  0.00  0.00    +0.040 C 
ATOM      7  C   UNL     1      35.093 -23.288 -16.090  0.00  0.00    +0.176 C 
ATOM      8  C   UNL     1      36.579 -21.774 -17.844  0.00  0.00    +0.003 C 
ATOM      9  C   UNL     1      36.400 -22.970 -15.801  0.00  0.00    +0.176 C 
ATOM     10  C   UNL     1      37.171 -22.214 -16.658  0.00  0.00    +0.040 C 
ATOM     11  C   UNL     1      35.603 -24.158 -14.177  0.00  0.00    +0.429 C 
ENDBRANCH   2   5
BRANCH   1  12
ATOM     12  C   UNL     1      34.394 -20.096 -21.354  0.00  0.00    +0.132 C 
BRANCH  12  13
ATOM     13  C   UNL     1      35.003 -18.799 -21.976  0.00  0.00    +0.029 C 
ATOM     14  C   UNL     1      36.484 -18.671 -21.558  0.00  0.00    +0.003 C 
ATOM     15  C   UNL     1      34.946 -18.863 -23.515  0.00  0.00    +0.003 C 
ATOM     16  C   UNL     1      34.266 -17.531 -21.501  0.00  0.00    +0.003 C 
ENDBRANCH  12  13
BRANCH  12  17
ATOM     17  O   UNL     1      33.009 -19.905 -21.057  0.00  0.00    -0.380 OA
ATOM     18  H   UNL     1      32.816 -18.955 -21.017  0.00  0.00    +0.211 HD
ENDBRANCH  12  17
ENDBRANCH   1  12
TORSDOF 4
ENDMDL
MODEL 9
REMARK VINA RESULT:      -7.7      7.896      9.631
REMARK  Name = 5311454
REMARK  4 active torsions:
REMARK  status: ('A' for Active; 'I' for Inactive)
REMARK    1  A    between atoms: C_1  and  C_12
REMARK    2  A    between atoms: C_2  and  C_5
REMARK    3  A    between atoms: C_12  and  C_13
REMARK    4  A    between atoms: C_12  and  O_17
REMARK                            x       y       z     vdW  Elec       q    Type
REMARK                         _______ _______ _______ _____ _____    ______ ____
ROOT
ATOM      1  C   UNL     1      33.284 -24.714 -14.086  0.00  0.00    +0.003 C 
ATOM      2  C   UNL     1      34.485 -24.190 -13.794  0.00  0.00    -0.002 C 
ENDROOT
BRANCH   2   5
ATOM      3  O   UNL     1      39.350 -24.598 -13.336  0.00  0.00    -0.435 OA
ATOM      4  O   UNL     1      39.440 -26.486 -14.829  0.00  0.00    -0.435 OA
ATOM      5  C   UNL     1      35.780 -24.822 -14.090  0.00  0.00    +0.003 C 
ATOM      6  C   UNL     1      36.930 -24.316 -13.500  0.00  0.00    +0.040 C 
ATOM      7  C   UNL     1      38.121 -24.942 -13.808  0.00  0.00    +0.176 C 
ATOM      8  C   UNL     1      35.819 -25.917 -14.959  0.00  0.00    +0.003 C 
ATOM      9  C   UNL     1      38.172 -26.021 -14.661  0.00  0.00    +0.176 C 
ATOM     10  C   UNL     1      37.037 -26.533 -15.253  0.00  0.00    +0.040 C 
ATOM     11  C   UNL     1      40.181 -25.581 -13.986  0.00  0.00    +0.429 C 
ENDBRANCH   2   5
BRANCH   1  12
ATOM     12  C   UNL     1      31.980 -24.026 -13.770  0.00  0.00    +0.132 C 
BRANCH  12  13
ATOM     13  C   UNL     1      31.059 -23.768 -15.005  0.00  0.00    +0.029 C 
ATOM     14  C   UNL     1      30.081 -22.616 -14.688  0.00  0.00    +0.003 C 
ATOM     15  C   UNL     1      31.903 -23.354 -16.227  0.00  0.00    +0.003 C 
ATOM     16  C   UNL     1      30.224 -25.011 -15.371  0.00  0.00    +0.003 C 
ENDBRANCH  12  13
BRANCH  12  17
ATOM     17  O   UNL     1      32.318 -22.791 -13.132  0.00  0.00    -0.380 OA
ATOM     18  H   UNL     1      31.960 -22.053 -13.650  0.00  0.00    +0.211 HD
ENDBRANCH  12  17
ENDBRANCH   1  12
TORSDOF 4
ENDMDL
