MODEL 1
REMARK VINA RESULT:     -11.3      0.000      0.000
REMARK  Name = 439530
REMARK  10 active torsions:
REMARK  status: ('A' for Active; 'I' for Inactive)
REMARK    1  A    between atoms: C_2  and  N_19
REMARK    2  A    between atoms: C_3  and  O_36
REMARK    3  A    between atoms: C_4  and  C_38
REMARK    4  A    between atoms: C_5  and  N_6
REMARK    5  A    between atoms: C_20  and  C_22
REMARK    6  A    between atoms: C_22  and  N_23
REMARK    7  A    between atoms: C_22  and  C_27
REMARK    8  A    between atoms: C_27  and  C_28
REMARK    9  A    between atoms: C_33  and  O_34
REMARK   10  A    between atoms: C_38  and  O_39
REMARK                            x       y       z     vdW  Elec       q    Type
REMARK                         _______ _______ _______ _____ _____    ______ ____
ROOT
ATOM      1  O   UNL     1      34.016 -12.879 -24.324  0.00  0.00    -0.334 OA
ATOM      2  C   UNL     1      33.066 -14.907 -23.489  0.00  0.00    +0.132 C 
ATOM      3  C   UNL     1      32.402 -13.723 -22.806  0.00  0.00    +0.178 C 
ATOM      4  C   UNL     1      33.749 -14.250 -24.689  0.00  0.00    +0.167 C 
ATOM      5  C   UNL     1      33.417 -12.613 -23.042  0.00  0.00    +0.224 C 
ENDROOT
BRANCH   5   6
ATOM      6  N   UNL     1      32.844 -11.269 -23.039  0.00  0.00    -0.247 N 
ATOM      7  N   UNL     1      31.357  -9.638 -22.721  0.00  0.00    -0.242 NA
ATOM      8  N   UNL     1      34.676  -9.985 -23.985  0.00  0.00    -0.228 NA
ATOM      9  N   UNL     1      31.986  -6.754 -23.452  0.00  0.00    -0.289 N 
ATOM     10  N   UNL     1      34.105  -7.618 -24.154  0.00  0.00    -0.228 NA
ATOM     11  C   UNL     1      33.444 -10.121 -23.471  0.00  0.00    +0.152 C 
ATOM     12  C   UNL     1      31.592 -10.928 -22.599  0.00  0.00    +0.223 C 
ATOM     13  C   UNL     1      32.507  -9.122 -23.265  0.00  0.00    +0.140 C 
ATOM     14  C   UNL     1      32.874  -7.829 -23.628  0.00  0.00    +0.149 C 
ATOM     15  C   UNL     1      34.916  -8.693 -24.298  0.00  0.00    +0.253 C 
ATOM     16  C   UNL     1      30.666  -6.972 -22.888  0.00  0.00    +0.114 C 
ATOM     17  C   UNL     1      32.377  -5.405 -23.819  0.00  0.00    +0.114 C 
ENDBRANCH   5   6
BRANCH   2  19
ATOM     18  O   UNL     1      34.414 -17.369 -24.041  0.00  0.00    -0.277 OA
ATOM     19  N   UNL     1      34.045 -15.556 -22.645  0.00  0.00    -0.303 N 
ATOM     20  C   UNL     1      34.645 -16.753 -23.002  0.00  0.00    +0.202 C 
ATOM     21  H   UNL     1      34.293 -15.135 -21.790  0.00  0.00    +0.149 HD
BRANCH  20  22
ATOM     22  C   UNL     1      35.660 -17.227 -21.967  0.00  0.00    +0.017 C 
BRANCH  22  23
ATOM     23  N   UNL     1      35.060 -17.000 -20.652  0.00  0.00    +0.388 N 
ATOM     24  H   UNL     1      35.152 -17.844 -20.087  0.00  0.00    -0.089 HD
ATOM     25  H   UNL     1      34.073 -16.772 -20.764  0.00  0.00    -0.089 HD
ATOM     26  H   UNL     1      35.538 -16.227 -20.189  0.00  0.00    -0.089 HD
ENDBRANCH  22  23
BRANCH  22  27
ATOM     27  C   UNL     1      35.966 -18.721 -22.151  0.00  0.00    +0.013 C 
BRANCH  27  28
ATOM     28  C   UNL     1      35.111 -19.606 -21.276  0.00  0.00    -0.024 C 
ATOM     29  C   UNL     1      33.721 -19.562 -21.383  0.00  0.00    -0.001 C 
ATOM     30  C   UNL     1      35.711 -20.470 -20.359  0.00  0.00    -0.001 C 
ATOM     31  C   UNL     1      32.932 -20.379 -20.574  0.00  0.00    +0.037 C 
ATOM     32  C   UNL     1      34.923 -21.287 -19.550  0.00  0.00    +0.037 C 
ATOM     33  C   UNL     1      33.533 -21.242 -19.658  0.00  0.00    +0.139 C 
BRANCH  33  34
ATOM     34  O   UNL     1      32.763 -22.041 -18.869  0.00  0.00    -0.471 OA
ATOM     35  C   UNL     1      33.439 -23.007 -18.067  0.00  0.00    +0.252 C 
ENDBRANCH  33  34
ENDBRANCH  27  28
ENDBRANCH  22  27
ENDBRANCH  20  22
ENDBRANCH   2  19
BRANCH   3  36
ATOM     36  O   UNL     1      32.148 -13.953 -21.437  0.00  0.00    -0.379 OA
ATOM     37  H   UNL     1      32.164 -14.907 -21.260  0.00  0.00    +0.211 HD
ENDBRANCH   3  36
BRANCH   4  38
ATOM     38  C   UNL     1      32.874 -14.254 -25.936  0.00  0.00    +0.168 C 
BRANCH  38  39
ATOM     39  O   UNL     1      33.443 -15.137 -26.886  0.00  0.00    -0.379 OA
ATOM     40  H   UNL     1      33.950 -14.628 -27.538  0.00  0.00    +0.211 HD
ENDBRANCH  38  39
ENDBRANCH   4  38
TORSDOF 10
ENDMDL
MODEL 2
REMARK VINA RESULT:     -10.7      0.952      1.600
REMARK  Name = 439530
REMARK  10 active torsions:
REMARK  status: ('A' for Active; 'I' for Inactive)
REMARK    1  A    between atoms: C_2  and  N_19
REMARK    2  A    between atoms: C_3  and  O_36
REMARK    3  A    between atoms: C_4  and  C_38
REMARK    4  A    between atoms: C_5  and  N_6
REMARK    5  A    between atoms: C_20  and  C_22
REMARK    6  A    between atoms: C_22  and  N_23
REMARK    7  A    between atoms: C_22  and  C_27
REMARK    8  A    between atoms: C_27  and  C_28
REMARK    9  A    between atoms: C_33  and  O_34
REMARK   10  A    between atoms: C_38  and  O_39
REMARK                            x       y       z     vdW  Elec       q    Type
REMARK                         _______ _______ _______ _____ _____    ______ ____
ROOT
ATOM      1  O   UNL     1      34.132 -12.982 -24.539  0.00  0.00    -0.334 OA
ATOM      2  C   UNL     1      32.983 -14.807 -23.509  0.00  0.00    +0.132 C 
ATOM      3  C   UNL     1      32.488 -13.500 -22.912  0.00  0.00    +0.178 C 
ATOM      4  C   UNL     1      33.693 -14.337 -24.779  0.00  0.00    +0.167 C 
ATOM      5  C   UNL     1      33.616 -12.543 -23.269  0.00  0.00    +0.224 C 
ENDROOT
BRANCH   5   6
ATOM      6  N   UNL     1      33.204 -11.144 -23.365  0.00  0.00    -0.247 N 
ATOM      7  N   UNL     1      32.859  -9.130 -24.257  0.00  0.00    -0.242 NA
ATOM      8  N   UNL     1      32.346 -10.762 -21.126  0.00  0.00    -0.228 NA
ATOM      9  N   UNL     1      31.609  -6.875 -22.645  0.00  0.00    -0.289 N 
ATOM     10  N   UNL     1      31.534  -8.475 -20.866  0.00  0.00    -0.228 NA
ATOM     11  C   UNL     1      32.639 -10.387 -22.379  0.00  0.00    +0.152 C 
ATOM     12  C   UNL     1      33.317 -10.346 -24.473  0.00  0.00    +0.223 C 
ATOM     13  C   UNL     1      32.433  -9.142 -22.952  0.00  0.00    +0.140 C 
ATOM     14  C   UNL     1      31.856  -8.165 -22.145  0.00  0.00    +0.149 C 
ATOM     15  C   UNL     1      31.795  -9.735 -20.443  0.00  0.00    +0.253 C 
ATOM     16  C   UNL     1      31.951  -6.536 -24.014  0.00  0.00    +0.114 C 
ATOM     17  C   UNL     1      30.996  -5.862 -21.804  0.00  0.00    +0.114 C 
ENDBRANCH   5   6
BRANCH   2  19
ATOM     18  O   UNL     1      34.418 -17.205 -24.123  0.00  0.00    -0.277 OA
ATOM     19  N   UNL     1      33.910 -15.497 -22.640  0.00  0.00    -0.303 N 
ATOM     20  C   UNL     1      34.559 -16.658 -23.031  0.00  0.00    +0.202 C 
ATOM     21  H   UNL     1      34.085 -15.133 -21.743  0.00  0.00    +0.149 HD
BRANCH  20  22
ATOM     22  C   UNL     1      35.505 -17.187 -21.958  0.00  0.00    +0.017 C 
BRANCH  22  23
ATOM     23  N   UNL     1      34.828 -17.006 -20.672  0.00  0.00    +0.388 N 
ATOM     24  H   UNL     1      35.488 -17.181 -19.914  0.00  0.00    -0.089 HD
ATOM     25  H   UNL     1      34.049 -17.661 -20.604  0.00  0.00    -0.089 HD
ATOM     26  H   UNL     1      34.477 -16.051 -20.604  0.00  0.00    -0.089 HD
ENDBRANCH  22  23
BRANCH  22  27
ATOM     27  C   UNL     1      35.806 -18.676 -22.184  0.00  0.00    +0.013 C 
BRANCH  27  28
ATOM     28  C   UNL     1      35.001 -19.580 -21.283  0.00  0.00    -0.024 C 
ATOM     29  C   UNL     1      33.607 -19.570 -21.346  0.00  0.00    -0.001 C 
ATOM     30  C   UNL     1      35.650 -20.429 -20.386  0.00  0.00    -0.001 C 
ATOM     31  C   UNL     1      32.864 -20.405 -20.513  0.00  0.00    +0.037 C 
ATOM     32  C   UNL     1      34.908 -21.265 -19.552  0.00  0.00    +0.037 C 
ATOM     33  C   UNL     1      33.514 -21.253 -19.616  0.00  0.00    +0.139 C 
BRANCH  33  34
ATOM     34  O   UNL     1      32.789 -22.070 -18.804  0.00  0.00    -0.471 OA
ATOM     35  C   UNL     1      33.506 -23.066 -18.078  0.00  0.00    +0.252 C 
ENDBRANCH  33  34
ENDBRANCH  27  28
ENDBRANCH  22  27
ENDBRANCH  20  22
ENDBRANCH   2  19
BRANCH   3  36
ATOM     36  O   UNL     1      32.259 -13.587 -21.521  0.00  0.00    -0.379 OA
ATOM     37  H   UNL     1      32.430 -14.494 -21.221  0.00  0.00    +0.211 HD
ENDBRANCH   3  36
BRANCH   4  38
ATOM     38  C   UNL     1      32.779 -14.337 -25.997  0.00  0.00    +0.168 C 
BRANCH  38  39
ATOM     39  O   UNL     1      32.733 -15.648 -26.529  0.00  0.00    -0.379 OA
ATOM     40  H   UNL     1      33.613 -16.051 -26.474  0.00  0.00    +0.211 HD
ENDBRANCH  38  39
ENDBRANCH   4  38
TORSDOF 10
ENDMDL
MODEL 3
REMARK VINA RESULT:      -9.9      3.934      6.964
REMARK  Name = 439530
REMARK  10 active torsions:
REMARK  status: ('A' for Active; 'I' for Inactive)
REMARK    1  A    between atoms: C_2  and  N_19
REMARK    2  A    between atoms: C_3  and  O_36
REMARK    3  A    between atoms: C_4  and  C_38
REMARK    4  A    between atoms: C_5  and  N_6
REMARK    5  A    between atoms: C_20  and  C_22
REMARK    6  A    between atoms: C_22  and  N_23
REMARK    7  A    between atoms: C_22  and  C_27
REMARK    8  A    between atoms: C_27  and  C_28
REMARK    9  A    between atoms: C_33  and  O_34
REMARK   10  A    between atoms: C_38  and  O_39
REMARK                            x       y       z     vdW  Elec       q    Type
REMARK                         _______ _______ _______ _____ _____    ______ ____
ROOT
ATOM      1  O   UNL     1      35.642 -17.936 -20.516  0.00  0.00    -0.334 OA
ATOM      2  C   UNL     1      35.082 -20.245 -20.776  0.00  0.00    +0.132 C 
ATOM      3  C   UNL     1      34.149 -19.402 -21.629  0.00  0.00    +0.178 C 
ATOM      4  C   UNL     1      36.210 -19.262 -20.460  0.00  0.00    +0.167 C 
ATOM      5  C   UNL     1      34.284 -18.030 -20.984  0.00  0.00    +0.224 C 
ENDROOT
BRANCH   5   6
ATOM      6  N   UNL     1      33.998 -16.916 -21.885  0.00  0.00    -0.247 N 
ATOM      7  N   UNL     1      33.367 -14.884 -22.551  0.00  0.00    -0.242 NA
ATOM      8  N   UNL     1      34.580 -17.896 -24.029  0.00  0.00    -0.228 NA
ATOM      9  N   UNL     1      33.424 -14.088 -25.485  0.00  0.00    -0.289 N 
ATOM     10  N   UNL     1      34.235 -16.310 -25.852  0.00  0.00    -0.228 NA
ATOM     11  C   UNL     1      34.145 -16.901 -23.242  0.00  0.00    +0.152 C 
ATOM     12  C   UNL     1      33.527 -15.683 -21.517  0.00  0.00    +0.223 C 
ATOM     13  C   UNL     1      33.749 -15.633 -23.636  0.00  0.00    +0.140 C 
ATOM     14  C   UNL     1      33.806 -15.350 -24.998  0.00  0.00    +0.149 C 
ATOM     15  C   UNL     1      34.590 -17.505 -25.322  0.00  0.00    +0.253 C 
ATOM     16  C   UNL     1      32.964 -13.054 -24.577  0.00  0.00    +0.114 C 
ATOM     17  C   UNL     1      33.497 -13.792 -26.905  0.00  0.00    +0.114 C 
ENDBRANCH   5   6
BRANCH   2  19
ATOM     18  O   UNL     1      34.859 -22.960 -19.903  0.00  0.00    -0.277 OA
ATOM     19  N   UNL     1      34.456 -20.703 -19.556  0.00  0.00    -0.303 N 
ATOM     20  C   UNL     1      34.398 -22.046 -19.220  0.00  0.00    +0.202 C 
ATOM     21  H   UNL     1      34.059 -20.042 -18.946  0.00  0.00    +0.149 HD
BRANCH  20  22
ATOM     22  C   UNL     1      33.715 -22.282 -17.876  0.00  0.00    +0.017 C 
BRANCH  22  23
ATOM     23  N   UNL     1      32.275 -22.307 -18.135  0.00  0.00    +0.388 N 
ATOM     24  H   UNL     1      32.035 -23.161 -18.638  0.00  0.00    -0.089 HD
ATOM     25  H   UNL     1      32.017 -21.496 -18.698  0.00  0.00    -0.089 HD
ATOM     26  H   UNL     1      31.770 -22.281 -17.249  0.00  0.00    -0.089 HD
ENDBRANCH  22  23
BRANCH  22  27
ATOM     27  C   UNL     1      34.160 -23.620 -17.268  0.00  0.00    +0.013 C 
BRANCH  27  28
ATOM     28  C   UNL     1      35.111 -23.448 -16.107  0.00  0.00    -0.024 C 
ATOM     29  C   UNL     1      36.339 -22.814 -16.297  0.00  0.00    -0.001 C 
ATOM     30  C   UNL     1      34.762 -23.924 -14.843  0.00  0.00    -0.001 C 
ATOM     31  C   UNL     1      37.216 -22.656 -15.225  0.00  0.00    +0.037 C 
ATOM     32  C   UNL     1      35.638 -23.766 -13.770  0.00  0.00    +0.037 C 
ATOM     33  C   UNL     1      36.866 -23.131 -13.962  0.00  0.00    +0.139 C 
BRANCH  33  34
ATOM     34  O   UNL     1      37.722 -22.976 -12.915  0.00  0.00    -0.471 OA
ATOM     35  C   UNL     1      37.156 -22.990 -11.606  0.00  0.00    +0.252 C 
ENDBRANCH  33  34
ENDBRANCH  27  28
ENDBRANCH  22  27
ENDBRANCH  20  22
ENDBRANCH   2  19
BRANCH   3  36
ATOM     36  O   UNL     1      32.821 -19.883 -21.626  0.00  0.00    -0.379 OA
ATOM     37  H   UNL     1      32.476 -19.875 -20.718  0.00  0.00    +0.211 HD
ENDBRANCH   3  36
BRANCH   4  38
ATOM     38  C   UNL     1      37.353 -19.338 -21.464  0.00  0.00    +0.168 C 
BRANCH  38  39
ATOM     39  O   UNL     1      37.232 -18.256 -22.371  0.00  0.00    -0.379 OA
ATOM     40  H   UNL     1      36.352 -18.271 -22.777  0.00  0.00    +0.211 HD
ENDBRANCH  38  39
ENDBRANCH   4  38
TORSDOF 10
ENDMDL
MODEL 4
REMARK VINA RESULT:      -9.6      3.257     10.469
REMARK  Name = 439530
REMARK  10 active torsions:
REMARK  status: ('A' for Active; 'I' for Inactive)
REMARK    1  A    between atoms: C_2  and  N_19
REMARK    2  A    between atoms: C_3  and  O_36
REMARK    3  A    between atoms: C_4  and  C_38
REMARK    4  A    between atoms: C_5  and  N_6
REMARK    5  A    between atoms: C_20  and  C_22
REMARK    6  A    between atoms: C_22  and  N_23
REMARK    7  A    between atoms: C_22  and  C_27
REMARK    8  A    between atoms: C_27  and  C_28
REMARK    9  A    between atoms: C_33  and  O_34
REMARK   10  A    between atoms: C_38  and  O_39
REMARK                            x       y       z     vdW  Elec       q    Type
REMARK                         _______ _______ _______ _____ _____    ______ ____
ROOT
ATOM      1  O   UNL     1      33.701 -19.558 -23.017  0.00  0.00    -0.334 OA
ATOM      2  C   UNL     1      35.382 -17.872 -23.221  0.00  0.00    +0.132 C 
ATOM      3  C   UNL     1      35.264 -18.290 -21.765  0.00  0.00    +0.178 C 
ATOM      4  C   UNL     1      34.660 -19.008 -23.946  0.00  0.00    +0.167 C 
ATOM      5  C   UNL     1      33.886 -18.935 -21.733  0.00  0.00    +0.224 C 
ENDROOT
BRANCH   5   6
ATOM      6  N   UNL     1      33.718 -19.931 -20.677  0.00  0.00    -0.247 N 
ATOM      7  N   UNL     1      32.690 -21.310 -19.258  0.00  0.00    -0.242 NA
ATOM      8  N   UNL     1      36.031 -20.366 -20.081  0.00  0.00    -0.228 NA
ATOM      9  N   UNL     1      34.259 -23.047 -17.317  0.00  0.00    -0.289 N 
ATOM     10  N   UNL     1      36.190 -22.026 -18.298  0.00  0.00    -0.228 NA
ATOM     11  C   UNL     1      34.707 -20.545 -19.964  0.00  0.00    +0.152 C 
ATOM     12  C   UNL     1      32.524 -20.422 -20.216  0.00  0.00    +0.223 C 
ATOM     13  C   UNL     1      34.049 -21.397 -19.090  0.00  0.00    +0.140 C 
ATOM     14  C   UNL     1      34.843 -22.156 -18.235  0.00  0.00    +0.149 C 
ATOM     15  C   UNL     1      36.692 -21.152 -19.203  0.00  0.00    +0.253 C 
ATOM     16  C   UNL     1      32.817 -23.193 -17.245  0.00  0.00    +0.114 C 
ATOM     17  C   UNL     1      35.090 -23.847 -16.436  0.00  0.00    +0.114 C 
ENDBRANCH   5   6
BRANCH   2  19
ATOM     18  O   UNL     1      34.819 -16.768 -25.800  0.00  0.00    -0.277 OA
ATOM     19  N   UNL     1      34.731 -16.608 -23.489  0.00  0.00    -0.303 N 
ATOM     20  C   UNL     1      34.502 -16.159 -24.780  0.00  0.00    +0.202 C 
ATOM     21  H   UNL     1      34.442 -16.050 -22.732  0.00  0.00    +0.149 HD
BRANCH  20  22
ATOM     22  C   UNL     1      33.779 -14.816 -24.810  0.00  0.00    +0.017 C 
BRANCH  22  23
ATOM     23  N   UNL     1      32.738 -14.921 -25.834  0.00  0.00    +0.388 N 
ATOM     24  H   UNL     1      32.264 -14.023 -25.928  0.00  0.00    -0.089 HD
ATOM     25  H   UNL     1      32.063 -15.635 -25.561  0.00  0.00    -0.089 HD
ATOM     26  H   UNL     1      33.163 -15.176 -26.726  0.00  0.00    -0.089 HD
ENDBRANCH  22  23
BRANCH  22  27
ATOM     27  C   UNL     1      33.141 -14.512 -23.446  0.00  0.00    +0.013 C 
BRANCH  27  28
ATOM     28  C   UNL     1      32.902 -13.037 -23.228  0.00  0.00    -0.024 C 
ATOM     29  C   UNL     1      33.598 -12.095 -23.987  0.00  0.00    -0.001 C 
ATOM     30  C   UNL     1      31.983 -12.614 -22.268  0.00  0.00    -0.001 C 
ATOM     31  C   UNL     1      33.376 -10.734 -23.785  0.00  0.00    +0.037 C 
ATOM     32  C   UNL     1      31.761 -11.252 -22.065  0.00  0.00    +0.037 C 
ATOM     33  C   UNL     1      32.457 -10.312 -22.825  0.00  0.00    +0.139 C 
BRANCH  33  34
ATOM     34  O   UNL     1      32.240  -8.983 -22.628  0.00  0.00    -0.471 OA
ATOM     35  C   UNL     1      32.289  -8.509 -21.283  0.00  0.00    +0.252 C 
ENDBRANCH  33  34
ENDBRANCH  27  28
ENDBRANCH  22  27
ENDBRANCH  20  22
ENDBRANCH   2  19
BRANCH   3  36
ATOM     36  O   UNL     1      35.384 -17.203 -20.872  0.00  0.00    -0.379 OA
ATOM     37  H   UNL     1      35.644 -17.531 -19.996  0.00  0.00    +0.211 HD
ENDBRANCH   3  36
BRANCH   4  38
ATOM     38  C   UNL     1      35.604 -20.122 -24.379  0.00  0.00    +0.168 C 
BRANCH  38  39
ATOM     39  O   UNL     1      34.999 -20.843 -25.437  0.00  0.00    -0.379 OA
ATOM     40  H   UNL     1      34.633 -21.673 -25.095  0.00  0.00    +0.211 HD
ENDBRANCH  38  39
ENDBRANCH   4  38
TORSDOF 10
ENDMDL
MODEL 5
REMARK VINA RESULT:      -9.5      4.486     12.678
REMARK  Name = 439530
REMARK  10 active torsions:
REMARK  status: ('A' for Active; 'I' for Inactive)
REMARK    1  A    between atoms: C_2  and  N_19
REMARK    2  A    between atoms: C_3  and  O_36
REMARK    3  A    between atoms: C_4  and  C_38
REMARK    4  A    between atoms: C_5  and  N_6
REMARK    5  A    between atoms: C_20  and  C_22
REMARK    6  A    between atoms: C_22  and  N_23
REMARK    7  A    between atoms: C_22  and  C_27
REMARK    8  A    between atoms: C_27  and  C_28
REMARK    9  A    between atoms: C_33  and  O_34
REMARK   10  A    between atoms: C_38  and  O_39
REMARK                            x       y       z     vdW  Elec       q    Type
REMARK                         _______ _______ _______ _____ _____    ______ ____
ROOT
ATOM      1  O   UNL     1      34.297 -22.012 -18.058  0.00  0.00    -0.334 OA
ATOM      2  C   UNL     1      35.106 -21.205 -20.157  0.00  0.00    +0.132 C 
ATOM      3  C   UNL     1      36.283 -21.481 -19.237  0.00  0.00    +0.178 C 
ATOM      4  C   UNL     1      33.968 -21.954 -19.463  0.00  0.00    +0.167 C 
ATOM      5  C   UNL     1      35.620 -21.478 -17.867  0.00  0.00    +0.224 C 
ENDROOT
BRANCH   5   6
ATOM      6  N   UNL     1      36.326 -22.269 -16.861  0.00  0.00    -0.247 N 
ATOM      7  N   UNL     1      38.022 -23.093 -15.671  0.00  0.00    -0.242 NA
ATOM      8  N   UNL     1      34.472 -23.431 -15.806  0.00  0.00    -0.228 NA
ATOM      9  N   UNL     1      37.563 -25.104 -13.437  0.00  0.00    -0.289 N 
ATOM     10  N   UNL     1      35.249 -24.898 -14.016  0.00  0.00    -0.228 NA
ATOM     11  C   UNL     1      35.771 -23.131 -15.959  0.00  0.00    +0.152 C 
ATOM     12  C   UNL     1      37.679 -22.282 -16.650  0.00  0.00    +0.223 C 
ATOM     13  C   UNL     1      36.838 -23.631 -15.230  0.00  0.00    +0.140 C 
ATOM     14  C   UNL     1      36.541 -24.548 -14.226  0.00  0.00    +0.149 C 
ATOM     15  C   UNL     1      34.310 -24.327 -14.808  0.00  0.00    +0.253 C 
ATOM     16  C   UNL     1      38.949 -24.733 -13.654  0.00  0.00    +0.114 C 
ATOM     17  C   UNL     1      37.248 -26.050 -12.381  0.00  0.00    +0.114 C 
ENDBRANCH   5   6
BRANCH   2  19
ATOM     18  O   UNL     1      34.948 -19.668 -22.565  0.00  0.00    -0.277 OA
ATOM     19  N   UNL     1      34.797 -19.796 -20.255  0.00  0.00    -0.303 N 
ATOM     20  C   UNL     1      34.744 -19.139 -21.474  0.00  0.00    +0.202 C 
ATOM     21  H   UNL     1      34.618 -19.288 -19.432  0.00  0.00    +0.149 HD
BRANCH  20  22
ATOM     22  C   UNL     1      34.373 -17.667 -21.327  0.00  0.00    +0.017 C 
BRANCH  22  23
ATOM     23  N   UNL     1      35.346 -17.077 -20.407  0.00  0.00    +0.388 N 
ATOM     24  H   UNL     1      35.145 -16.083 -20.291  0.00  0.00    -0.089 HD
ATOM     25  H   UNL     1      36.286 -17.190 -20.788  0.00  0.00    -0.089 HD
ATOM     26  H   UNL     1      35.287 -17.544 -19.503  0.00  0.00    -0.089 HD
ENDBRANCH  22  23
BRANCH  22  27
ATOM     27  C   UNL     1      34.436 -16.952 -22.684  0.00  0.00    +0.013 C 
BRANCH  27  28
ATOM     28  C   UNL     1      33.832 -15.568 -22.647  0.00  0.00    -0.024 C 
ATOM     29  C   UNL     1      32.866 -15.253 -21.691  0.00  0.00    -0.001 C 
ATOM     30  C   UNL     1      34.239 -14.604 -23.569  0.00  0.00    -0.001 C 
ATOM     31  C   UNL     1      32.308 -13.976 -21.657  0.00  0.00    +0.037 C 
ATOM     32  C   UNL     1      33.682 -13.326 -23.535  0.00  0.00    +0.037 C 
ATOM     33  C   UNL     1      32.716 -13.012 -22.578  0.00  0.00    +0.139 C 
BRANCH  33  34
ATOM     34  O   UNL     1      32.172 -11.765 -22.545  0.00  0.00    -0.471 OA
ATOM     35  C   UNL     1      31.212 -11.503 -21.523  0.00  0.00    +0.252 C 
ENDBRANCH  33  34
ENDBRANCH  27  28
ENDBRANCH  22  27
ENDBRANCH  20  22
ENDBRANCH   2  19
BRANCH   3  36
ATOM     36  O   UNL     1      37.307 -20.515 -19.354  0.00  0.00    -0.379 OA
ATOM     37  H   UNL     1      36.972 -19.747 -19.845  0.00  0.00    +0.211 HD
ENDBRANCH   3  36
BRANCH   4  38
ATOM     38  C   UNL     1      33.803 -23.379 -19.976  0.00  0.00    +0.168 C 
BRANCH  38  39
ATOM     39  O   UNL     1      33.711 -24.253 -18.865  0.00  0.00    -0.379 OA
ATOM     40  H   UNL     1      33.703 -23.734 -18.046  0.00  0.00    +0.211 HD
ENDBRANCH  38  39
ENDBRANCH   4  38
TORSDOF 10
ENDMDL
MODEL 6
REMARK VINA RESULT:      -9.4      2.565     10.776
REMARK  Name = 439530
REMARK  10 active torsions:
REMARK  status: ('A' for Active; 'I' for Inactive)
REMARK    1  A    between atoms: C_2  and  N_19
REMARK    2  A    between atoms: C_3  and  O_36
REMARK    3  A    between atoms: C_4  and  C_38
REMARK    4  A    between atoms: C_5  and  N_6
REMARK    5  A    between atoms: C_20  and  C_22
REMARK    6  A    between atoms: C_22  and  N_23
REMARK    7  A    between atoms: C_22  and  C_27
REMARK    8  A    between atoms: C_27  and  C_28
REMARK    9  A    between atoms: C_33  and  O_34
REMARK   10  A    between atoms: C_38  and  O_39
REMARK                            x       y       z     vdW  Elec       q    Type
REMARK                         _______ _______ _______ _____ _____    ______ ____
ROOT
ATOM      1  O   UNL     1      33.402 -16.304 -23.378  0.00  0.00    -0.334 OA
ATOM      2  C   UNL     1      34.250 -14.079 -23.172  0.00  0.00    +0.132 C 
ATOM      3  C   UNL     1      34.839 -14.945 -22.071  0.00  0.00    +0.178 C 
ATOM      4  C   UNL     1      33.704 -15.120 -24.149  0.00  0.00    +0.167 C 
ATOM      5  C   UNL     1      33.859 -16.108 -22.027  0.00  0.00    +0.224 C 
ENDROOT
BRANCH   5   6
ATOM      6  N   UNL     1      34.432 -17.353 -21.519  0.00  0.00    -0.247 N 
ATOM      7  N   UNL     1      35.978 -18.851 -20.940  0.00  0.00    -0.242 NA
ATOM      8  N   UNL     1      32.420 -18.578 -20.926  0.00  0.00    -0.228 NA
ATOM      9  N   UNL     1      35.211 -21.548 -19.763  0.00  0.00    -0.289 N 
ATOM     10  N   UNL     1      32.959 -20.776 -20.011  0.00  0.00    -0.228 NA
ATOM     11  C   UNL     1      33.749 -18.433 -21.036  0.00  0.00    +0.152 C 
ATOM     12  C   UNL     1      35.767 -17.653 -21.442  0.00  0.00    +0.223 C 
ATOM     13  C   UNL     1      34.726 -19.350 -20.682  0.00  0.00    +0.140 C 
ATOM     14  C   UNL     1      34.289 -20.561 -20.151  0.00  0.00    +0.149 C 
ATOM     15  C   UNL     1      32.120 -19.786 -20.402  0.00  0.00    +0.253 C 
ATOM     16  C   UNL     1      36.637 -21.325 -19.908  0.00  0.00    +0.114 C 
ATOM     17  C   UNL     1      34.752 -22.804 -19.197  0.00  0.00    +0.114 C 
ENDBRANCH   5   6
BRANCH   2  19
ATOM     18  O   UNL     1      33.801 -11.352 -23.913  0.00  0.00    -0.277 OA
ATOM     19  N   UNL     1      33.184 -13.226 -22.696  0.00  0.00    -0.303 N 
ATOM     20  C   UNL     1      33.050 -11.912 -23.116  0.00  0.00    +0.202 C 
ATOM     21  H   UNL     1      32.532 -13.589 -22.053  0.00  0.00    +0.149 HD
BRANCH  20  22
ATOM     22  C   UNL     1      31.837 -11.223 -22.500  0.00  0.00    +0.017 C 
BRANCH  22  23
ATOM     23  N   UNL     1      31.125 -12.238 -21.722  0.00  0.00    +0.388 N 
ATOM     24  H   UNL     1      31.392 -12.162 -20.740  0.00  0.00    -0.089 HD
ATOM     25  H   UNL     1      31.370 -13.166 -22.069  0.00  0.00    -0.089 HD
ATOM     26  H   UNL     1      30.120 -12.095 -21.814  0.00  0.00    -0.089 HD
ENDBRANCH  22  23
BRANCH  22  27
ATOM     27  C   UNL     1      32.274 -10.073 -21.581  0.00  0.00    +0.013 C 
BRANCH  27  28
ATOM     28  C   UNL     1      31.845  -8.719 -22.093  0.00  0.00    -0.024 C 
ATOM     29  C   UNL     1      31.256  -8.602 -23.353  0.00  0.00    -0.001 C 
ATOM     30  C   UNL     1      32.038  -7.582 -21.307  0.00  0.00    -0.001 C 
ATOM     31  C   UNL     1      30.860  -7.351 -23.825  0.00  0.00    +0.037 C 
ATOM     32  C   UNL     1      31.643  -6.331 -21.779  0.00  0.00    +0.037 C 
ATOM     33  C   UNL     1      31.053  -6.216 -23.039  0.00  0.00    +0.139 C 
BRANCH  33  34
ATOM     34  O   UNL     1      30.666  -4.995 -23.500  0.00  0.00    -0.471 OA
ATOM     35  C   UNL     1      31.134  -4.611 -24.791  0.00  0.00    +0.252 C 
ENDBRANCH  33  34
ENDBRANCH  27  28
ENDBRANCH  22  27
ENDBRANCH  20  22
ENDBRANCH   2  19
BRANCH   3  36
ATOM     36  O   UNL     1      34.942 -14.266 -20.837  0.00  0.00    -0.379 OA
ATOM     37  H   UNL     1      34.755 -14.883 -20.111  0.00  0.00    +0.211 HD
ENDBRANCH   3  36
BRANCH   4  38
ATOM     38  C   UNL     1      34.710 -15.495 -25.230  0.00  0.00    +0.168 C 
BRANCH  38  39
ATOM     39  O   UNL     1      34.253 -16.663 -25.888  0.00  0.00    -0.379 OA
ATOM     40  H   UNL     1      33.663 -16.415 -26.616  0.00  0.00    +0.211 HD
ENDBRANCH  38  39
ENDBRANCH   4  38
TORSDOF 10
ENDMDL
MODEL 7
REMARK VINA RESULT:      -9.4      2.791     10.918
REMARK  Name = 439530
REMARK  10 active torsions:
REMARK  status: ('A' for Active; 'I' for Inactive)
REMARK    1  A    between atoms: C_2  and  N_19
REMARK    2  A    between atoms: C_3  and  O_36
REMARK    3  A    between atoms: C_4  and  C_38
REMARK    4  A    between atoms: C_5  and  N_6
REMARK    5  A    between atoms: C_20  and  C_22
REMARK    6  A    between atoms: C_22  and  N_23
REMARK    7  A    between atoms: C_22  and  C_27
REMARK    8  A    between atoms: C_27  and  C_28
REMARK    9  A    between atoms: C_33  and  O_34
REMARK   10  A    between atoms: C_38  and  O_39
REMARK                            x       y       z     vdW  Elec       q    Type
REMARK                         _______ _______ _______ _____ _____    ______ ____
ROOT
ATOM      1  O   UNL     1      32.808 -13.602 -25.694  0.00  0.00    -0.334 OA
ATOM      2  C   UNL     1      33.826 -11.518 -25.118  0.00  0.00    +0.132 C 
ATOM      3  C   UNL     1      34.322 -12.599 -24.172  0.00  0.00    +0.178 C 
ATOM      4  C   UNL     1      33.218 -12.337 -26.257  0.00  0.00    +0.167 C 
ATOM      5  C   UNL     1      33.251 -13.669 -24.326  0.00  0.00    +0.224 C 
ENDROOT
BRANCH   5   6
ATOM      6  N   UNL     1      33.713 -15.023 -24.028  0.00  0.00    -0.247 N 
ATOM      7  N   UNL     1      34.275 -17.154 -24.363  0.00  0.00    -0.242 NA
ATOM      8  N   UNL     1      34.147 -14.846 -21.645  0.00  0.00    -0.228 NA
ATOM      9  N   UNL     1      35.264 -18.910 -22.085  0.00  0.00    -0.289 N 
ATOM     10  N   UNL     1      34.960 -16.959 -20.733  0.00  0.00    -0.228 NA
ATOM     11  C   UNL     1      34.104 -15.506 -22.812  0.00  0.00    +0.152 C 
ATOM     12  C   UNL     1      33.832 -16.050 -24.926  0.00  0.00    +0.223 C 
ATOM     13  C   UNL     1      34.449 -16.828 -23.041  0.00  0.00    +0.140 C 
ATOM     14  C   UNL     1      34.892 -17.562 -21.943  0.00  0.00    +0.149 C 
ATOM     15  C   UNL     1      34.589 -15.658 -20.660  0.00  0.00    +0.253 C 
ATOM     16  C   UNL     1      35.195 -19.564 -23.380  0.00  0.00    +0.114 C 
ATOM     17  C   UNL     1      35.737 -19.669 -20.942  0.00  0.00    +0.114 C 
ENDBRANCH   5   6
BRANCH   2  19
ATOM     18  O   UNL     1      34.300  -9.097 -23.670  0.00  0.00    -0.277 OA
ATOM     19  N   UNL     1      32.822 -10.670 -24.515  0.00  0.00    -0.303 N 
ATOM     20  C   UNL     1      33.153  -9.512 -23.831  0.00  0.00    +0.202 C 
ATOM     21  H   UNL     1      31.874 -10.923 -24.592  0.00  0.00    +0.149 HD
BRANCH  20  22
ATOM     22  C   UNL     1      31.926  -8.772 -23.308  0.00  0.00    +0.017 C 
BRANCH  22  23
ATOM     23  N   UNL     1      31.233  -9.691 -22.404  0.00  0.00    +0.388 N 
ATOM     24  H   UNL     1      31.064 -10.575 -22.884  0.00  0.00    -0.089 HD
ATOM     25  H   UNL     1      30.343  -9.282 -22.121  0.00  0.00    -0.089 HD
ATOM     26  H   UNL     1      31.810  -9.857 -21.579  0.00  0.00    -0.089 HD
ENDBRANCH  22  23
BRANCH  22  27
ATOM     27  C   UNL     1      32.339  -7.503 -22.547  0.00  0.00    +0.013 C 
BRANCH  27  28
ATOM     28  C   UNL     1      32.088  -6.240 -23.335  0.00  0.00    -0.024 C 
ATOM     29  C   UNL     1      31.386  -5.182 -22.756  0.00  0.00    -0.001 C 
ATOM     30  C   UNL     1      32.560  -6.129 -24.643  0.00  0.00    -0.001 C 
ATOM     31  C   UNL     1      31.155  -4.016 -23.484  0.00  0.00    +0.037 C 
ATOM     32  C   UNL     1      32.329  -4.962 -25.372  0.00  0.00    +0.037 C 
ATOM     33  C   UNL     1      31.626  -3.905 -24.792  0.00  0.00    +0.139 C 
BRANCH  33  34
ATOM     34  O   UNL     1      31.401  -2.767 -25.502  0.00  0.00    -0.471 OA
ATOM     35  C   UNL     1      30.556  -1.786 -24.905  0.00  0.00    +0.252 C 
ENDBRANCH  33  34
ENDBRANCH  27  28
ENDBRANCH  22  27
ENDBRANCH  20  22
ENDBRANCH   2  19
BRANCH   3  36
ATOM     36  O   UNL     1      34.455 -12.142 -22.842  0.00  0.00    -0.379 OA
ATOM     37  H   UNL     1      34.417 -12.898 -22.234  0.00  0.00    +0.211 HD
ENDBRANCH   3  36
BRANCH   4  38
ATOM     38  C   UNL     1      34.211 -12.611 -27.379  0.00  0.00    +0.168 C 
BRANCH  38  39
ATOM     39  O   UNL     1      33.988 -13.919 -27.873  0.00  0.00    -0.379 OA
ATOM     40  H   UNL     1      33.839 -14.524 -27.130  0.00  0.00    +0.211 HD
ENDBRANCH  38  39
ENDBRANCH   4  38
TORSDOF 10
ENDMDL
MODEL 8
REMARK VINA RESULT:      -9.3      3.259      6.488
REMARK  Name = 439530
REMARK  10 active torsions:
REMARK  status: ('A' for Active; 'I' for Inactive)
REMARK    1  A    between atoms: C_2  and  N_19
REMARK    2  A    between atoms: C_3  and  O_36
REMARK    3  A    between atoms: C_4  and  C_38
REMARK    4  A    between atoms: C_5  and  N_6
REMARK    5  A    between atoms: C_20  and  C_22
REMARK    6  A    between atoms: C_22  and  N_23
REMARK    7  A    between atoms: C_22  and  C_27
REMARK    8  A    between atoms: C_27  and  C_28
REMARK    9  A    between atoms: C_33  and  O_34
REMARK   10  A    between atoms: C_38  and  O_39
REMARK                            x       y       z     vdW  Elec       q    Type
REMARK                         _______ _______ _______ _____ _____    ______ ____
ROOT
ATOM      1  O   UNL     1      35.749 -17.879 -20.507  0.00  0.00    -0.334 OA
ATOM      2  C   UNL     1      35.051 -20.126 -20.922  0.00  0.00    +0.132 C 
ATOM      3  C   UNL     1      34.196 -19.175 -21.743  0.00  0.00    +0.178 C 
ATOM      4  C   UNL     1      36.230 -19.240 -20.519  0.00  0.00    +0.167 C 
ATOM      5  C   UNL     1      34.400 -17.856 -21.011  0.00  0.00    +0.224 C 
ENDROOT
BRANCH   5   6
ATOM      6  N   UNL     1      34.211 -16.674 -21.848  0.00  0.00    -0.247 N 
ATOM      7  N   UNL     1      34.324 -15.345 -23.635  0.00  0.00    -0.242 NA
ATOM      8  N   UNL     1      32.998 -15.222 -20.325  0.00  0.00    -0.228 NA
ATOM      9  N   UNL     1      33.109 -12.558 -23.619  0.00  0.00    -0.289 N 
ATOM     10  N   UNL     1      32.473 -13.080 -21.371  0.00  0.00    -0.228 NA
ATOM     11  C   UNL     1      33.576 -15.516 -21.498  0.00  0.00    +0.152 C 
ATOM     12  C   UNL     1      34.643 -16.523 -23.139  0.00  0.00    +0.223 C 
ATOM     13  C   UNL     1      33.656 -14.706 -22.620  0.00  0.00    +0.140 C 
ATOM     14  C   UNL     1      33.075 -13.444 -22.528  0.00  0.00    +0.149 C 
ATOM     15  C   UNL     1      32.473 -13.978 -20.356  0.00  0.00    +0.253 C 
ATOM     16  C   UNL     1      33.750 -12.941 -24.863  0.00  0.00    +0.114 C 
ATOM     17  C   UNL     1      32.489 -11.248 -23.524  0.00  0.00    +0.114 C 
ENDBRANCH   5   6
BRANCH   2  19
ATOM     18  O   UNL     1      35.347 -22.715 -19.739  0.00  0.00    -0.277 OA
ATOM     19  N   UNL     1      34.363 -20.616 -19.747  0.00  0.00    -0.303 N 
ATOM     20  C   UNL     1      34.576 -21.891 -19.249  0.00  0.00    +0.202 C 
ATOM     21  H   UNL     1      33.725 -20.025 -19.287  0.00  0.00    +0.149 HD
BRANCH  20  22
ATOM     22  C   UNL     1      33.761 -22.169 -17.990  0.00  0.00    +0.017 C 
BRANCH  22  23
ATOM     23  N   UNL     1      32.354 -22.172 -18.392  0.00  0.00    +0.388 N 
ATOM     24  H   UNL     1      31.829 -22.801 -17.784  0.00  0.00    -0.089 HD
ATOM     25  H   UNL     1      32.277 -22.490 -19.358  0.00  0.00    -0.089 HD
ATOM     26  H   UNL     1      31.976 -21.228 -18.313  0.00  0.00    -0.089 HD
ENDBRANCH  22  23
BRANCH  22  27
ATOM     27  C   UNL     1      34.136 -23.532 -17.390  0.00  0.00    +0.013 C 
BRANCH  27  28
ATOM     28  C   UNL     1      35.090 -23.417 -16.225  0.00  0.00    -0.024 C 
ATOM     29  C   UNL     1      34.798 -24.052 -15.017  0.00  0.00    -0.001 C 
ATOM     30  C   UNL     1      36.265 -22.677 -16.357  0.00  0.00    -0.001 C 
ATOM     31  C   UNL     1      35.680 -23.945 -13.942  0.00  0.00    +0.037 C 
ATOM     32  C   UNL     1      37.147 -22.569 -15.282  0.00  0.00    +0.037 C 
ATOM     33  C   UNL     1      36.854 -23.204 -14.074  0.00  0.00    +0.139 C 
BRANCH  33  34
ATOM     34  O   UNL     1      37.715 -23.101 -13.025  0.00  0.00    -0.471 OA
ATOM     35  C   UNL     1      37.141 -23.002 -11.723  0.00  0.00    +0.252 C 
ENDBRANCH  33  34
ENDBRANCH  27  28
ENDBRANCH  22  27
ENDBRANCH  20  22
ENDBRANCH   2  19
BRANCH   3  36
ATOM     36  O   UNL     1      32.841 -19.568 -21.800  0.00  0.00    -0.379 OA
ATOM     37  H   UNL     1      32.289 -18.892 -21.374  0.00  0.00    +0.211 HD
ENDBRANCH   3  36
BRANCH   4  38
ATOM     38  C   UNL     1      37.393 -19.329 -21.499  0.00  0.00    +0.168 C 
BRANCH  38  39
ATOM     39  O   UNL     1      37.356 -18.198 -22.350  0.00  0.00    -0.379 OA
ATOM     40  H   UNL     1      38.259 -17.961 -22.612  0.00  0.00    +0.211 HD
ENDBRANCH  38  39
ENDBRANCH   4  38
TORSDOF 10
ENDMDL
MODEL 9
REMARK VINA RESULT:      -9.1      2.907      5.207
REMARK  Name = 439530
REMARK  10 active torsions:
REMARK  status: ('A' for Active; 'I' for Inactive)
REMARK    1  A    between atoms: C_2  and  N_19
REMARK    2  A    between atoms: C_3  and  O_36
REMARK    3  A    between atoms: C_4  and  C_38
REMARK    4  A    between atoms: C_5  and  N_6
REMARK    5  A    between atoms: C_20  and  C_22
REMARK    6  A    between atoms: C_22  and  N_23
REMARK    7  A    between atoms: C_22  and  C_27
REMARK    8  A    between atoms: C_27  and  C_28
REMARK    9  A    between atoms: C_33  and  O_34
REMARK   10  A    between atoms: C_38  and  O_39
REMARK                            x       y       z     vdW  Elec       q    Type
REMARK                         _______ _______ _______ _____ _____    ______ ____
ROOT
ATOM      1  O   UNL     1      35.253 -17.011 -22.265  0.00  0.00    -0.334 OA
ATOM      2  C   UNL     1      34.289 -19.192 -22.122  0.00  0.00    +0.132 C 
ATOM      3  C   UNL     1      33.330 -18.179 -21.519  0.00  0.00    +0.178 C 
ATOM      4  C   UNL     1      35.251 -18.303 -22.909  0.00  0.00    +0.167 C 
ATOM      5  C   UNL     1      34.254 -17.005 -21.228  0.00  0.00    +0.224 C 
ENDROOT
BRANCH   5   6
ATOM      6  N   UNL     1      33.583 -15.708 -21.203  0.00  0.00    -0.247 N 
ATOM      7  N   UNL     1      32.345 -14.016 -20.442  0.00  0.00    -0.242 NA
ATOM      8  N   UNL     1      34.210 -14.822 -23.375  0.00  0.00    -0.228 NA
ATOM      9  N   UNL     1      31.897 -11.507 -22.100  0.00  0.00    -0.289 N 
ATOM     10  N   UNL     1      33.262 -12.602 -23.735  0.00  0.00    -0.228 NA
ATOM     11  C   UNL     1      33.590 -14.762 -22.187  0.00  0.00    +0.152 C 
ATOM     12  C   UNL     1      32.821 -15.215 -20.176  0.00  0.00    +0.223 C 
ATOM     13  C   UNL     1      32.818 -13.721 -21.696  0.00  0.00    +0.140 C 
ATOM     14  C   UNL     1      32.663 -12.609 -22.520  0.00  0.00    +0.149 C 
ATOM     15  C   UNL     1      33.987 -13.693 -24.082  0.00  0.00    +0.253 C 
ATOM     16  C   UNL     1      31.254 -11.507 -20.799  0.00  0.00    +0.114 C 
ATOM     17  C   UNL     1      31.749 -10.344 -22.956  0.00  0.00    +0.114 C 
ENDBRANCH   5   6
BRANCH   2  19
ATOM     18  O   UNL     1      33.228 -21.303 -20.508  0.00  0.00    -0.277 OA
ATOM     19  N   UNL     1      35.005 -19.944 -21.116  0.00  0.00    -0.303 N 
ATOM     20  C   UNL     1      34.401 -20.953 -20.383  0.00  0.00    +0.202 C 
ATOM     21  H   UNL     1      35.951 -19.733 -20.945  0.00  0.00    +0.149 HD
BRANCH  20  22
ATOM     22  C   UNL     1      35.362 -21.618 -19.403  0.00  0.00    +0.017 C 
BRANCH  22  23
ATOM     23  N   UNL     1      36.394 -20.629 -19.087  0.00  0.00    +0.388 N 
ATOM     24  H   UNL     1      36.012 -19.934 -18.445  0.00  0.00    -0.089 HD
ATOM     25  H   UNL     1      36.696 -20.168 -19.945  0.00  0.00    -0.089 HD
ATOM     26  H   UNL     1      37.189 -21.095 -18.651  0.00  0.00    -0.089 HD
ENDBRANCH  22  23
BRANCH  22  27
ATOM     27  C   UNL     1      34.628 -22.036 -18.120  0.00  0.00    +0.013 C 
BRANCH  27  28
ATOM     28  C   UNL     1      35.563 -22.552 -17.052  0.00  0.00    -0.024 C 
ATOM     29  C   UNL     1      36.899 -22.150 -17.038  0.00  0.00    -0.001 C 
ATOM     30  C   UNL     1      35.090 -23.431 -16.077  0.00  0.00    -0.001 C 
ATOM     31  C   UNL     1      37.761 -22.627 -16.052  0.00  0.00    +0.037 C 
ATOM     32  C   UNL     1      35.952 -23.908 -15.090  0.00  0.00    +0.037 C 
ATOM     33  C   UNL     1      37.288 -23.505 -15.077  0.00  0.00    +0.139 C 
BRANCH  33  34
ATOM     34  O   UNL     1      38.129 -23.970 -14.114  0.00  0.00    -0.471 OA
ATOM     35  C   UNL     1      37.657 -23.936 -12.769  0.00  0.00    +0.252 C 
ENDBRANCH  33  34
ENDBRANCH  27  28
ENDBRANCH  22  27
ENDBRANCH  20  22
ENDBRANCH   2  19
BRANCH   3  36
ATOM     36  O   UNL     1      32.676 -18.663 -20.365  0.00  0.00    -0.379 OA
ATOM     37  H   UNL     1      32.221 -17.931 -19.919  0.00  0.00    +0.211 HD
ENDBRANCH   3  36
BRANCH   4  38
ATOM     38  C   UNL     1      34.824 -18.115 -24.359  0.00  0.00    +0.168 C 
BRANCH  38  39
ATOM     39  O   UNL     1      35.374 -16.902 -24.840  0.00  0.00    -0.379 OA
ATOM     40  H   UNL     1      34.709 -16.431 -25.366  0.00  0.00    +0.211 HD
ENDBRANCH  38  39
ENDBRANCH   4  38
TORSDOF 10
ENDMDL
