MODEL 1
REMARK VINA RESULT:     -12.4      0.000      0.000
REMARK  Name = 107971
REMARK  9 active torsions:
REMARK  status: ('A' for Active; 'I' for Inactive)
REMARK    1  A    between atoms: C_3  and  O_20
REMARK    2  A    between atoms: C_10  and  C_12
REMARK    3  A    between atoms: C_17  and  O_18
REMARK    4  A    between atoms: O_20  and  C_26
REMARK    5  A    between atoms: C_22  and  O_27
REMARK    6  A    between atoms: C_23  and  O_29
REMARK    7  A    between atoms: C_24  and  O_31
REMARK    8  A    between atoms: C_25  and  C_33
REMARK    9  A    between atoms: C_33  and  O_34
REMARK                            x       y       z     vdW  Elec       q    Type
REMARK                         _______ _______ _______ _____ _____    ______ ____
ROOT
ATOM      1  O   UNL     1      32.956 -21.311 -19.993  0.00  0.00    -0.450 OA
ATOM      2  O   UNL     1      36.646 -19.665 -20.557  0.00  0.00    -0.286 OA
ATOM      3  C   UNL     1      34.755 -22.974 -17.297  0.00  0.00    +0.144 C 
ATOM      4  C   UNL     1      33.733 -22.580 -18.159  0.00  0.00    +0.075 C 
ATOM      5  C   UNL     1      36.041 -22.453 -17.450  0.00  0.00    +0.037 C 
ATOM      6  C   UNL     1      33.999 -21.662 -19.176  0.00  0.00    +0.151 C 
ATOM      7  C   UNL     1      35.284 -21.140 -19.329  0.00  0.00    +0.074 C 
ATOM      8  C   UNL     1      36.310 -21.534 -18.465  0.00  0.00    +0.009 C 
ATOM      9  C   UNL     1      35.541 -20.169 -20.408  0.00  0.00    +0.202 C 
ATOM     10  C   UNL     1      34.385 -19.831 -21.283  0.00  0.00    +0.077 C 
ATOM     11  C   UNL     1      33.212 -20.420 -21.008  0.00  0.00    +0.183 C 
ENDROOT
BRANCH  10  12
ATOM     12  C   UNL     1      34.514 -18.905 -22.421  0.00  0.00    +0.006 C 
ATOM     13  C   UNL     1      34.593 -17.528 -22.198  0.00  0.00    +0.003 C 
ATOM     14  C   UNL     1      34.557 -19.400 -23.726  0.00  0.00    +0.003 C 
ATOM     15  C   UNL     1      34.715 -16.651 -23.276  0.00  0.00    +0.037 C 
ATOM     16  C   UNL     1      34.678 -18.523 -24.804  0.00  0.00    +0.037 C 
ATOM     17  C   UNL     1      34.757 -17.148 -24.579  0.00  0.00    +0.134 C 
BRANCH  17  18
ATOM     18  O   UNL     1      34.876 -16.292 -25.630  0.00  0.00    -0.506 OA
ATOM     19  H   UNL     1      34.272 -16.343 -26.345  0.00  0.00    +0.292 HD
ENDBRANCH  17  18
ENDBRANCH  10  12
BRANCH   3  20
ATOM     20  O   UNL     1      34.500 -23.872 -16.304  0.00  0.00    -0.450 OA
BRANCH  20  26
ATOM     21  O   UNL     1      36.435 -24.828 -15.418  0.00  0.00    -0.316 OA
ATOM     22  C   UNL     1      35.520 -24.397 -12.729  0.00  0.00    +0.173 C 
ATOM     23  C   UNL     1      36.706 -25.305 -13.056  0.00  0.00    +0.169 C 
ATOM     24  C   UNL     1      34.604 -24.227 -13.941  0.00  0.00    +0.210 C 
ATOM     25  C   UNL     1      37.388 -24.862 -14.354  0.00  0.00    +0.177 C 
ATOM     26  C   UNL     1      35.401 -23.872 -15.196  0.00  0.00    +0.318 C 
BRANCH  22  27
ATOM     27  O   UNL     1      34.788 -24.996 -11.659  0.00  0.00    -0.379 OA
ATOM     28  H   UNL     1      33.997 -24.467 -11.473  0.00  0.00    +0.211 HD
ENDBRANCH  22  27
BRANCH  23  29
ATOM     29  O   UNL     1      37.648 -25.253 -11.988  0.00  0.00    -0.379 OA
ATOM     30  H   UNL     1      37.576 -24.398 -11.535  0.00  0.00    +0.211 HD
ENDBRANCH  23  29
BRANCH  24  31
ATOM     31  O   UNL     1      33.675 -23.173 -13.688  0.00  0.00    -0.377 OA
ATOM     32  H   UNL     1      33.541 -23.083 -12.731  0.00  0.00    +0.211 HD
ENDBRANCH  24  31
BRANCH  25  33
ATOM     33  C   UNL     1      38.502 -25.821 -14.763  0.00  0.00    +0.169 C 
BRANCH  33  34
ATOM     34  O   UNL     1      38.067 -27.146 -14.517  0.00  0.00    -0.379 OA
ATOM     35  H   UNL     1      38.741 -27.616 -14.002  0.00  0.00    +0.211 HD
ENDBRANCH  33  34
ENDBRANCH  25  33
ENDBRANCH  20  26
ENDBRANCH   3  20
TORSDOF 9
ENDMDL
MODEL 2
REMARK VINA RESULT:     -12.0      1.099      1.842
REMARK  Name = 107971
REMARK  9 active torsions:
REMARK  status: ('A' for Active; 'I' for Inactive)
REMARK    1  A    between atoms: C_3  and  O_20
REMARK    2  A    between atoms: C_10  and  C_12
REMARK    3  A    between atoms: C_17  and  O_18
REMARK    4  A    between atoms: O_20  and  C_26
REMARK    5  A    between atoms: C_22  and  O_27
REMARK    6  A    between atoms: C_23  and  O_29
REMARK    7  A    between atoms: C_24  and  O_31
REMARK    8  A    between atoms: C_25  and  C_33
REMARK    9  A    between atoms: C_33  and  O_34
REMARK                            x       y       z     vdW  Elec       q    Type
REMARK                         _______ _______ _______ _____ _____    ______ ____
ROOT
ATOM      1  O   UNL     1      36.340 -21.521 -18.660  0.00  0.00    -0.450 OA
ATOM      2  O   UNL     1      32.738 -20.694 -20.388  0.00  0.00    -0.286 OA
ATOM      3  C   UNL     1      34.189 -23.538 -16.521  0.00  0.00    +0.144 C 
ATOM      4  C   UNL     1      35.322 -22.939 -17.069  0.00  0.00    +0.075 C 
ATOM      5  C   UNL     1      32.929 -23.283 -17.063  0.00  0.00    +0.037 C 
ATOM      6  C   UNL     1      35.192 -22.082 -18.163  0.00  0.00    +0.151 C 
ATOM      7  C   UNL     1      33.933 -21.827 -18.705  0.00  0.00    +0.074 C 
ATOM      8  C   UNL     1      32.796 -22.427 -18.157  0.00  0.00    +0.009 C 
ATOM      9  C   UNL     1      33.820 -20.921 -19.863  0.00  0.00    +0.202 C 
ATOM     10  C   UNL     1      35.088 -20.319 -20.359  0.00  0.00    +0.077 C 
ATOM     11  C   UNL     1      36.220 -20.663 -19.726  0.00  0.00    +0.183 C 
ENDROOT
BRANCH  10  12
ATOM     12  C   UNL     1      35.113 -19.369 -21.483  0.00  0.00    +0.006 C 
ATOM     13  C   UNL     1      35.286 -18.003 -21.244  0.00  0.00    +0.003 C 
ATOM     14  C   UNL     1      34.962 -19.830 -22.793  0.00  0.00    +0.003 C 
ATOM     15  C   UNL     1      35.309 -17.104 -22.310  0.00  0.00    +0.037 C 
ATOM     16  C   UNL     1      34.984 -18.930 -23.859  0.00  0.00    +0.037 C 
ATOM     17  C   UNL     1      35.158 -17.567 -23.617  0.00  0.00    +0.134 C 
BRANCH  17  18
ATOM     18  O   UNL     1      35.180 -16.689 -24.657  0.00  0.00    -0.506 OA
ATOM     19  H   UNL     1      34.776 -15.848 -24.568  0.00  0.00    +0.292 HD
ENDBRANCH  17  18
ENDBRANCH  10  12
BRANCH   3  20
ATOM     20  O   UNL     1      34.312 -24.375 -15.451  0.00  0.00    -0.450 OA
BRANCH  20  26
ATOM     21  O   UNL     1      36.500 -24.687 -14.704  0.00  0.00    -0.316 OA
ATOM     22  C   UNL     1      35.736 -24.172 -11.984  0.00  0.00    +0.173 C 
ATOM     23  C   UNL     1      37.089 -24.780 -12.354  0.00  0.00    +0.169 C 
ATOM     24  C   UNL     1      34.708 -24.394 -13.092  0.00  0.00    +0.210 C 
ATOM     25  C   UNL     1      37.514 -24.343 -13.758  0.00  0.00    +0.177 C 
ATOM     26  C   UNL     1      35.271 -24.007 -14.459  0.00  0.00    +0.318 C 
BRANCH  22  27
ATOM     27  O   UNL     1      35.284 -24.799 -10.783  0.00  0.00    -0.379 OA
ATOM     28  H   UNL     1      35.737 -24.405 -10.021  0.00  0.00    +0.211 HD
ENDBRANCH  22  27
BRANCH  23  29
ATOM     29  O   UNL     1      38.070 -24.356 -11.411  0.00  0.00    -0.379 OA
ATOM     30  H   UNL     1      38.060 -23.388 -11.347  0.00  0.00    +0.211 HD
ENDBRANCH  23  29
BRANCH  24  31
ATOM     31  O   UNL     1      33.557 -23.588 -12.839  0.00  0.00    -0.377 OA
ATOM     32  H   UNL     1      32.904 -24.105 -12.341  0.00  0.00    +0.211 HD
ENDBRANCH  24  31
BRANCH  25  33
ATOM     33  C   UNL     1      38.805 -25.029 -14.196  0.00  0.00    +0.169 C 
BRANCH  33  34
ATOM     34  O   UNL     1      39.000 -26.177 -13.390  0.00  0.00    -0.379 OA
ATOM     35  H   UNL     1      39.090 -26.958 -13.958  0.00  0.00    +0.211 HD
ENDBRANCH  33  34
ENDBRANCH  25  33
ENDBRANCH  20  26
ENDBRANCH   3  20
TORSDOF 9
ENDMDL
MODEL 3
REMARK VINA RESULT:     -11.5      1.329      3.106
REMARK  Name = 107971
REMARK  9 active torsions:
REMARK  status: ('A' for Active; 'I' for Inactive)
REMARK    1  A    between atoms: C_3  and  O_20
REMARK    2  A    between atoms: C_10  and  C_12
REMARK    3  A    between atoms: C_17  and  O_18
REMARK    4  A    between atoms: O_20  and  C_26
REMARK    5  A    between atoms: C_22  and  O_27
REMARK    6  A    between atoms: C_23  and  O_29
REMARK    7  A    between atoms: C_24  and  O_31
REMARK    8  A    between atoms: C_25  and  C_33
REMARK    9  A    between atoms: C_33  and  O_34
REMARK                            x       y       z     vdW  Elec       q    Type
REMARK                         _______ _______ _______ _____ _____    ______ ____
ROOT
ATOM      1  O   UNL     1      37.030 -19.683 -20.268  0.00  0.00    -0.450 OA
ATOM      2  O   UNL     1      33.191 -20.033 -21.602  0.00  0.00    -0.286 OA
ATOM      3  C   UNL     1      35.798 -22.128 -17.865  0.00  0.00    +0.144 C 
ATOM      4  C   UNL     1      36.641 -21.253 -18.547  0.00  0.00    +0.075 C 
ATOM      5  C   UNL     1      34.471 -22.280 -18.269  0.00  0.00    +0.037 C 
ATOM      6  C   UNL     1      36.155 -20.529 -19.636  0.00  0.00    +0.151 C 
ATOM      7  C   UNL     1      34.829 -20.680 -20.040  0.00  0.00    +0.074 C 
ATOM      8  C   UNL     1      33.982 -21.557 -19.358  0.00  0.00    +0.009 C 
ATOM      9  C   UNL     1      34.339 -19.907 -21.196  0.00  0.00    +0.202 C 
ATOM     10  C   UNL     1      35.316 -18.987 -21.841  0.00  0.00    +0.077 C 
ATOM     11  C   UNL     1      36.556 -18.953 -21.331  0.00  0.00    +0.183 C 
ENDROOT
BRANCH  10  12
ATOM     12  C   UNL     1      34.946 -18.130 -22.979  0.00  0.00    +0.006 C 
ATOM     13  C   UNL     1      34.838 -16.748 -22.810  0.00  0.00    +0.003 C 
ATOM     14  C   UNL     1      34.701 -18.697 -24.232  0.00  0.00    +0.003 C 
ATOM     15  C   UNL     1      34.487 -15.937 -23.890  0.00  0.00    +0.037 C 
ATOM     16  C   UNL     1      34.349 -17.886 -25.311  0.00  0.00    +0.037 C 
ATOM     17  C   UNL     1      34.242 -16.506 -25.140  0.00  0.00    +0.134 C 
BRANCH  17  18
ATOM     18  O   UNL     1      33.900 -15.714 -26.192  0.00  0.00    -0.506 OA
ATOM     19  H   UNL     1      34.526 -15.533 -26.865  0.00  0.00    +0.292 HD
ENDBRANCH  17  18
ENDBRANCH  10  12
BRANCH   3  20
ATOM     20  O   UNL     1      36.269 -22.836 -16.799  0.00  0.00    -0.450 OA
BRANCH  20  26
ATOM     21  O   UNL     1      34.240 -22.881 -15.648  0.00  0.00    -0.316 OA
ATOM     22  C   UNL     1      35.080 -25.137 -14.081  0.00  0.00    +0.173 C 
ATOM     23  C   UNL     1      33.847 -24.305 -13.725  0.00  0.00    +0.169 C 
ATOM     24  C   UNL     1      36.051 -24.341 -14.952  0.00  0.00    +0.210 C 
ATOM     25  C   UNL     1      33.248 -23.661 -14.978  0.00  0.00    +0.177 C 
ATOM     26  C   UNL     1      35.328 -23.670 -16.120  0.00  0.00    +0.318 C 
BRANCH  22  27
ATOM     27  O   UNL     1      35.728 -25.508 -12.863  0.00  0.00    -0.379 OA
ATOM     28  H   UNL     1      36.023 -26.431 -12.922  0.00  0.00    +0.211 HD
ENDBRANCH  22  27
BRANCH  23  29
ATOM     29  O   UNL     1      32.871 -25.146 -13.115  0.00  0.00    -0.379 OA
ATOM     30  H   UNL     1      33.144 -25.352 -12.208  0.00  0.00    +0.211 HD
ENDBRANCH  23  29
BRANCH  24  31
ATOM     31  O   UNL     1      37.040 -25.222 -15.485  0.00  0.00    -0.377 OA
ATOM     32  H   UNL     1      36.606 -25.998 -15.874  0.00  0.00    +0.211 HD
ENDBRANCH  24  31
BRANCH  25  33
ATOM     33  C   UNL     1      32.087 -22.732 -14.634  0.00  0.00    +0.169 C 
BRANCH  33  34
ATOM     34  O   UNL     1      32.045 -22.565 -13.229  0.00  0.00    -0.379 OA
ATOM     35  H   UNL     1      32.259 -21.645 -13.007  0.00  0.00    +0.211 HD
ENDBRANCH  33  34
ENDBRANCH  25  33
ENDBRANCH  20  26
ENDBRANCH   3  20
TORSDOF 9
ENDMDL
MODEL 4
REMARK VINA RESULT:     -11.1      1.570      2.481
REMARK  Name = 107971
REMARK  9 active torsions:
REMARK  status: ('A' for Active; 'I' for Inactive)
REMARK    1  A    between atoms: C_3  and  O_20
REMARK    2  A    between atoms: C_10  and  C_12
REMARK    3  A    between atoms: C_17  and  O_18
REMARK    4  A    between atoms: O_20  and  C_26
REMARK    5  A    between atoms: C_22  and  O_27
REMARK    6  A    between atoms: C_23  and  O_29
REMARK    7  A    between atoms: C_24  and  O_31
REMARK    8  A    between atoms: C_25  and  C_33
REMARK    9  A    between atoms: C_33  and  O_34
REMARK                            x       y       z     vdW  Elec       q    Type
REMARK                         _______ _______ _______ _____ _____    ______ ____
ROOT
ATOM      1  O   UNL     1      36.431 -20.342 -20.044  0.00  0.00    -0.450 OA
ATOM      2  O   UNL     1      32.580 -19.672 -21.214  0.00  0.00    -0.286 OA
ATOM      3  C   UNL     1      34.745 -22.781 -17.927  0.00  0.00    +0.144 C 
ATOM      4  C   UNL     1      35.745 -22.019 -18.530  0.00  0.00    +0.075 C 
ATOM      5  C   UNL     1      33.409 -22.587 -18.279  0.00  0.00    +0.037 C 
ATOM      6  C   UNL     1      35.406 -21.061 -19.486  0.00  0.00    +0.151 C 
ATOM      7  C   UNL     1      34.070 -20.868 -19.838  0.00  0.00    +0.074 C 
ATOM      8  C   UNL     1      33.067 -21.631 -19.236  0.00  0.00    +0.009 C 
ATOM      9  C   UNL     1      33.736 -19.853 -20.854  0.00  0.00    +0.202 C 
ATOM     10  C   UNL     1      34.877 -19.081 -21.420  0.00  0.00    +0.077 C 
ATOM     11  C   UNL     1      36.105 -19.385 -20.975  0.00  0.00    +0.183 C 
ENDROOT
BRANCH  10  12
ATOM     12  C   UNL     1      34.678 -18.013 -22.414  0.00  0.00    +0.006 C 
ATOM     13  C   UNL     1      34.765 -18.300 -23.779  0.00  0.00    +0.003 C 
ATOM     14  C   UNL     1      34.402 -16.709 -21.996  0.00  0.00    +0.003 C 
ATOM     15  C   UNL     1      34.577 -17.288 -24.719  0.00  0.00    +0.037 C 
ATOM     16  C   UNL     1      34.215 -15.697 -22.937  0.00  0.00    +0.037 C 
ATOM     17  C   UNL     1      34.302 -15.986 -24.299  0.00  0.00    +0.134 C 
BRANCH  17  18
ATOM     18  O   UNL     1      34.119 -14.998 -25.217  0.00  0.00    -0.506 OA
ATOM     19  H   UNL     1      34.753 -14.314 -25.300  0.00  0.00    +0.292 HD
ENDBRANCH  17  18
ENDBRANCH  10  12
BRANCH   3  20
ATOM     20  O   UNL     1      35.073 -23.716 -16.991  0.00  0.00    -0.450 OA
BRANCH  20  26
ATOM     21  O   UNL     1      36.159 -23.541 -14.934  0.00  0.00    -0.316 OA
ATOM     22  C   UNL     1      33.699 -23.930 -13.503  0.00  0.00    +0.173 C 
ATOM     23  C   UNL     1      35.065 -24.010 -12.822  0.00  0.00    +0.169 C 
ATOM     24  C   UNL     1      33.817 -24.175 -15.008  0.00  0.00    +0.210 C 
ATOM     25  C   UNL     1      36.092 -23.148 -13.561  0.00  0.00    +0.177 C 
ATOM     26  C   UNL     1      34.930 -23.329 -15.624  0.00  0.00    +0.318 C 
BRANCH  22  27
ATOM     27  O   UNL     1      32.857 -24.928 -12.924  0.00  0.00    -0.379 OA
ATOM     28  H   UNL     1      32.145 -24.500 -12.423  0.00  0.00    +0.211 HD
ENDBRANCH  22  27
BRANCH  23  29
ATOM     29  O   UNL     1      34.948 -23.552 -11.477  0.00  0.00    -0.379 OA
ATOM     30  H   UNL     1      34.361 -22.781 -11.448  0.00  0.00    +0.211 HD
ENDBRANCH  23  29
BRANCH  24  31
ATOM     31  O   UNL     1      32.587 -23.826 -15.642  0.00  0.00    -0.377 OA
ATOM     32  H   UNL     1      32.148 -23.127 -15.133  0.00  0.00    +0.211 HD
ENDBRANCH  24  31
BRANCH  25  33
ATOM     33  C   UNL     1      37.490 -23.303 -12.969  0.00  0.00    +0.169 C 
BRANCH  33  34
ATOM     34  O   UNL     1      37.619 -22.407 -11.880  0.00  0.00    -0.379 OA
ATOM     35  H   UNL     1      38.538 -22.403 -11.572  0.00  0.00    +0.211 HD
ENDBRANCH  33  34
ENDBRANCH  25  33
ENDBRANCH  20  26
ENDBRANCH   3  20
TORSDOF 9
ENDMDL
MODEL 5
REMARK VINA RESULT:     -11.1      1.802     10.280
REMARK  Name = 107971
REMARK  9 active torsions:
REMARK  status: ('A' for Active; 'I' for Inactive)
REMARK    1  A    between atoms: C_3  and  O_20
REMARK    2  A    between atoms: C_10  and  C_12
REMARK    3  A    between atoms: C_17  and  O_18
REMARK    4  A    between atoms: O_20  and  C_26
REMARK    5  A    between atoms: C_22  and  O_27
REMARK    6  A    between atoms: C_23  and  O_29
REMARK    7  A    between atoms: C_24  and  O_31
REMARK    8  A    between atoms: C_25  and  C_33
REMARK    9  A    between atoms: C_33  and  O_34
REMARK                            x       y       z     vdW  Elec       q    Type
REMARK                         _______ _______ _______ _____ _____    ______ ____
ROOT
ATOM      1  O   UNL     1      33.434 -22.725 -17.825  0.00  0.00    -0.450 OA
ATOM      2  O   UNL     1      37.377 -22.384 -16.832  0.00  0.00    -0.286 OA
ATOM      3  C   UNL     1      34.541 -20.585 -20.557  0.00  0.00    +0.144 C 
ATOM      4  C   UNL     1      33.731 -21.361 -19.729  0.00  0.00    +0.075 C 
ATOM      5  C   UNL     1      35.895 -20.423 -20.261  0.00  0.00    +0.037 C 
ATOM      6  C   UNL     1      34.278 -21.975 -18.602  0.00  0.00    +0.151 C 
ATOM      7  C   UNL     1      35.632 -21.813 -18.306  0.00  0.00    +0.074 C 
ATOM      8  C   UNL     1      36.445 -21.036 -19.134  0.00  0.00    +0.009 C 
ATOM      9  C   UNL     1      36.189 -22.475 -17.112  0.00  0.00    +0.202 C 
ATOM     10  C   UNL     1      35.234 -23.264 -16.285  0.00  0.00    +0.077 C 
ATOM     11  C   UNL     1      33.961 -23.321 -16.704  0.00  0.00    +0.183 C 
ENDROOT
BRANCH  10  12
ATOM     12  C   UNL     1      35.651 -23.943 -15.047  0.00  0.00    +0.006 C 
ATOM     13  C   UNL     1      36.324 -25.166 -15.110  0.00  0.00    +0.003 C 
ATOM     14  C   UNL     1      35.375 -23.366 -13.805  0.00  0.00    +0.003 C 
ATOM     15  C   UNL     1      36.718 -25.808 -13.937  0.00  0.00    +0.037 C 
ATOM     16  C   UNL     1      35.770 -24.010 -12.632  0.00  0.00    +0.037 C 
ATOM     17  C   UNL     1      36.441 -25.231 -12.698  0.00  0.00    +0.134 C 
BRANCH  17  18
ATOM     18  O   UNL     1      36.826 -25.858 -11.553  0.00  0.00    -0.506 OA
ATOM     19  H   UNL     1      36.190 -26.299 -11.025  0.00  0.00    +0.292 HD
ENDBRANCH  17  18
ENDBRANCH  10  12
BRANCH   3  20
ATOM     20  O   UNL     1      34.010 -19.982 -21.658  0.00  0.00    -0.450 OA
BRANCH  20  26
ATOM     21  O   UNL     1      34.027 -17.669 -21.350  0.00  0.00    -0.316 OA
ATOM     22  C   UNL     1      34.862 -17.227 -24.063  0.00  0.00    +0.173 C 
ATOM     23  C   UNL     1      34.341 -16.100 -23.172  0.00  0.00    +0.169 C 
ATOM     24  C   UNL     1      34.379 -18.591 -23.569  0.00  0.00    +0.210 C 
ATOM     25  C   UNL     1      34.604 -16.408 -21.696  0.00  0.00    +0.177 C 
ATOM     26  C   UNL     1      34.612 -18.753 -22.067  0.00  0.00    +0.318 C 
BRANCH  22  27
ATOM     27  O   UNL     1      34.378 -17.003 -25.388  0.00  0.00    -0.379 OA
ATOM     28  H   UNL     1      35.125 -16.993 -26.008  0.00  0.00    +0.211 HD
ENDBRANCH  22  27
BRANCH  23  29
ATOM     29  O   UNL     1      34.993 -14.882 -23.522  0.00  0.00    -0.379 OA
ATOM     30  H   UNL     1      34.457 -14.404 -24.173  0.00  0.00    +0.211 HD
ENDBRANCH  23  29
BRANCH  24  31
ATOM     31  O   UNL     1      35.097 -19.622 -24.247  0.00  0.00    -0.377 OA
ATOM     32  H   UNL     1      35.386 -19.298 -25.114  0.00  0.00    +0.211 HD
ENDBRANCH  24  31
BRANCH  25  33
ATOM     33  C   UNL     1      33.990 -15.354 -20.780  0.00  0.00    +0.169 C 
BRANCH  33  34
ATOM     34  O   UNL     1      32.836 -14.828 -21.411  0.00  0.00    -0.379 OA
ATOM     35  H   UNL     1      32.068 -15.376 -21.187  0.00  0.00    +0.211 HD
ENDBRANCH  33  34
ENDBRANCH  25  33
ENDBRANCH  20  26
ENDBRANCH   3  20
TORSDOF 9
ENDMDL
MODEL 6
REMARK VINA RESULT:     -11.0      1.414      1.955
REMARK  Name = 107971
REMARK  9 active torsions:
REMARK  status: ('A' for Active; 'I' for Inactive)
REMARK    1  A    between atoms: C_3  and  O_20
REMARK    2  A    between atoms: C_10  and  C_12
REMARK    3  A    between atoms: C_17  and  O_18
REMARK    4  A    between atoms: O_20  and  C_26
REMARK    5  A    between atoms: C_22  and  O_27
REMARK    6  A    between atoms: C_23  and  O_29
REMARK    7  A    between atoms: C_24  and  O_31
REMARK    8  A    between atoms: C_25  and  C_33
REMARK    9  A    between atoms: C_33  and  O_34
REMARK                            x       y       z     vdW  Elec       q    Type
REMARK                         _______ _______ _______ _____ _____    ______ ____
ROOT
ATOM      1  O   UNL     1      32.847 -20.791 -20.531  0.00  0.00    -0.450 OA
ATOM      2  O   UNL     1      36.524 -19.118 -21.104  0.00  0.00    -0.286 OA
ATOM      3  C   UNL     1      34.748 -22.710 -18.086  0.00  0.00    +0.144 C 
ATOM      4  C   UNL     1      33.693 -22.230 -18.861  0.00  0.00    +0.075 C 
ATOM      5  C   UNL     1      36.031 -22.183 -18.247  0.00  0.00    +0.037 C 
ATOM      6  C   UNL     1      33.922 -21.222 -19.798  0.00  0.00    +0.151 C 
ATOM      7  C   UNL     1      35.204 -20.696 -19.959  0.00  0.00    +0.074 C 
ATOM      8  C   UNL     1      36.263 -21.175 -19.183  0.00  0.00    +0.009 C 
ATOM      9  C   UNL     1      35.422 -19.628 -20.952  0.00  0.00    +0.202 C 
ATOM     10  C   UNL     1      34.232 -19.203 -21.739  0.00  0.00    +0.077 C 
ATOM     11  C   UNL     1      33.066 -19.810 -21.467  0.00  0.00    +0.183 C 
ENDROOT
BRANCH  10  12
ATOM     12  C   UNL     1      34.319 -18.175 -22.789  0.00  0.00    +0.006 C 
ATOM     13  C   UNL     1      34.489 -18.548 -24.125  0.00  0.00    +0.003 C 
ATOM     14  C   UNL     1      34.232 -16.822 -22.453  0.00  0.00    +0.003 C 
ATOM     15  C   UNL     1      34.571 -17.573 -25.118  0.00  0.00    +0.037 C 
ATOM     16  C   UNL     1      34.315 -15.847 -23.447  0.00  0.00    +0.037 C 
ATOM     17  C   UNL     1      34.485 -16.222 -24.780  0.00  0.00    +0.134 C 
BRANCH  17  18
ATOM     18  O   UNL     1      34.565 -15.271 -25.750  0.00  0.00    -0.506 OA
ATOM     19  H   UNL     1      33.897 -15.211 -26.403  0.00  0.00    +0.292 HD
ENDBRANCH  17  18
ENDBRANCH  10  12
BRANCH   3  20
ATOM     20  O   UNL     1      34.528 -23.696 -17.171  0.00  0.00    -0.450 OA
BRANCH  20  26
ATOM     21  O   UNL     1      35.777 -23.728 -15.201  0.00  0.00    -0.316 OA
ATOM     22  C   UNL     1      33.399 -23.729 -13.591  0.00  0.00    +0.173 C 
ATOM     23  C   UNL     1      34.779 -24.040 -13.013  0.00  0.00    +0.169 C 
ATOM     24  C   UNL     1      33.363 -23.970 -15.100  0.00  0.00    +0.210 C 
ATOM     25  C   UNL     1      35.876 -23.348 -13.827  0.00  0.00    +0.177 C 
ATOM     26  C   UNL     1      34.552 -23.308 -15.797  0.00  0.00    +0.318 C 
BRANCH  22  27
ATOM     27  O   UNL     1      32.449 -24.583 -12.951  0.00  0.00    -0.379 OA
ATOM     28  H   UNL     1      31.551 -24.310 -13.195  0.00  0.00    +0.211 HD
ENDBRANCH  22  27
BRANCH  23  29
ATOM     29  O   UNL     1      34.838 -23.587 -11.663  0.00  0.00    -0.379 OA
ATOM     30  H   UNL     1      34.193 -24.077 -11.130  0.00  0.00    +0.211 HD
ENDBRANCH  23  29
BRANCH  24  31
ATOM     31  O   UNL     1      32.164 -23.416 -15.640  0.00  0.00    -0.377 OA
ATOM     32  H   UNL     1      31.927 -22.615 -15.147  0.00  0.00    +0.211 HD
ENDBRANCH  24  31
BRANCH  25  33
ATOM     33  C   UNL     1      37.269 -23.737 -13.341  0.00  0.00    +0.169 C 
BRANCH  33  34
ATOM     34  O   UNL     1      37.676 -22.809 -12.352  0.00  0.00    -0.379 OA
ATOM     35  H   UNL     1      37.014 -22.781 -11.644  0.00  0.00    +0.211 HD
ENDBRANCH  33  34
ENDBRANCH  25  33
ENDBRANCH  20  26
ENDBRANCH   3  20
TORSDOF 9
ENDMDL
MODEL 7
REMARK VINA RESULT:     -10.7      4.826     12.721
REMARK  Name = 107971
REMARK  9 active torsions:
REMARK  status: ('A' for Active; 'I' for Inactive)
REMARK    1  A    between atoms: C_3  and  O_20
REMARK    2  A    between atoms: C_10  and  C_12
REMARK    3  A    between atoms: C_17  and  O_18
REMARK    4  A    between atoms: O_20  and  C_26
REMARK    5  A    between atoms: C_22  and  O_27
REMARK    6  A    between atoms: C_23  and  O_29
REMARK    7  A    between atoms: C_24  and  O_31
REMARK    8  A    between atoms: C_25  and  C_33
REMARK    9  A    between atoms: C_33  and  O_34
REMARK                            x       y       z     vdW  Elec       q    Type
REMARK                         _______ _______ _______ _____ _____    ______ ____
ROOT
ATOM      1  O   UNL     1      34.519 -15.335 -21.342  0.00  0.00    -0.450 OA
ATOM      2  O   UNL     1      34.200 -18.597 -23.772  0.00  0.00    -0.286 OA
ATOM      3  C   UNL     1      33.945 -13.644 -24.517  0.00  0.00    +0.144 C 
ATOM      4  C   UNL     1      34.173 -13.869 -23.160  0.00  0.00    +0.075 C 
ATOM      5  C   UNL     1      33.838 -14.721 -25.398  0.00  0.00    +0.037 C 
ATOM      6  C   UNL     1      34.295 -15.175 -22.685  0.00  0.00    +0.151 C 
ATOM      7  C   UNL     1      34.189 -16.252 -23.565  0.00  0.00    +0.074 C 
ATOM      8  C   UNL     1      33.960 -16.029 -24.925  0.00  0.00    +0.009 C 
ATOM      9  C   UNL     1      34.317 -17.624 -23.039  0.00  0.00    +0.202 C 
ATOM     10  C   UNL     1      34.579 -17.752 -21.579  0.00  0.00    +0.077 C 
ATOM     11  C   UNL     1      34.657 -16.618 -20.867  0.00  0.00    +0.183 C 
ENDROOT
BRANCH  10  12
ATOM     12  C   UNL     1      34.766 -19.061 -20.933  0.00  0.00    +0.006 C 
ATOM     13  C   UNL     1      36.053 -19.549 -20.694  0.00  0.00    +0.003 C 
ATOM     14  C   UNL     1      33.656 -19.821 -20.556  0.00  0.00    +0.003 C 
ATOM     15  C   UNL     1      36.229 -20.789 -20.082  0.00  0.00    +0.037 C 
ATOM     16  C   UNL     1      33.833 -21.062 -19.944  0.00  0.00    +0.037 C 
ATOM     17  C   UNL     1      35.119 -21.547 -19.707  0.00  0.00    +0.134 C 
BRANCH  17  18
ATOM     18  O   UNL     1      35.291 -22.757 -19.110  0.00  0.00    -0.506 OA
ATOM     19  H   UNL     1      36.144 -23.145 -19.076  0.00  0.00    +0.292 HD
ENDBRANCH  17  18
ENDBRANCH  10  12
BRANCH   3  20
ATOM     20  O   UNL     1      33.826 -12.369 -24.985  0.00  0.00    -0.450 OA
BRANCH  20  26
ATOM     21  O   UNL     1      32.581 -11.083 -23.490  0.00  0.00    -0.316 OA
ATOM     22  C   UNL     1      34.378  -8.860 -23.770  0.00  0.00    +0.173 C 
ATOM     23  C   UNL     1      33.008  -8.728 -23.103  0.00  0.00    +0.169 C 
ATOM     24  C   UNL     1      34.425 -10.071 -24.702  0.00  0.00    +0.210 C 
ATOM     25  C   UNL     1      32.572 -10.062 -22.491  0.00  0.00    +0.177 C 
ATOM     26  C   UNL     1      33.884 -11.324 -24.014  0.00  0.00    +0.318 C 
BRANCH  22  27
ATOM     27  O   UNL     1      34.619  -7.671 -24.523  0.00  0.00    -0.379 OA
ATOM     28  H   UNL     1      33.960  -6.999 -24.287  0.00  0.00    +0.211 HD
ENDBRANCH  22  27
BRANCH  23  29
ATOM     29  O   UNL     1      33.076  -7.739 -22.079  0.00  0.00    -0.379 OA
ATOM     30  H   UNL     1      32.398  -7.064 -22.237  0.00  0.00    +0.211 HD
ENDBRANCH  23  29
BRANCH  24  31
ATOM     31  O   UNL     1      35.776 -10.320 -25.087  0.00  0.00    -0.377 OA
ATOM     32  H   UNL     1      35.802 -11.055 -25.720  0.00  0.00    +0.211 HD
ENDBRANCH  24  31
BRANCH  25  33
ATOM     33  C   UNL     1      31.158  -9.986 -21.921  0.00  0.00    +0.169 C 
BRANCH  33  34
ATOM     34  O   UNL     1      30.573 -11.273 -21.999  0.00  0.00    -0.379 OA
ATOM     35  H   UNL     1      30.753 -11.658 -22.870  0.00  0.00    +0.211 HD
ENDBRANCH  33  34
ENDBRANCH  25  33
ENDBRANCH  20  26
ENDBRANCH   3  20
TORSDOF 9
ENDMDL
MODEL 8
REMARK VINA RESULT:     -10.4      1.270      2.433
REMARK  Name = 107971
REMARK  9 active torsions:
REMARK  status: ('A' for Active; 'I' for Inactive)
REMARK    1  A    between atoms: C_3  and  O_20
REMARK    2  A    between atoms: C_10  and  C_12
REMARK    3  A    between atoms: C_17  and  O_18
REMARK    4  A    between atoms: O_20  and  C_26
REMARK    5  A    between atoms: C_22  and  O_27
REMARK    6  A    between atoms: C_23  and  O_29
REMARK    7  A    between atoms: C_24  and  O_31
REMARK    8  A    between atoms: C_25  and  C_33
REMARK    9  A    between atoms: C_33  and  O_34
REMARK                            x       y       z     vdW  Elec       q    Type
REMARK                         _______ _______ _______ _____ _____    ______ ____
ROOT
ATOM      1  O   UNL     1      32.999 -21.856 -19.236  0.00  0.00    -0.450 OA
ATOM      2  O   UNL     1      36.717 -20.199 -19.513  0.00  0.00    -0.286 OA
ATOM      3  C   UNL     1      34.612 -23.573 -16.457  0.00  0.00    +0.144 C 
ATOM      4  C   UNL     1      33.651 -23.161 -17.379  0.00  0.00    +0.075 C 
ATOM      5  C   UNL     1      35.904 -23.049 -16.511  0.00  0.00    +0.037 C 
ATOM      6  C   UNL     1      33.985 -22.223 -18.357  0.00  0.00    +0.151 C 
ATOM      7  C   UNL     1      35.276 -21.699 -18.410  0.00  0.00    +0.074 C 
ATOM      8  C   UNL     1      36.241 -22.110 -17.487  0.00  0.00    +0.009 C 
ATOM      9  C   UNL     1      35.605 -20.706 -19.450  0.00  0.00    +0.202 C 
ATOM     10  C   UNL     1      34.511 -20.350 -20.396  0.00  0.00    +0.077 C 
ATOM     11  C   UNL     1      33.323 -20.945 -20.212  0.00  0.00    +0.183 C 
ENDROOT
BRANCH  10  12
ATOM     12  C   UNL     1      34.717 -19.401 -21.502  0.00  0.00    +0.006 C 
ATOM     13  C   UNL     1      34.873 -19.871 -22.809  0.00  0.00    +0.003 C 
ATOM     14  C   UNL     1      34.755 -18.028 -21.249  0.00  0.00    +0.003 C 
ATOM     15  C   UNL     1      35.067 -18.971 -23.856  0.00  0.00    +0.037 C 
ATOM     16  C   UNL     1      34.951 -17.129 -22.297  0.00  0.00    +0.037 C 
ATOM     17  C   UNL     1      35.107 -17.600 -23.601  0.00  0.00    +0.134 C 
BRANCH  17  18
ATOM     18  O   UNL     1      35.297 -16.722 -24.624  0.00  0.00    -0.506 OA
ATOM     19  H   UNL     1      36.105 -16.723 -25.097  0.00  0.00    +0.292 HD
ENDBRANCH  17  18
ENDBRANCH  10  12
BRANCH   3  20
ATOM     20  O   UNL     1      34.290 -24.490 -15.502  0.00  0.00    -0.450 OA
BRANCH  20  26
ATOM     21  O   UNL     1      35.816 -23.701 -13.924  0.00  0.00    -0.316 OA
ATOM     22  C   UNL     1      37.666 -25.813 -14.529  0.00  0.00    +0.173 C 
ATOM     23  C   UNL     1      38.062 -24.588 -13.704  0.00  0.00    +0.169 C 
ATOM     24  C   UNL     1      36.446 -25.521 -15.403  0.00  0.00    +0.210 C 
ATOM     25  C   UNL     1      36.845 -24.005 -12.980  0.00  0.00    +0.177 C 
ATOM     26  C   UNL     1      35.329 -24.860 -14.595  0.00  0.00    +0.318 C 
BRANCH  22  27
ATOM     27  O   UNL     1      38.774 -26.162 -15.361  0.00  0.00    -0.379 OA
ATOM     28  H   UNL     1      38.558 -26.960 -15.869  0.00  0.00    +0.211 HD
ENDBRANCH  22  27
BRANCH  23  29
ATOM     29  O   UNL     1      39.045 -24.965 -12.744  0.00  0.00    -0.379 OA
ATOM     30  H   UNL     1      38.931 -25.900 -12.514  0.00  0.00    +0.211 HD
ENDBRANCH  23  29
BRANCH  24  31
ATOM     31  O   UNL     1      35.945 -26.744 -15.941  0.00  0.00    -0.377 OA
ATOM     32  H   UNL     1      36.663 -27.395 -15.987  0.00  0.00    +0.211 HD
ENDBRANCH  24  31
BRANCH  25  33
ATOM     33  C   UNL     1      37.192 -22.715 -12.244  0.00  0.00    +0.169 C 
BRANCH  33  34
ATOM     34  O   UNL     1      37.523 -23.036 -10.905  0.00  0.00    -0.379 OA
ATOM     35  H   UNL     1      37.749 -22.224 -10.425  0.00  0.00    +0.211 HD
ENDBRANCH  33  34
ENDBRANCH  25  33
ENDBRANCH  20  26
ENDBRANCH   3  20
TORSDOF 9
ENDMDL
MODEL 9
REMARK VINA RESULT:     -10.3      1.868      3.559
REMARK  Name = 107971
REMARK  9 active torsions:
REMARK  status: ('A' for Active; 'I' for Inactive)
REMARK    1  A    between atoms: C_3  and  O_20
REMARK    2  A    between atoms: C_10  and  C_12
REMARK    3  A    between atoms: C_17  and  O_18
REMARK    4  A    between atoms: O_20  and  C_26
REMARK    5  A    between atoms: C_22  and  O_27
REMARK    6  A    between atoms: C_23  and  O_29
REMARK    7  A    between atoms: C_24  and  O_31
REMARK    8  A    between atoms: C_25  and  C_33
REMARK    9  A    between atoms: C_33  and  O_34
REMARK                            x       y       z     vdW  Elec       q    Type
REMARK                         _______ _______ _______ _____ _____    ______ ____
ROOT
ATOM      1  O   UNL     1      33.356 -21.099 -19.968  0.00  0.00    -0.450 OA
ATOM      2  O   UNL     1      36.905 -19.327 -20.921  0.00  0.00    -0.286 OA
ATOM      3  C   UNL     1      35.451 -22.550 -17.364  0.00  0.00    +0.144 C 
ATOM      4  C   UNL     1      34.343 -22.242 -18.152  0.00  0.00    +0.075 C 
ATOM      5  C   UNL     1      36.694 -21.982 -17.650  0.00  0.00    +0.037 C 
ATOM      6  C   UNL     1      34.480 -21.364 -19.228  0.00  0.00    +0.151 C 
ATOM      7  C   UNL     1      35.721 -20.797 -19.514  0.00  0.00    +0.074 C 
ATOM      8  C   UNL     1      36.833 -21.104 -18.726  0.00  0.00    +0.009 C 
ATOM      9  C   UNL     1      35.841 -19.869 -20.654  0.00  0.00    +0.202 C 
ATOM     10  C   UNL     1      34.602 -19.624 -21.442  0.00  0.00    +0.077 C 
ATOM     11  C   UNL     1      33.485 -20.249 -21.040  0.00  0.00    +0.183 C 
ENDROOT
BRANCH  10  12
ATOM     12  C   UNL     1      34.591 -18.750 -22.626  0.00  0.00    +0.006 C 
ATOM     13  C   UNL     1      34.595 -19.305 -23.908  0.00  0.00    +0.003 C 
ATOM     14  C   UNL     1      34.577 -17.361 -22.472  0.00  0.00    +0.003 C 
ATOM     15  C   UNL     1      34.585 -18.476 -25.029  0.00  0.00    +0.037 C 
ATOM     16  C   UNL     1      34.569 -16.533 -23.594  0.00  0.00    +0.037 C 
ATOM     17  C   UNL     1      34.572 -17.090 -24.873  0.00  0.00    +0.134 C 
BRANCH  17  18
ATOM     18  O   UNL     1      34.563 -16.281 -25.968  0.00  0.00    -0.506 OA
ATOM     19  H   UNL     1      34.597 -15.351 -25.862  0.00  0.00    +0.292 HD
ENDBRANCH  17  18
ENDBRANCH  10  12
BRANCH   3  20
ATOM     20  O   UNL     1      35.322 -23.408 -16.313  0.00  0.00    -0.450 OA
BRANCH  20  26
ATOM     21  O   UNL     1      33.024 -23.010 -16.383  0.00  0.00    -0.316 OA
ATOM     22  C   UNL     1      32.538 -24.949 -14.320  0.00  0.00    +0.173 C 
ATOM     23  C   UNL     1      31.475 -23.946 -14.769  0.00  0.00    +0.169 C 
ATOM     24  C   UNL     1      33.944 -24.455 -14.662  0.00  0.00    +0.210 C 
ATOM     25  C   UNL     1      31.702 -23.530 -16.225  0.00  0.00    +0.177 C 
ATOM     26  C   UNL     1      34.030 -23.983 -16.113  0.00  0.00    +0.318 C 
BRANCH  22  27
ATOM     27  O   UNL     1      32.422 -25.112 -12.906  0.00  0.00    -0.379 OA
ATOM     28  H   UNL     1      31.655 -24.612 -12.584  0.00  0.00    +0.211 HD
ENDBRANCH  22  27
BRANCH  23  29
ATOM     29  O   UNL     1      30.185 -24.540 -14.645  0.00  0.00    -0.379 OA
ATOM     30  H   UNL     1      29.891 -24.484 -13.723  0.00  0.00    +0.211 HD
ENDBRANCH  23  29
BRANCH  24  31
ATOM     31  O   UNL     1      34.877 -25.520 -14.482  0.00  0.00    -0.377 OA
ATOM     32  H   UNL     1      35.719 -25.162 -14.162  0.00  0.00    +0.211 HD
ENDBRANCH  24  31
BRANCH  25  33
ATOM     33  C   UNL     1      30.725 -22.443 -16.660  0.00  0.00    +0.169 C 
BRANCH  33  34
ATOM     34  O   UNL     1      29.475 -23.047 -16.940  0.00  0.00    -0.379 OA
ATOM     35  H   UNL     1      29.083 -23.374 -16.115  0.00  0.00    +0.211 HD
ENDBRANCH  33  34
ENDBRANCH  25  33
ENDBRANCH  20  26
ENDBRANCH   3  20
TORSDOF 9
ENDMDL
