MODEL 1
REMARK VINA RESULT:      -5.9      0.000      0.000
REMARK  Name = 4635105
REMARK  1 active torsions:
REMARK  status: ('A' for Active; 'I' for Inactive)
REMARK    1  A    between atoms: N_3  and  C_6
REMARK                            x       y       z     vdW  Elec       q    Type
REMARK                         _______ _______ _______ _____ _____    ______ ____
ROOT
ATOM      1  N   UNL     1      32.964 -21.793 -19.134  0.00  0.00    -0.339 NA
ATOM      2  N   UNL     1      35.171 -22.388 -18.422  0.00  0.00    -0.186 NA
ATOM      3  C   UNL     1      33.796 -22.474 -18.405  0.00  0.00    +0.066 C 
ATOM      4  C   UNL     1      34.870 -20.703 -20.131  0.00  0.00    +0.044 C 
ATOM      5  C   UNL     1      33.398 -20.861 -20.049  0.00  0.00    +0.204 C 
ATOM      6  C   UNL     1      35.690 -21.542 -19.246  0.00  0.00    +0.110 C 
ATOM      7  C   UNL     1      33.254 -23.478 -17.426  0.00  0.00    +0.129 C 
ATOM      8  C   UNL     1      35.489 -19.852 -20.955  0.00  0.00    +0.037 C 
ENDROOT
BRANCH   5   9
ATOM      9  N   UNL     1      32.506 -20.227 -20.731  0.00  0.00    -0.238 NA
ATOM     10  H   UNL     1      31.938 -20.715 -21.371  0.00  0.00    +0.173 HD
ENDBRANCH   5   9
TORSDOF 1
ENDMDL
MODEL 2
REMARK VINA RESULT:      -5.8      8.666      9.016
REMARK  Name = 4635105
REMARK  1 active torsions:
REMARK  status: ('A' for Active; 'I' for Inactive)
REMARK    1  A    between atoms: N_3  and  C_6
REMARK                            x       y       z     vdW  Elec       q    Type
REMARK                         _______ _______ _______ _____ _____    ______ ____
ROOT
ATOM      1  N   UNL     1      39.134 -24.309 -12.938  0.00  0.00    -0.339 NA
ATOM      2  N   UNL     1      38.142 -26.386 -13.593  0.00  0.00    -0.186 NA
ATOM      3  C   UNL     1      39.147 -25.445 -13.568  0.00  0.00    +0.066 C 
ATOM      4  C   UNL     1      36.919 -24.865 -12.165  0.00  0.00    +0.044 C 
ATOM      5  C   UNL     1      38.050 -23.907 -12.191  0.00  0.00    +0.204 C 
ATOM      6  C   UNL     1      37.073 -26.114 -12.923  0.00  0.00    +0.110 C 
ATOM      7  C   UNL     1      40.365 -25.823 -14.364  0.00  0.00    +0.129 C 
ATOM      8  C   UNL     1      35.778 -24.661 -11.499  0.00  0.00    +0.037 C 
ENDROOT
BRANCH   5   9
ATOM      9  N   UNL     1      38.118 -22.764 -11.599  0.00  0.00    -0.238 NA
ATOM     10  H   UNL     1      38.900 -22.182 -11.741  0.00  0.00    +0.173 HD
ENDBRANCH   5   9
TORSDOF 1
ENDMDL
MODEL 3
REMARK VINA RESULT:      -5.6      1.155      2.286
REMARK  Name = 4635105
REMARK  1 active torsions:
REMARK  status: ('A' for Active; 'I' for Inactive)
REMARK    1  A    between atoms: N_3  and  C_6
REMARK                            x       y       z     vdW  Elec       q    Type
REMARK                         _______ _______ _______ _____ _____    ______ ____
ROOT
ATOM      1  N   UNL     1      35.102 -21.931 -19.029  0.00  0.00    -0.339 NA
ATOM      2  N   UNL     1      32.768 -21.545 -19.393  0.00  0.00    -0.186 NA
ATOM      3  C   UNL     1      33.845 -22.185 -18.820  0.00  0.00    +0.066 C 
ATOM      4  C   UNL     1      34.407 -20.202 -20.558  0.00  0.00    +0.044 C 
ATOM      5  C   UNL     1      35.507 -20.942 -19.895  0.00  0.00    +0.204 C 
ATOM      6  C   UNL     1      33.031 -20.595 -20.226  0.00  0.00    +0.110 C 
ATOM      7  C   UNL     1      33.472 -23.279 -17.859  0.00  0.00    +0.129 C 
ATOM      8  C   UNL     1      34.591 -19.207 -21.432  0.00  0.00    +0.037 C 
ENDROOT
BRANCH   5   9
ATOM      9  N   UNL     1      36.774 -20.756 -20.046  0.00  0.00    -0.238 NA
ATOM     10  H   UNL     1      37.356 -20.666 -19.256  0.00  0.00    +0.173 HD
ENDBRANCH   5   9
TORSDOF 1
ENDMDL
MODEL 4
REMARK VINA RESULT:      -5.5      1.933      3.847
REMARK  Name = 4635105
REMARK  1 active torsions:
REMARK  status: ('A' for Active; 'I' for Inactive)
REMARK    1  A    between atoms: N_3  and  C_6
REMARK                            x       y       z     vdW  Elec       q    Type
REMARK                         _______ _______ _______ _____ _____    ______ ____
ROOT
ATOM      1  N   UNL     1      33.951 -19.045 -21.038  0.00  0.00    -0.339 NA
ATOM      2  N   UNL     1      36.335 -18.940 -20.847  0.00  0.00    -0.186 NA
ATOM      3  C   UNL     1      35.098 -18.463 -21.220  0.00  0.00    +0.066 C 
ATOM      4  C   UNL     1      35.141 -20.859 -19.985  0.00  0.00    +0.044 C 
ATOM      5  C   UNL     1      33.851 -20.271 -20.419  0.00  0.00    +0.204 C 
ATOM      6  C   UNL     1      36.362 -20.087 -20.256  0.00  0.00    +0.110 C 
ATOM      7  C   UNL     1      35.135 -17.123 -21.901  0.00  0.00    +0.129 C 
ATOM      8  C   UNL     1      35.257 -22.038 -19.368  0.00  0.00    +0.037 C 
ENDROOT
BRANCH   5   9
ATOM      9  N   UNL     1      32.675 -20.780 -20.279  0.00  0.00    -0.238 NA
ATOM     10  H   UNL     1      32.436 -21.244 -19.444  0.00  0.00    +0.173 HD
ENDBRANCH   5   9
TORSDOF 1
ENDMDL
MODEL 5
REMARK VINA RESULT:      -5.5      5.949      7.436
REMARK  Name = 4635105
REMARK  1 active torsions:
REMARK  status: ('A' for Active; 'I' for Inactive)
REMARK    1  A    between atoms: N_3  and  C_6
REMARK                            x       y       z     vdW  Elec       q    Type
REMARK                         _______ _______ _______ _____ _____    ______ ____
ROOT
ATOM      1  N   UNL     1      34.118 -17.184 -25.457  0.00  0.00    -0.339 NA
ATOM      2  N   UNL     1      34.738 -17.190 -23.145  0.00  0.00    -0.186 NA
ATOM      3  C   UNL     1      34.549 -17.769 -24.381  0.00  0.00    +0.066 C 
ATOM      4  C   UNL     1      33.956 -15.147 -24.177  0.00  0.00    +0.044 C 
ATOM      5  C   UNL     1      33.783 -15.849 -25.472  0.00  0.00    +0.204 C 
ATOM      6  C   UNL     1      34.455 -15.935 -23.042  0.00  0.00    +0.110 C 
ATOM      7  C   UNL     1      34.899 -19.231 -24.435  0.00  0.00    +0.129 C 
ATOM      8  C   UNL     1      33.687 -13.852 -23.984  0.00  0.00    +0.037 C 
ENDROOT
BRANCH   5   9
ATOM      9  N   UNL     1      33.362 -15.347 -26.581  0.00  0.00    -0.238 NA
ATOM     10  H   UNL     1      32.776 -15.876 -27.170  0.00  0.00    +0.173 HD
ENDBRANCH   5   9
TORSDOF 1
ENDMDL
MODEL 6
REMARK VINA RESULT:      -5.5      6.530      7.716
REMARK  Name = 4635105
REMARK  1 active torsions:
REMARK  status: ('A' for Active; 'I' for Inactive)
REMARK    1  A    between atoms: N_3  and  C_6
REMARK                            x       y       z     vdW  Elec       q    Type
REMARK                         _______ _______ _______ _____ _____    ______ ____
ROOT
ATOM      1  N   UNL     1      38.469 -26.443 -15.060  0.00  0.00    -0.339 NA
ATOM      2  N   UNL     1      38.567 -24.469 -13.710  0.00  0.00    -0.186 NA
ATOM      3  C   UNL     1      39.099 -25.586 -14.313  0.00  0.00    +0.066 C 
ATOM      4  C   UNL     1      36.474 -25.132 -14.724  0.00  0.00    +0.044 C 
ATOM      5  C   UNL     1      37.128 -26.313 -15.337  0.00  0.00    +0.204 C 
ATOM      6  C   UNL     1      37.310 -24.246 -13.902  0.00  0.00    +0.110 C 
ATOM      7  C   UNL     1      40.566 -25.788 -14.052  0.00  0.00    +0.129 C 
ATOM      8  C   UNL     1      35.181 -24.829 -14.872  0.00  0.00    +0.037 C 
ENDROOT
BRANCH   5   9
ATOM      9  N   UNL     1      36.578 -27.207 -16.086  0.00  0.00    -0.238 NA
ATOM     10  H   UNL     1      36.087 -27.957 -15.677  0.00  0.00    +0.173 HD
ENDBRANCH   5   9
TORSDOF 1
ENDMDL
MODEL 7
REMARK VINA RESULT:      -5.5      3.757      5.308
REMARK  Name = 4635105
REMARK  1 active torsions:
REMARK  status: ('A' for Active; 'I' for Inactive)
REMARK    1  A    between atoms: N_3  and  C_6
REMARK                            x       y       z     vdW  Elec       q    Type
REMARK                         _______ _______ _______ _____ _____    ______ ____
ROOT
ATOM      1  N   UNL     1      35.227 -17.614 -20.675  0.00  0.00    -0.339 NA
ATOM      2  N   UNL     1      35.352 -18.691 -22.808  0.00  0.00    -0.186 NA
ATOM      3  C   UNL     1      35.414 -18.651 -21.433  0.00  0.00    +0.066 C 
ATOM      4  C   UNL     1      34.848 -16.329 -22.679  0.00  0.00    +0.044 C 
ATOM      5  C   UNL     1      34.934 -16.376 -21.200  0.00  0.00    +0.204 C 
ATOM      6  C   UNL     1      35.082 -17.582 -23.410  0.00  0.00    +0.110 C 
ATOM      7  C   UNL     1      35.730 -19.975 -20.793  0.00  0.00    +0.129 C 
ATOM      8  C   UNL     1      34.574 -15.224 -23.380  0.00  0.00    +0.037 C 
ENDROOT
BRANCH   5   9
ATOM      9  N   UNL     1      34.764 -15.398 -20.377  0.00  0.00    -0.238 NA
ATOM     10  H   UNL     1      33.962 -15.368 -19.807  0.00  0.00    +0.173 HD
ENDBRANCH   5   9
TORSDOF 1
ENDMDL
MODEL 8
REMARK VINA RESULT:      -5.4      5.954      7.457
REMARK  Name = 4635105
REMARK  1 active torsions:
REMARK  status: ('A' for Active; 'I' for Inactive)
REMARK    1  A    between atoms: N_3  and  C_6
REMARK                            x       y       z     vdW  Elec       q    Type
REMARK                         _______ _______ _______ _____ _____    ______ ____
ROOT
ATOM      1  N   UNL     1      38.941 -24.465 -14.777  0.00  0.00    -0.339 NA
ATOM      2  N   UNL     1      38.304 -26.768 -14.626  0.00  0.00    -0.186 NA
ATOM      3  C   UNL     1      39.207 -25.728 -14.631  0.00  0.00    +0.066 C 
ATOM      4  C   UNL     1      36.614 -25.070 -14.964  0.00  0.00    +0.044 C 
ATOM      5  C   UNL     1      37.653 -24.013 -14.955  0.00  0.00    +0.204 C 
ATOM      6  C   UNL     1      37.061 -26.459 -14.786  0.00  0.00    +0.110 C 
ATOM      7  C   UNL     1      40.637 -26.154 -14.439  0.00  0.00    +0.129 C 
ATOM      8  C   UNL     1      35.308 -24.838 -15.122  0.00  0.00    +0.037 C 
ENDROOT
BRANCH   5   9
ATOM      9  N   UNL     1      37.475 -22.744 -15.093  0.00  0.00    -0.238 NA
ATOM     10  H   UNL     1      37.886 -22.116 -14.454  0.00  0.00    +0.173 HD
ENDBRANCH   5   9
TORSDOF 1
ENDMDL
MODEL 9
REMARK VINA RESULT:      -5.4      1.473      4.109
REMARK  Name = 4635105
REMARK  1 active torsions:
REMARK  status: ('A' for Active; 'I' for Inactive)
REMARK    1  A    between atoms: N_3  and  C_6
REMARK                            x       y       z     vdW  Elec       q    Type
REMARK                         _______ _______ _______ _____ _____    ______ ____
ROOT
ATOM      1  N   UNL     1      35.946 -20.044 -20.288  0.00  0.00    -0.339 NA
ATOM      2  N   UNL     1      33.741 -19.576 -21.093  0.00  0.00    -0.186 NA
ATOM      3  C   UNL     1      35.101 -19.372 -21.009  0.00  0.00    +0.066 C 
ATOM      4  C   UNL     1      34.090 -21.376 -19.516  0.00  0.00    +0.044 C 
ATOM      5  C   UNL     1      35.544 -21.088 -19.486  0.00  0.00    +0.204 C 
ATOM      6  C   UNL     1      33.252 -20.534 -20.380  0.00  0.00    +0.110 C 
ATOM      7  C   UNL     1      35.608 -18.244 -21.865  0.00  0.00    +0.129 C 
ATOM      8  C   UNL     1      33.503 -22.347 -18.810  0.00  0.00    +0.037 C 
ENDROOT
BRANCH   5   9
ATOM      9  N   UNL     1      36.447 -21.702 -18.800  0.00  0.00    -0.238 NA
ATOM     10  H   UNL     1      37.257 -22.042 -19.246  0.00  0.00    +0.173 HD
ENDBRANCH   5   9
TORSDOF 1
ENDMDL
