MODEL 1
REMARK VINA RESULT:     -10.7      0.000      0.000
REMARK  Name = 6102820
REMARK  2 active torsions:
REMARK  status: ('A' for Active; 'I' for Inactive)
REMARK    1  A    between atoms: N_3  and  S_13
REMARK    2  A    between atoms: S_13  and  C_18
REMARK                            x       y       z     vdW  Elec       q    Type
REMARK                         _______ _______ _______ _____ _____    ______ ____
ROOT
ATOM      1 CL   UNL     1      35.085 -16.706 -23.494  0.00  0.00    -0.086 Cl
ATOM      2  O   UNL     1      34.883 -21.084 -19.690  0.00  0.00    -0.413 OA
ATOM      3  N   UNL     1      32.826 -22.137 -18.815  0.00  0.00    -0.158 N 
ATOM      4  N   UNL     1      32.879 -20.306 -20.408  0.00  0.00    -0.355 NA
ATOM      5  C   UNL     1      33.524 -21.164 -19.648  0.00  0.00    +0.364 C 
ATOM      6  C   UNL     1      33.890 -19.593 -21.007  0.00  0.00    +0.153 C 
ATOM      7  C   UNL     1      35.118 -20.067 -20.570  0.00  0.00    +0.175 C 
ATOM      8  C   UNL     1      33.860 -18.536 -21.927  0.00  0.00    +0.100 C 
ATOM      9  C   UNL     1      36.349 -19.570 -20.977  0.00  0.00    +0.041 C 
ATOM     10  C   UNL     1      35.084 -18.007 -22.363  0.00  0.00    +0.043 C 
ATOM     11  C   UNL     1      36.302 -18.515 -21.896  0.00  0.00    +0.011 C 
ATOM     12  H   UNL     1      31.841 -22.143 -18.828  0.00  0.00    +0.179 HD
ENDROOT
BRANCH   3  13
ATOM     13  S   UNL     1      33.619 -23.246 -17.835  0.00  0.00    +0.078 S 
ATOM     14  O   UNL     1      34.869 -22.685 -17.358  0.00  0.00    -0.150 OA
ATOM     15  O   UNL     1      33.589 -24.562 -18.444  0.00  0.00    -0.150 OA
BRANCH  13  18
ATOM     16 CL   UNL     1      34.523 -24.191 -14.877  0.00  0.00    -0.081 Cl
ATOM     17 CL   UNL     1      28.648 -22.386 -15.930  0.00  0.00    -0.082 Cl
ATOM     18  C   UNL     1      32.498 -23.274 -16.467  0.00  0.00    +0.137 C 
ATOM     19  C   UNL     1      32.906 -23.683 -15.207  0.00  0.00    +0.077 C 
ATOM     20  C   UNL     1      31.192 -22.873 -16.703  0.00  0.00    +0.032 C 
ATOM     21  C   UNL     1      30.272 -22.880 -15.654  0.00  0.00    +0.059 C 
ATOM     22  C   UNL     1      31.988 -23.691 -14.158  0.00  0.00    +0.014 C 
ATOM     23  C   UNL     1      30.670 -23.290 -14.381  0.00  0.00    +0.012 C 
ENDBRANCH  13  18
ENDBRANCH   3  13
TORSDOF 2
ENDMDL
MODEL 2
REMARK VINA RESULT:     -10.0      3.672      8.584
REMARK  Name = 6102820
REMARK  2 active torsions:
REMARK  status: ('A' for Active; 'I' for Inactive)
REMARK    1  A    between atoms: N_3  and  S_13
REMARK    2  A    between atoms: S_13  and  C_18
REMARK                            x       y       z     vdW  Elec       q    Type
REMARK                         _______ _______ _______ _____ _____    ______ ____
ROOT
ATOM      1 CL   UNL     1      33.804 -23.468 -16.971  0.00  0.00    -0.086 Cl
ATOM      2  O   UNL     1      35.378 -19.789 -21.175  0.00  0.00    -0.413 OA
ATOM      3  N   UNL     1      33.836 -18.569 -22.671  0.00  0.00    -0.158 N 
ATOM      4  N   UNL     1      33.148 -20.102 -20.920  0.00  0.00    -0.355 NA
ATOM      5  C   UNL     1      34.111 -19.495 -21.579  0.00  0.00    +0.364 C 
ATOM      6  C   UNL     1      33.827 -20.864 -20.000  0.00  0.00    +0.153 C 
ATOM      7  C   UNL     1      35.192 -20.674 -20.152  0.00  0.00    +0.175 C 
ATOM      8  C   UNL     1      33.371 -21.739 -19.003  0.00  0.00    +0.100 C 
ATOM      9  C   UNL     1      36.168 -21.294 -19.383  0.00  0.00    +0.041 C 
ATOM     10  C   UNL     1      34.328 -22.384 -18.206  0.00  0.00    +0.043 C 
ATOM     11  C   UNL     1      35.698 -22.165 -18.394  0.00  0.00    +0.011 C 
ATOM     12  H   UNL     1      32.898 -18.399 -22.916  0.00  0.00    +0.179 HD
ENDROOT
BRANCH   3  13
ATOM     13  S   UNL     1      35.042 -17.778 -23.531  0.00  0.00    +0.078 S 
ATOM     14  O   UNL     1      35.133 -18.319 -24.874  0.00  0.00    -0.150 OA
ATOM     15  O   UNL     1      36.232 -17.639 -22.712  0.00  0.00    -0.150 OA
BRANCH  13  18
ATOM     16 CL   UNL     1      34.731 -15.811 -20.983  0.00  0.00    -0.081 Cl
ATOM     17 CL   UNL     1      32.686 -14.017 -26.595  0.00  0.00    -0.082 Cl
ATOM     18  C   UNL     1      34.302 -16.177 -23.658  0.00  0.00    +0.137 C 
ATOM     19  C   UNL     1      34.179 -15.348 -22.552  0.00  0.00    +0.077 C 
ATOM     20  C   UNL     1      33.848 -15.779 -24.906  0.00  0.00    +0.032 C 
ATOM     21  C   UNL     1      33.256 -14.524 -25.053  0.00  0.00    +0.059 C 
ATOM     22  C   UNL     1      33.587 -14.095 -22.698  0.00  0.00    +0.014 C 
ATOM     23  C   UNL     1      33.125 -13.682 -23.949  0.00  0.00    +0.012 C 
ENDBRANCH  13  18
ENDBRANCH   3  13
TORSDOF 2
ENDMDL
MODEL 3
REMARK VINA RESULT:      -9.9      4.605      8.806
REMARK  Name = 6102820
REMARK  2 active torsions:
REMARK  status: ('A' for Active; 'I' for Inactive)
REMARK    1  A    between atoms: N_3  and  S_13
REMARK    2  A    between atoms: S_13  and  C_18
REMARK                            x       y       z     vdW  Elec       q    Type
REMARK                         _______ _______ _______ _____ _____    ______ ____
ROOT
ATOM      1 CL   UNL     1      35.116 -22.366 -17.796  0.00  0.00    -0.086 Cl
ATOM      2  O   UNL     1      34.047 -19.118 -22.485  0.00  0.00    -0.413 OA
ATOM      3  N   UNL     1      35.742 -17.908 -23.814  0.00  0.00    -0.158 N 
ATOM      4  N   UNL     1      36.220 -19.261 -21.856  0.00  0.00    -0.355 NA
ATOM      5  C   UNL     1      35.345 -18.769 -22.707  0.00  0.00    +0.364 C 
ATOM      6  C   UNL     1      35.443 -19.997 -20.995  0.00  0.00    +0.153 C 
ATOM      7  C   UNL     1      34.113 -19.913 -21.377  0.00  0.00    +0.175 C 
ATOM      8  C   UNL     1      35.778 -20.765 -19.871  0.00  0.00    +0.100 C 
ATOM      9  C   UNL     1      33.060 -20.539 -20.723  0.00  0.00    +0.041 C 
ATOM     10  C   UNL     1      34.741 -21.413 -19.183  0.00  0.00    +0.043 C 
ATOM     11  C   UNL     1      33.410 -21.301 -19.602  0.00  0.00    +0.011 C 
ATOM     12  H   UNL     1      36.697 -17.692 -23.920  0.00  0.00    +0.179 HD
ENDROOT
BRANCH   3  13
ATOM     13  S   UNL     1      34.651 -17.266 -24.917  0.00  0.00    +0.078 S 
ATOM     14  O   UNL     1      33.519 -18.159 -25.076  0.00  0.00    -0.150 OA
ATOM     15  O   UNL     1      35.356 -16.758 -26.079  0.00  0.00    -0.150 OA
BRANCH  13  18
ATOM     16 CL   UNL     1      32.816 -14.945 -26.223  0.00  0.00    -0.081 Cl
ATOM     17 CL   UNL     1      34.520 -14.596 -20.234  0.00  0.00    -0.082 Cl
ATOM     18  C   UNL     1      34.093 -15.868 -23.989  0.00  0.00    +0.137 C 
ATOM     19  C   UNL     1      33.306 -14.884 -24.568  0.00  0.00    +0.077 C 
ATOM     20  C   UNL     1      34.473 -15.791 -22.658  0.00  0.00    +0.032 C 
ATOM     21  C   UNL     1      34.056 -14.705 -21.887  0.00  0.00    +0.059 C 
ATOM     22  C   UNL     1      32.890 -13.798 -23.799  0.00  0.00    +0.014 C 
ATOM     23  C   UNL     1      33.265 -13.708 -22.458  0.00  0.00    +0.012 C 
ENDBRANCH  13  18
ENDBRANCH   3  13
TORSDOF 2
ENDMDL
MODEL 4
REMARK VINA RESULT:      -9.8      3.668      5.130
REMARK  Name = 6102820
REMARK  2 active torsions:
REMARK  status: ('A' for Active; 'I' for Inactive)
REMARK    1  A    between atoms: N_3  and  S_13
REMARK    2  A    between atoms: S_13  and  C_18
REMARK                            x       y       z     vdW  Elec       q    Type
REMARK                         _______ _______ _______ _____ _____    ______ ____
ROOT
ATOM      1 CL   UNL     1      35.293 -18.835 -22.804  0.00  0.00    -0.086 Cl
ATOM      2  O   UNL     1      34.638 -22.061 -18.025  0.00  0.00    -0.413 OA
ATOM      3  N   UNL     1      36.461 -22.817 -16.538  0.00  0.00    -0.158 N 
ATOM      4  N   UNL     1      36.766 -21.466 -18.532  0.00  0.00    -0.355 NA
ATOM      5  C   UNL     1      35.962 -22.106 -17.710  0.00  0.00    +0.364 C 
ATOM      6  C   UNL     1      35.908 -20.952 -19.474  0.00  0.00    +0.153 C 
ATOM      7  C   UNL     1      34.605 -21.313 -19.167  0.00  0.00    +0.175 C 
ATOM      8  C   UNL     1      36.144 -20.171 -20.615  0.00  0.00    +0.100 C 
ATOM      9  C   UNL     1      33.488 -20.960 -19.913  0.00  0.00    +0.041 C 
ATOM     10  C   UNL     1      35.040 -19.794 -21.394  0.00  0.00    +0.043 C 
ATOM     11  C   UNL     1      33.740 -20.182 -21.048  0.00  0.00    +0.011 C 
ATOM     12  H   UNL     1      37.430 -22.813 -16.365  0.00  0.00    +0.179 HD
ENDROOT
BRANCH   3  13
ATOM     13  S   UNL     1      35.463 -23.642 -15.469  0.00  0.00    +0.078 S 
ATOM     14  O   UNL     1      34.760 -24.705 -16.163  0.00  0.00    -0.150 OA
ATOM     15  O   UNL     1      34.737 -22.702 -14.636  0.00  0.00    -0.150 OA
BRANCH  13  18
ATOM     16 CL   UNL     1      34.859 -24.588 -12.436  0.00  0.00    -0.081 Cl
ATOM     17 CL   UNL     1      40.527 -25.408 -14.905  0.00  0.00    -0.082 Cl
ATOM     18  C   UNL     1      36.695 -24.401 -14.453  0.00  0.00    +0.137 C 
ATOM     19  C   UNL     1      36.415 -24.800 -13.154  0.00  0.00    +0.077 C 
ATOM     20  C   UNL     1      37.955 -24.583 -15.003  0.00  0.00    +0.032 C 
ATOM     21  C   UNL     1      38.959 -25.176 -14.237  0.00  0.00    +0.059 C 
ATOM     22  C   UNL     1      37.418 -25.392 -12.388  0.00  0.00    +0.014 C 
ATOM     23  C   UNL     1      38.690 -25.581 -12.930  0.00  0.00    +0.012 C 
ENDBRANCH  13  18
ENDBRANCH   3  13
TORSDOF 2
ENDMDL
MODEL 5
REMARK VINA RESULT:      -9.6      4.301      6.073
REMARK  Name = 6102820
REMARK  2 active torsions:
REMARK  status: ('A' for Active; 'I' for Inactive)
REMARK    1  A    between atoms: N_3  and  S_13
REMARK    2  A    between atoms: S_13  and  C_18
REMARK                            x       y       z     vdW  Elec       q    Type
REMARK                         _______ _______ _______ _____ _____    ______ ____
ROOT
ATOM      1 CL   UNL     1      31.964 -11.277 -22.859  0.00  0.00    -0.086 Cl
ATOM      2  O   UNL     1      34.491 -16.498 -22.662  0.00  0.00    -0.413 OA
ATOM      3  N   UNL     1      35.206 -17.674 -20.610  0.00  0.00    -0.158 N 
ATOM      4  N   UNL     1      34.150 -15.489 -20.661  0.00  0.00    -0.355 NA
ATOM      5  C   UNL     1      34.609 -16.540 -21.306  0.00  0.00    +0.364 C 
ATOM      6  C   UNL     1      33.687 -14.678 -21.669  0.00  0.00    +0.153 C 
ATOM      7  C   UNL     1      33.893 -15.293 -22.895  0.00  0.00    +0.175 C 
ATOM      8  C   UNL     1      33.080 -13.415 -21.639  0.00  0.00    +0.100 C 
ATOM      9  C   UNL     1      33.542 -14.748 -24.124  0.00  0.00    +0.041 C 
ATOM     10  C   UNL     1      32.711 -12.831 -22.859  0.00  0.00    +0.043 C 
ATOM     11  C   UNL     1      32.939 -13.486 -24.076  0.00  0.00    +0.011 C 
ATOM     12  H   UNL     1      35.263 -17.643 -19.628  0.00  0.00    +0.179 HD
ENDROOT
BRANCH   3  13
ATOM     13  S   UNL     1      35.800 -19.030 -21.402  0.00  0.00    +0.078 S 
ATOM     14  O   UNL     1      37.249 -18.980 -21.457  0.00  0.00    -0.150 OA
ATOM     15  O   UNL     1      35.028 -19.285 -22.604  0.00  0.00    -0.150 OA
BRANCH  13  18
ATOM     16 CL   UNL     1      32.781 -20.157 -21.124  0.00  0.00    -0.081 Cl
ATOM     17 CL   UNL     1      37.299 -22.346 -17.423  0.00  0.00    -0.082 Cl
ATOM     18  C   UNL     1      35.359 -20.270 -20.221  0.00  0.00    +0.137 C 
ATOM     19  C   UNL     1      34.059 -20.740 -20.118  0.00  0.00    +0.077 C 
ATOM     20  C   UNL     1      36.365 -20.755 -19.399  0.00  0.00    +0.032 C 
ATOM     21  C   UNL     1      36.062 -21.734 -18.451  0.00  0.00    +0.059 C 
ATOM     22  C   UNL     1      33.756 -21.717 -19.171  0.00  0.00    +0.014 C 
ATOM     23  C   UNL     1      34.758 -22.215 -18.337  0.00  0.00    +0.012 C 
ENDBRANCH  13  18
ENDBRANCH   3  13
TORSDOF 2
ENDMDL
MODEL 6
REMARK VINA RESULT:      -9.4      7.794     11.927
REMARK  Name = 6102820
REMARK  2 active torsions:
REMARK  status: ('A' for Active; 'I' for Inactive)
REMARK    1  A    between atoms: N_3  and  S_13
REMARK    2  A    between atoms: S_13  and  C_18
REMARK                            x       y       z     vdW  Elec       q    Type
REMARK                         _______ _______ _______ _____ _____    ______ ____
ROOT
ATOM      1 CL   UNL     1      35.612 -19.015 -22.605  0.00  0.00    -0.086 Cl
ATOM      2  O   UNL     1      33.254 -13.812 -21.578  0.00  0.00    -0.413 OA
ATOM      3  N   UNL     1      31.993 -12.456 -23.214  0.00  0.00    -0.158 N 
ATOM      4  N   UNL     1      32.968 -14.631 -23.672  0.00  0.00    -0.355 NA
ATOM      5  C   UNL     1      32.742 -13.646 -22.830  0.00  0.00    +0.364 C 
ATOM      6  C   UNL     1      33.690 -15.528 -22.923  0.00  0.00    +0.153 C 
ATOM      7  C   UNL     1      33.867 -15.031 -21.641  0.00  0.00    +0.175 C 
ATOM      8  C   UNL     1      34.232 -16.781 -23.244  0.00  0.00    +0.100 C 
ATOM      9  C   UNL     1      34.553 -15.684 -20.625  0.00  0.00    +0.041 C 
ATOM     10  C   UNL     1      34.932 -17.472 -22.244  0.00  0.00    +0.043 C 
ATOM     11  C   UNL     1      35.088 -16.933 -20.962  0.00  0.00    +0.011 C 
ATOM     12  H   UNL     1      31.649 -12.396 -24.135  0.00  0.00    +0.179 HD
ENDROOT
BRANCH   3  13
ATOM     13  S   UNL     1      31.687 -11.183 -22.163  0.00  0.00    +0.078 S 
ATOM     14  O   UNL     1      32.101 -11.536 -20.818  0.00  0.00    -0.150 OA
ATOM     15  O   UNL     1      30.364 -10.640 -22.406  0.00  0.00    -0.150 OA
BRANCH  13  18
ATOM     16 CL   UNL     1      31.926  -8.184 -20.975  0.00  0.00    -0.081 Cl
ATOM     17 CL   UNL     1      35.659 -10.021 -25.621  0.00  0.00    -0.082 Cl
ATOM     18  C   UNL     1      32.857 -10.010 -22.784  0.00  0.00    +0.137 C 
ATOM     19  C   UNL     1      32.943  -8.729 -22.260  0.00  0.00    +0.077 C 
ATOM     20  C   UNL     1      33.686 -10.420 -23.817  0.00  0.00    +0.032 C 
ATOM     21  C   UNL     1      34.624  -9.528 -24.338  0.00  0.00    +0.059 C 
ATOM     22  C   UNL     1      33.880  -7.837 -22.781  0.00  0.00    +0.014 C 
ATOM     23  C   UNL     1      34.720  -8.237 -23.821  0.00  0.00    +0.012 C 
ENDBRANCH  13  18
ENDBRANCH   3  13
TORSDOF 2
ENDMDL
MODEL 7
REMARK VINA RESULT:      -9.4      7.143     11.321
REMARK  Name = 6102820
REMARK  2 active torsions:
REMARK  status: ('A' for Active; 'I' for Inactive)
REMARK    1  A    between atoms: N_3  and  S_13
REMARK    2  A    between atoms: S_13  and  C_18
REMARK                            x       y       z     vdW  Elec       q    Type
REMARK                         _______ _______ _______ _____ _____    ______ ____
ROOT
ATOM      1 CL   UNL     1      35.942 -20.266 -20.742  0.00  0.00    -0.086 Cl
ATOM      2  O   UNL     1      34.140 -15.520 -23.554  0.00  0.00    -0.413 OA
ATOM      3  N   UNL     1      33.965 -13.253 -22.586  0.00  0.00    -0.158 N 
ATOM      4  N   UNL     1      34.724 -15.221 -21.384  0.00  0.00    -0.355 NA
ATOM      5  C   UNL     1      34.282 -14.674 -22.496  0.00  0.00    +0.364 C 
ATOM      6  C   UNL     1      34.890 -16.541 -21.727  0.00  0.00    +0.153 C 
ATOM      7  C   UNL     1      34.535 -16.728 -23.054  0.00  0.00    +0.175 C 
ATOM      8  C   UNL     1      35.337 -17.643 -20.984  0.00  0.00    +0.100 C 
ATOM      9  C   UNL     1      34.583 -17.943 -23.724  0.00  0.00    +0.041 C 
ATOM     10  C   UNL     1      35.400 -18.889 -21.625  0.00  0.00    +0.043 C 
ATOM     11  C   UNL     1      35.030 -19.034 -22.968  0.00  0.00    +0.011 C 
ATOM     12  H   UNL     1      34.089 -12.694 -21.784  0.00  0.00    +0.179 HD
ENDROOT
BRANCH   3  13
ATOM     13  S   UNL     1      33.400 -12.524 -23.988  0.00  0.00    +0.078 S 
ATOM     14  O   UNL     1      32.102 -13.066 -24.344  0.00  0.00    -0.150 OA
ATOM     15  O   UNL     1      34.461 -12.450 -24.976  0.00  0.00    -0.150 OA
BRANCH  13  18
ATOM     16 CL   UNL     1      31.209 -11.862 -21.703  0.00  0.00    -0.081 Cl
ATOM     17 CL   UNL     1      34.693  -7.291 -24.123  0.00  0.00    -0.082 Cl
ATOM     18  C   UNL     1      33.138 -10.886 -23.376  0.00  0.00    +0.137 C 
ATOM     19  C   UNL     1      32.193 -10.624 -22.395  0.00  0.00    +0.077 C 
ATOM     20  C   UNL     1      33.913  -9.871 -23.915  0.00  0.00    +0.032 C 
ATOM     21  C   UNL     1      33.740  -8.562 -23.463  0.00  0.00    +0.059 C 
ATOM     22  C   UNL     1      32.019  -9.316 -21.944  0.00  0.00    +0.014 C 
ATOM     23  C   UNL     1      32.793  -8.285 -22.477  0.00  0.00    +0.012 C 
ENDBRANCH  13  18
ENDBRANCH   3  13
TORSDOF 2
ENDMDL
MODEL 8
REMARK VINA RESULT:      -9.3      7.949     11.011
REMARK  Name = 6102820
REMARK  2 active torsions:
REMARK  status: ('A' for Active; 'I' for Inactive)
REMARK    1  A    between atoms: N_3  and  S_13
REMARK    2  A    between atoms: S_13  and  C_18
REMARK                            x       y       z     vdW  Elec       q    Type
REMARK                         _______ _______ _______ _____ _____    ______ ____
ROOT
ATOM      1 CL   UNL     1      32.709  -5.731 -24.354  0.00  0.00    -0.086 Cl
ATOM      2  O   UNL     1      32.518 -11.252 -22.573  0.00  0.00    -0.413 OA
ATOM      3  N   UNL     1      34.066 -13.044 -23.276  0.00  0.00    -0.158 N 
ATOM      4  N   UNL     1      34.171 -10.742 -24.038  0.00  0.00    -0.355 NA
ATOM      5  C   UNL     1      33.590 -11.666 -23.304  0.00  0.00    +0.364 C 
ATOM      6  C   UNL     1      33.426  -9.618 -23.778  0.00  0.00    +0.153 C 
ATOM      7  C   UNL     1      32.414  -9.926 -22.881  0.00  0.00    +0.175 C 
ATOM      8  C   UNL     1      33.534  -8.303 -24.251  0.00  0.00    +0.100 C 
ATOM      9  C   UNL     1      31.476  -9.019 -22.403  0.00  0.00    +0.041 C 
ATOM     10  C   UNL     1      32.605  -7.358 -23.792  0.00  0.00    +0.043 C 
ATOM     11  C   UNL     1      31.597  -7.711 -22.886  0.00  0.00    +0.011 C 
ATOM     12  H   UNL     1      34.846 -13.282 -23.828  0.00  0.00    +0.179 HD
ENDROOT
BRANCH   3  13
ATOM     13  S   UNL     1      33.348 -14.247 -22.350  0.00  0.00    +0.078 S 
ATOM     14  O   UNL     1      31.927 -14.316 -22.637  0.00  0.00    -0.150 OA
ATOM     15  O   UNL     1      33.818 -14.170 -20.980  0.00  0.00    -0.150 OA
BRANCH  13  18
ATOM     16 CL   UNL     1      33.118 -14.885 -25.512  0.00  0.00    -0.081 Cl
ATOM     17 CL   UNL     1      36.305 -18.718 -21.765  0.00  0.00    -0.082 Cl
ATOM     18  C   UNL     1      34.104 -15.667 -23.086  0.00  0.00    +0.137 C 
ATOM     19  C   UNL     1      33.993 -15.922 -24.444  0.00  0.00    +0.077 C 
ATOM     20  C   UNL     1      34.812 -16.518 -22.251  0.00  0.00    +0.032 C 
ATOM     21  C   UNL     1      35.424 -17.652 -22.788  0.00  0.00    +0.059 C 
ATOM     22  C   UNL     1      34.603 -17.055 -24.980  0.00  0.00    +0.014 C 
ATOM     23  C   UNL     1      35.319 -17.920 -24.152  0.00  0.00    +0.012 C 
ENDBRANCH  13  18
ENDBRANCH   3  13
TORSDOF 2
ENDMDL
MODEL 9
REMARK VINA RESULT:      -9.2      4.542      6.576
REMARK  Name = 6102820
REMARK  2 active torsions:
REMARK  status: ('A' for Active; 'I' for Inactive)
REMARK    1  A    between atoms: N_3  and  S_13
REMARK    2  A    between atoms: S_13  and  C_18
REMARK                            x       y       z     vdW  Elec       q    Type
REMARK                         _______ _______ _______ _____ _____    ______ ____
ROOT
ATOM      1 CL   UNL     1      31.406 -10.398 -22.079  0.00  0.00    -0.086 Cl
ATOM      2  O   UNL     1      34.041 -15.522 -22.780  0.00  0.00    -0.413 OA
ATOM      3  N   UNL     1      33.804 -17.477 -21.289  0.00  0.00    -0.158 N 
ATOM      4  N   UNL     1      32.687 -15.345 -20.970  0.00  0.00    -0.355 NA
ATOM      5  C   UNL     1      33.501 -16.103 -21.673  0.00  0.00    +0.364 C 
ATOM      6  C   UNL     1      32.683 -14.160 -21.664  0.00  0.00    +0.153 C 
ATOM      7  C   UNL     1      33.510 -14.264 -22.772  0.00  0.00    +0.175 C 
ATOM      8  C   UNL     1      32.012 -12.951 -21.430  0.00  0.00    +0.100 C 
ATOM      9  C   UNL     1      33.735 -13.246 -23.691  0.00  0.00    +0.041 C 
ATOM     10  C   UNL     1      32.214 -11.899 -22.336  0.00  0.00    +0.043 C 
ATOM     11  C   UNL     1      33.059 -12.046 -23.443  0.00  0.00    +0.011 C 
ATOM     12  H   UNL     1      33.382 -17.840 -20.476  0.00  0.00    +0.179 HD
ENDROOT
BRANCH   3  13
ATOM     13  S   UNL     1      34.836 -18.470 -22.164  0.00  0.00    +0.078 S 
ATOM     14  O   UNL     1      36.091 -17.786 -22.417  0.00  0.00    -0.150 OA
ATOM     15  O   UNL     1      34.116 -19.110 -23.248  0.00  0.00    -0.150 OA
BRANCH  13  18
ATOM     16 CL   UNL     1      37.830 -19.253 -21.222  0.00  0.00    -0.081 Cl
ATOM     17 CL   UNL     1      32.902 -22.140 -18.718  0.00  0.00    -0.082 Cl
ATOM     18  C   UNL     1      35.150 -19.709 -20.940  0.00  0.00    +0.137 C 
ATOM     19  C   UNL     1      36.442 -20.029 -20.551  0.00  0.00    +0.077 C 
ATOM     20  C   UNL     1      34.053 -20.350 -20.385  0.00  0.00    +0.032 C 
ATOM     21  C   UNL     1      34.253 -21.335 -19.416  0.00  0.00    +0.059 C 
ATOM     22  C   UNL     1      36.641 -21.013 -19.584  0.00  0.00    +0.014 C 
ATOM     23  C   UNL     1      35.547 -21.667 -19.016  0.00  0.00    +0.012 C 
ENDBRANCH  13  18
ENDBRANCH   3  13
TORSDOF 2
ENDMDL
