MODEL 1
REMARK VINA RESULT:      -8.3      0.000      0.000
REMARK  Name = 115348
REMARK  4 active torsions:
REMARK  status: ('A' for Active; 'I' for Inactive)
REMARK    1  A    between atoms: C_3  and  C_14
REMARK    2  A    between atoms: C_9  and  O_12
REMARK    3  A    between atoms: C_14  and  C_15
REMARK    4  A    between atoms: C_15  and  N_17
REMARK                            x       y       z     vdW  Elec       q    Type
REMARK                         _______ _______ _______ _____ _____    ______ ____
ROOT
ATOM      1  I   UNL     1      33.080 -14.240 -26.257  0.00  0.00    -0.024 I 
ATOM      2  N   UNL     1      34.071 -16.961 -25.294  0.00  0.00    -0.349 N 
ATOM      3  C   UNL     1      34.118 -15.505 -23.619  0.00  0.00    +0.002 A 
ATOM      4  C   UNL     1      34.586 -16.757 -23.133  0.00  0.00    +0.016 A 
ATOM      5  C   UNL     1      34.548 -17.654 -24.203  0.00  0.00    +0.057 A 
ATOM      6  C   UNL     1      33.809 -15.661 -24.950  0.00  0.00    +0.083 A 
ATOM      7  C   UNL     1      35.042 -17.217 -21.881  0.00  0.00    +0.038 C 
ATOM      8  C   UNL     1      34.942 -18.991 -24.084  0.00  0.00    +0.020 C 
ATOM      9  C   UNL     1      35.440 -18.552 -21.746  0.00  0.00    +0.139 C 
ATOM     10  C   UNL     1      35.390 -19.423 -22.832  0.00  0.00    +0.038 C 
ATOM     11  H   UNL     1      33.938 -17.345 -26.191  0.00  0.00    +0.166 HD
ENDROOT
BRANCH   9  12
ATOM     12  O   UNL     1      35.882 -19.003 -20.538  0.00  0.00    -0.471 OA
ATOM     13  C   UNL     1      35.740 -20.397 -20.277  0.00  0.00    +0.252 C 
ENDBRANCH   9  12
BRANCH   3  14
ATOM     14  C   UNL     1      33.994 -14.267 -22.818  0.00  0.00    +0.050 C 
BRANCH  14  15
ATOM     15  C   UNL     1      32.688 -14.167 -22.017  0.00  0.00    +0.094 C 
BRANCH  15  17
ATOM     16  O   UNL     1      31.856 -12.101 -20.155  0.00  0.00    -0.275 OA
ATOM     17  N   UNL     1      31.955 -12.967 -22.315  0.00  0.00    -0.304 N 
ATOM     18  C   UNL     1      31.599 -12.031 -21.354  0.00  0.00    +0.223 C 
ATOM     19  C   UNL     1      30.860 -10.857 -21.939  0.00  0.00    +0.095 C 
ATOM     20  H   UNL     1      31.691 -12.800 -23.249  0.00  0.00    +0.149 HD
ENDBRANCH  15  17
ENDBRANCH  14  15
ENDBRANCH   3  14
TORSDOF 4
ENDMDL
MODEL 2
REMARK VINA RESULT:      -8.2      7.985     10.829
REMARK  Name = 115348
REMARK  4 active torsions:
REMARK  status: ('A' for Active; 'I' for Inactive)
REMARK    1  A    between atoms: C_3  and  C_14
REMARK    2  A    between atoms: C_9  and  O_12
REMARK    3  A    between atoms: C_14  and  C_15
REMARK    4  A    between atoms: C_15  and  N_17
REMARK                            x       y       z     vdW  Elec       q    Type
REMARK                         _______ _______ _______ _____ _____    ______ ____
ROOT
ATOM      1  I   UNL     1      36.010 -24.707 -14.619  0.00  0.00    -0.024 I 
ATOM      2  N   UNL     1      32.980 -24.659 -14.256  0.00  0.00    -0.349 N 
ATOM      3  C   UNL     1      33.546 -23.462 -16.037  0.00  0.00    +0.002 A 
ATOM      4  C   UNL     1      32.131 -23.416 -15.901  0.00  0.00    +0.016 A 
ATOM      5  C   UNL     1      31.801 -24.174 -14.776  0.00  0.00    +0.057 A 
ATOM      6  C   UNL     1      34.040 -24.234 -15.012  0.00  0.00    +0.083 A 
ATOM      7  C   UNL     1      31.093 -22.799 -16.630  0.00  0.00    +0.038 C 
ATOM      8  C   UNL     1      30.483 -24.347 -14.340  0.00  0.00    +0.020 C 
ATOM      9  C   UNL     1      29.769 -22.963 -16.206  0.00  0.00    +0.139 C 
ATOM     10  C   UNL     1      29.471 -23.726 -15.079  0.00  0.00    +0.038 C 
ATOM     11  H   UNL     1      33.051 -25.229 -13.456  0.00  0.00    +0.166 HD
ENDROOT
BRANCH   9  12
ATOM     12  O   UNL     1      28.761 -22.368 -16.905  0.00  0.00    -0.471 OA
ATOM     13  C   UNL     1      27.469 -22.368 -16.303  0.00  0.00    +0.252 C 
ENDBRANCH   9  12
BRANCH   3  14
ATOM     14  C   UNL     1      34.327 -22.792 -17.101  0.00  0.00    +0.050 C 
BRANCH  14  15
ATOM     15  C   UNL     1      33.890 -23.162 -18.526  0.00  0.00    +0.094 C 
BRANCH  15  17
ATOM     16  O   UNL     1      35.024 -20.929 -19.996  0.00  0.00    -0.275 OA
ATOM     17  N   UNL     1      33.181 -22.092 -19.175  0.00  0.00    -0.304 N 
ATOM     18  C   UNL     1      33.811 -21.061 -19.858  0.00  0.00    +0.223 C 
ATOM     19  C   UNL     1      32.833 -20.090 -20.464  0.00  0.00    +0.095 C 
ATOM     20  H   UNL     1      32.197 -22.091 -19.132  0.00  0.00    +0.149 HD
ENDBRANCH  15  17
ENDBRANCH  14  15
ENDBRANCH   3  14
TORSDOF 4
ENDMDL
MODEL 3
REMARK VINA RESULT:      -7.9      8.133     10.560
REMARK  Name = 115348
REMARK  4 active torsions:
REMARK  status: ('A' for Active; 'I' for Inactive)
REMARK    1  A    between atoms: C_3  and  C_14
REMARK    2  A    between atoms: C_9  and  O_12
REMARK    3  A    between atoms: C_14  and  C_15
REMARK    4  A    between atoms: C_15  and  N_17
REMARK                            x       y       z     vdW  Elec       q    Type
REMARK                         _______ _______ _______ _____ _____    ______ ____
ROOT
ATOM      1  I   UNL     1      35.397 -24.168 -12.622  0.00  0.00    -0.024 I 
ATOM      2  N   UNL     1      36.001 -23.008 -15.379  0.00  0.00    -0.349 N 
ATOM      3  C   UNL     1      33.857 -23.564 -15.248  0.00  0.00    +0.002 A 
ATOM      4  C   UNL     1      34.099 -23.029 -16.543  0.00  0.00    +0.016 A 
ATOM      5  C   UNL     1      35.452 -22.688 -16.601  0.00  0.00    +0.057 A 
ATOM      6  C   UNL     1      35.045 -23.538 -14.555  0.00  0.00    +0.083 A 
ATOM      7  C   UNL     1      33.295 -22.801 -17.679  0.00  0.00    +0.038 C 
ATOM      8  C   UNL     1      36.044 -22.129 -17.739  0.00  0.00    +0.020 C 
ATOM      9  C   UNL     1      33.873 -22.243 -18.825  0.00  0.00    +0.139 C 
ATOM     10  C   UNL     1      35.226 -21.912 -18.852  0.00  0.00    +0.038 C 
ATOM     11  H   UNL     1      36.946 -22.874 -15.133  0.00  0.00    +0.166 HD
ENDROOT
BRANCH   9  12
ATOM     12  O   UNL     1      33.101 -22.021 -19.926  0.00  0.00    -0.471 OA
ATOM     13  C   UNL     1      32.996 -20.674 -20.382  0.00  0.00    +0.252 C 
ENDBRANCH   9  12
BRANCH   3  14
ATOM     14  C   UNL     1      32.551 -24.056 -14.754  0.00  0.00    +0.050 C 
BRANCH  14  15
ATOM     15  C   UNL     1      31.480 -22.963 -14.622  0.00  0.00    +0.094 C 
BRANCH  15  17
ATOM     16  O   UNL     1      30.084 -22.279 -17.074  0.00  0.00    -0.275 OA
ATOM     17  N   UNL     1      30.182 -23.418 -15.045  0.00  0.00    -0.304 N 
ATOM     18  C   UNL     1      29.592 -23.035 -16.241  0.00  0.00    +0.223 C 
ATOM     19  C   UNL     1      28.245 -23.676 -16.449  0.00  0.00    +0.095 C 
ATOM     20  H   UNL     1      29.687 -24.032 -14.456  0.00  0.00    +0.149 HD
ENDBRANCH  15  17
ENDBRANCH  14  15
ENDBRANCH   3  14
TORSDOF 4
ENDMDL
MODEL 4
REMARK VINA RESULT:      -7.9      7.618     11.416
REMARK  Name = 115348
REMARK  4 active torsions:
REMARK  status: ('A' for Active; 'I' for Inactive)
REMARK    1  A    between atoms: C_3  and  C_14
REMARK    2  A    between atoms: C_9  and  O_12
REMARK    3  A    between atoms: C_14  and  C_15
REMARK    4  A    between atoms: C_15  and  N_17
REMARK                            x       y       z     vdW  Elec       q    Type
REMARK                         _______ _______ _______ _____ _____    ______ ____
ROOT
ATOM      1  I   UNL     1      32.747 -24.379 -14.139  0.00  0.00    -0.024 I 
ATOM      2  N   UNL     1      32.903 -23.146 -16.927  0.00  0.00    -0.349 N 
ATOM      3  C   UNL     1      34.909 -23.120 -15.977  0.00  0.00    +0.002 A 
ATOM      4  C   UNL     1      35.021 -22.539 -17.271  0.00  0.00    +0.016 A 
ATOM      5  C   UNL     1      33.749 -22.567 -17.846  0.00  0.00    +0.057 A 
ATOM      6  C   UNL     1      33.595 -23.484 -15.794  0.00  0.00    +0.083 A 
ATOM      7  C   UNL     1      36.088 -21.989 -18.011  0.00  0.00    +0.038 C 
ATOM      8  C   UNL     1      33.488 -22.071 -19.128  0.00  0.00    +0.020 C 
ATOM      9  C   UNL     1      35.842 -21.489 -19.295  0.00  0.00    +0.139 C 
ATOM     10  C   UNL     1      34.561 -21.531 -19.843  0.00  0.00    +0.038 C 
ATOM     11  H   UNL     1      31.940 -23.297 -17.064  0.00  0.00    +0.166 HD
ENDROOT
BRANCH   9  12
ATOM     12  O   UNL     1      36.868 -20.955 -20.016  0.00  0.00    -0.471 OA
ATOM     13  C   UNL     1      36.671 -19.649 -20.552  0.00  0.00    +0.252 C 
ENDBRANCH   9  12
BRANCH   3  14
ATOM     14  C   UNL     1      36.020 -23.293 -15.015  0.00  0.00    +0.050 C 
BRANCH  14  15
ATOM     15  C   UNL     1      36.659 -24.689 -15.040  0.00  0.00    +0.094 C 
BRANCH  15  17
ATOM     16  O   UNL     1      38.494 -26.901 -14.630  0.00  0.00    -0.275 OA
ATOM     17  N   UNL     1      38.095 -24.634 -14.984  0.00  0.00    -0.304 N 
ATOM     18  C   UNL     1      38.895 -25.750 -14.783  0.00  0.00    +0.223 C 
ATOM     19  C   UNL     1      40.363 -25.416 -14.795  0.00  0.00    +0.095 C 
ATOM     20  H   UNL     1      38.533 -23.759 -15.096  0.00  0.00    +0.149 HD
ENDBRANCH  15  17
ENDBRANCH  14  15
ENDBRANCH   3  14
TORSDOF 4
ENDMDL
MODEL 5
REMARK VINA RESULT:      -7.8      7.931     10.925
REMARK  Name = 115348
REMARK  4 active torsions:
REMARK  status: ('A' for Active; 'I' for Inactive)
REMARK    1  A    between atoms: C_3  and  C_14
REMARK    2  A    between atoms: C_9  and  O_12
REMARK    3  A    between atoms: C_14  and  C_15
REMARK    4  A    between atoms: C_15  and  N_17
REMARK                            x       y       z     vdW  Elec       q    Type
REMARK                         _______ _______ _______ _____ _____    ______ ____
ROOT
ATOM      1  I   UNL     1      37.221 -23.991 -13.474  0.00  0.00    -0.024 I 
ATOM      2  N   UNL     1      37.018 -22.597 -16.181  0.00  0.00    -0.349 N 
ATOM      3  C   UNL     1      35.068 -23.519 -15.659  0.00  0.00    +0.002 A 
ATOM      4  C   UNL     1      34.934 -22.881 -16.923  0.00  0.00    +0.016 A 
ATOM      5  C   UNL     1      36.171 -22.311 -17.229  0.00  0.00    +0.057 A 
ATOM      6  C   UNL     1      36.359 -23.327 -15.228  0.00  0.00    +0.083 A 
ATOM      7  C   UNL     1      33.875 -22.734 -17.842  0.00  0.00    +0.038 C 
ATOM      8  C   UNL     1      36.405 -21.598 -18.410  0.00  0.00    +0.020 C 
ATOM      9  C   UNL     1      34.093 -22.023 -19.028  0.00  0.00    +0.139 C 
ATOM     10  C   UNL     1      35.339 -21.465 -19.306  0.00  0.00    +0.038 C 
ATOM     11  H   UNL     1      37.960 -22.317 -16.125  0.00  0.00    +0.166 HD
ENDROOT
BRANCH   9  12
ATOM     12  O   UNL     1      33.074 -21.878 -19.922  0.00  0.00    -0.471 OA
ATOM     13  C   UNL     1      32.887 -20.581 -20.484  0.00  0.00    +0.252 C 
ENDBRANCH   9  12
BRANCH   3  14
ATOM     14  C   UNL     1      33.995 -24.253 -14.952  0.00  0.00    +0.050 C 
BRANCH  14  15
ATOM     15  C   UNL     1      32.783 -23.386 -14.579  0.00  0.00    +0.094 C 
BRANCH  15  17
ATOM     16  O   UNL     1      30.851 -24.726 -12.876  0.00  0.00    -0.275 OA
ATOM     17  N   UNL     1      31.539 -23.988 -14.975  0.00  0.00    -0.304 N 
ATOM     18  C   UNL     1      30.674 -24.610 -14.086  0.00  0.00    +0.223 C 
ATOM     19  C   UNL     1      29.432 -25.130 -14.759  0.00  0.00    +0.095 C 
ATOM     20  H   UNL     1      31.287 -23.956 -15.927  0.00  0.00    +0.149 HD
ENDBRANCH  15  17
ENDBRANCH  14  15
ENDBRANCH   3  14
TORSDOF 4
ENDMDL
MODEL 6
REMARK VINA RESULT:      -7.7      8.158     11.422
REMARK  Name = 115348
REMARK  4 active torsions:
REMARK  status: ('A' for Active; 'I' for Inactive)
REMARK    1  A    between atoms: C_3  and  C_14
REMARK    2  A    between atoms: C_9  and  O_12
REMARK    3  A    between atoms: C_14  and  C_15
REMARK    4  A    between atoms: C_15  and  N_17
REMARK                            x       y       z     vdW  Elec       q    Type
REMARK                         _______ _______ _______ _____ _____    ______ ____
ROOT
ATOM      1  I   UNL     1      31.710 -23.517 -14.432  0.00  0.00    -0.024 I 
ATOM      2  N   UNL     1      34.310 -24.669 -13.324  0.00  0.00    -0.349 N 
ATOM      3  C   UNL     1      34.713 -23.581 -15.215  0.00  0.00    +0.002 A 
ATOM      4  C   UNL     1      35.945 -24.101 -14.731  0.00  0.00    +0.016 A 
ATOM      5  C   UNL     1      35.665 -24.781 -13.543  0.00  0.00    +0.057 A 
ATOM      6  C   UNL     1      33.727 -23.945 -14.329  0.00  0.00    +0.083 A 
ATOM      7  C   UNL     1      37.277 -24.061 -15.191  0.00  0.00    +0.038 C 
ATOM      8  C   UNL     1      36.652 -25.424 -12.789  0.00  0.00    +0.020 C 
ATOM      9  C   UNL     1      38.276 -24.700 -14.446  0.00  0.00    +0.139 C 
ATOM     10  C   UNL     1      37.966 -25.370 -13.264  0.00  0.00    +0.038 C 
ATOM     11  H   UNL     1      33.830 -25.053 -12.554  0.00  0.00    +0.166 HD
ENDROOT
BRANCH   9  12
ATOM     12  O   UNL     1      39.566 -24.667 -14.886  0.00  0.00    -0.471 OA
ATOM     13  C   UNL     1      40.369 -25.815 -14.623  0.00  0.00    +0.252 C 
ENDBRANCH   9  12
BRANCH   3  14
ATOM     14  C   UNL     1      34.545 -22.790 -16.455  0.00  0.00    +0.050 C 
BRANCH  14  15
ATOM     15  C   UNL     1      33.588 -23.421 -17.476  0.00  0.00    +0.094 C 
BRANCH  15  17
ATOM     16  O   UNL     1      34.977 -21.983 -19.581  0.00  0.00    -0.275 OA
ATOM     17  N   UNL     1      33.036 -22.449 -18.381  0.00  0.00    -0.304 N 
ATOM     18  C   UNL     1      33.782 -21.809 -19.362  0.00  0.00    +0.223 C 
ATOM     19  C   UNL     1      32.954 -20.860 -20.186  0.00  0.00    +0.095 C 
ATOM     20  H   UNL     1      32.080 -22.226 -18.302  0.00  0.00    +0.149 HD
ENDBRANCH  15  17
ENDBRANCH  14  15
ENDBRANCH   3  14
TORSDOF 4
ENDMDL
MODEL 7
REMARK VINA RESULT:      -7.7      3.146      4.158
REMARK  Name = 115348
REMARK  4 active torsions:
REMARK  status: ('A' for Active; 'I' for Inactive)
REMARK    1  A    between atoms: C_3  and  C_14
REMARK    2  A    between atoms: C_9  and  O_12
REMARK    3  A    between atoms: C_14  and  C_15
REMARK    4  A    between atoms: C_15  and  N_17
REMARK                            x       y       z     vdW  Elec       q    Type
REMARK                         _______ _______ _______ _____ _____    ______ ____
ROOT
ATOM      1  I   UNL     1      31.219 -11.379 -21.542  0.00  0.00    -0.024 I 
ATOM      2  N   UNL     1      32.797 -13.826 -20.630  0.00  0.00    -0.349 N 
ATOM      3  C   UNL     1      32.923 -13.627 -22.837  0.00  0.00    +0.002 A 
ATOM      4  C   UNL     1      33.668 -14.776 -22.450  0.00  0.00    +0.016 A 
ATOM      5  C   UNL     1      33.573 -14.879 -21.061  0.00  0.00    +0.057 A 
ATOM      6  C   UNL     1      32.400 -13.064 -21.696  0.00  0.00    +0.083 A 
ATOM      7  C   UNL     1      34.417 -15.742 -23.152  0.00  0.00    +0.038 C 
ATOM      8  C   UNL     1      34.191 -15.903 -20.335  0.00  0.00    +0.020 C 
ATOM      9  C   UNL     1      35.041 -16.773 -22.439  0.00  0.00    +0.139 C 
ATOM     10  C   UNL     1      34.929 -16.850 -21.052  0.00  0.00    +0.038 C 
ATOM     11  H   UNL     1      32.563 -13.647 -19.690  0.00  0.00    +0.166 HD
ENDROOT
BRANCH   9  12
ATOM     12  O   UNL     1      35.766 -17.711 -23.111  0.00  0.00    -0.471 OA
ATOM     13  C   UNL     1      35.034 -18.715 -23.811  0.00  0.00    +0.252 C 
ENDBRANCH   9  12
BRANCH   3  14
ATOM     14  C   UNL     1      32.753 -13.142 -24.224  0.00  0.00    +0.050 C 
BRANCH  14  15
ATOM     15  C   UNL     1      33.974 -12.393 -24.779  0.00  0.00    +0.094 C 
BRANCH  15  17
ATOM     16  O   UNL     1      35.616 -10.215 -25.775  0.00  0.00    -0.275 OA
ATOM     17  N   UNL     1      34.099 -11.070 -24.228  0.00  0.00    -0.304 N 
ATOM     18  C   UNL     1      34.914 -10.089 -24.775  0.00  0.00    +0.223 C 
ATOM     19  C   UNL     1      34.839  -8.790 -24.018  0.00  0.00    +0.095 C 
ATOM     20  H   UNL     1      33.580 -10.849 -23.421  0.00  0.00    +0.149 HD
ENDBRANCH  15  17
ENDBRANCH  14  15
ENDBRANCH   3  14
TORSDOF 4
ENDMDL
MODEL 8
REMARK VINA RESULT:      -7.6     10.575     12.845
REMARK  Name = 115348
REMARK  4 active torsions:
REMARK  status: ('A' for Active; 'I' for Inactive)
REMARK    1  A    between atoms: C_3  and  C_14
REMARK    2  A    between atoms: C_9  and  O_12
REMARK    3  A    between atoms: C_14  and  C_15
REMARK    4  A    between atoms: C_15  and  N_17
REMARK                            x       y       z     vdW  Elec       q    Type
REMARK                         _______ _______ _______ _____ _____    ______ ____
ROOT
ATOM      1  I   UNL     1      37.409 -22.335 -16.224  0.00  0.00    -0.024 I 
ATOM      2  N   UNL     1      34.442 -22.789 -16.775  0.00  0.00    -0.349 N 
ATOM      3  C   UNL     1      34.940 -23.463 -14.720  0.00  0.00    +0.002 A 
ATOM      4  C   UNL     1      33.553 -23.690 -14.939  0.00  0.00    +0.016 A 
ATOM      5  C   UNL     1      33.266 -23.259 -16.236  0.00  0.00    +0.057 A 
ATOM      6  C   UNL     1      35.459 -22.908 -15.865  0.00  0.00    +0.083 A 
ATOM      7  C   UNL     1      32.509 -24.223 -14.156  0.00  0.00    +0.038 C 
ATOM      8  C   UNL     1      31.984 -23.335 -16.792  0.00  0.00    +0.020 C 
ATOM      9  C   UNL     1      31.221 -24.306 -14.698  0.00  0.00    +0.139 C 
ATOM     10  C   UNL     1      30.965 -23.867 -15.996  0.00  0.00    +0.038 C 
ATOM     11  H   UNL     1      34.538 -22.419 -17.683  0.00  0.00    +0.166 HD
ENDROOT
BRANCH   9  12
ATOM     12  O   UNL     1      30.207 -24.821 -13.947  0.00  0.00    -0.471 OA
ATOM     13  C   UNL     1      28.981 -25.100 -14.619  0.00  0.00    +0.252 C 
ENDBRANCH   9  12
BRANCH   3  14
ATOM     14  C   UNL     1      35.673 -23.775 -13.473  0.00  0.00    +0.050 C 
BRANCH  14  15
ATOM     15  C   UNL     1      36.385 -25.136 -13.489  0.00  0.00    +0.094 C 
BRANCH  15  17
ATOM     16  O   UNL     1      38.271 -26.985 -14.696  0.00  0.00    -0.275 OA
ATOM     17  N   UNL     1      37.816 -25.002 -13.561  0.00  0.00    -0.304 N 
ATOM     18  C   UNL     1      38.641 -25.943 -14.161  0.00  0.00    +0.223 C 
ATOM     19  C   UNL     1      40.092 -25.544 -14.120  0.00  0.00    +0.095 C 
ATOM     20  H   UNL     1      38.231 -24.202 -13.164  0.00  0.00    +0.149 HD
ENDBRANCH  15  17
ENDBRANCH  14  15
ENDBRANCH   3  14
TORSDOF 4
ENDMDL
MODEL 9
REMARK VINA RESULT:      -7.6      5.617      9.141
REMARK  Name = 115348
REMARK  4 active torsions:
REMARK  status: ('A' for Active; 'I' for Inactive)
REMARK    1  A    between atoms: C_3  and  C_14
REMARK    2  A    between atoms: C_9  and  O_12
REMARK    3  A    between atoms: C_14  and  C_15
REMARK    4  A    between atoms: C_15  and  N_17
REMARK                            x       y       z     vdW  Elec       q    Type
REMARK                         _______ _______ _______ _____ _____    ______ ____
ROOT
ATOM      1  I   UNL     1      33.637 -23.535 -16.935  0.00  0.00    -0.024 I 
ATOM      2  N   UNL     1      32.993 -21.548 -19.160  0.00  0.00    -0.349 N 
ATOM      3  C   UNL     1      35.191 -21.695 -18.893  0.00  0.00    +0.002 A 
ATOM      4  C   UNL     1      34.931 -20.762 -19.935  0.00  0.00    +0.016 A 
ATOM      5  C   UNL     1      33.545 -20.688 -20.083  0.00  0.00    +0.057 A 
ATOM      6  C   UNL     1      33.981 -22.161 -18.436  0.00  0.00    +0.083 A 
ATOM      7  C   UNL     1      35.745 -19.970 -20.770  0.00  0.00    +0.038 C 
ATOM      8  C   UNL     1      32.928 -19.859 -21.027  0.00  0.00    +0.020 C 
ATOM      9  C   UNL     1      35.143 -19.136 -21.719  0.00  0.00    +0.139 C 
ATOM     10  C   UNL     1      33.756 -19.083 -21.844  0.00  0.00    +0.038 C 
ATOM     11  H   UNL     1      32.028 -21.701 -19.039  0.00  0.00    +0.166 HD
ENDROOT
BRANCH   9  12
ATOM     12  O   UNL     1      35.924 -18.366 -22.529  0.00  0.00    -0.471 OA
ATOM     13  C   UNL     1      35.286 -17.747 -23.644  0.00  0.00    +0.252 C 
ENDBRANCH   9  12
BRANCH   3  14
ATOM     14  C   UNL     1      36.533 -22.080 -18.402  0.00  0.00    +0.050 C 
BRANCH  14  15
ATOM     15  C   UNL     1      36.756 -21.807 -16.907  0.00  0.00    +0.094 C 
BRANCH  15  17
ATOM     16  O   UNL     1      36.290 -23.084 -14.342  0.00  0.00    -0.275 OA
ATOM     17  N   UNL     1      37.555 -22.825 -16.280  0.00  0.00    -0.304 N 
ATOM     18  C   UNL     1      37.253 -23.380 -15.044  0.00  0.00    +0.223 C 
ATOM     19  C   UNL     1      38.238 -24.442 -14.633  0.00  0.00    +0.095 C 
ATOM     20  H   UNL     1      38.358 -23.145 -16.751  0.00  0.00    +0.149 HD
ENDBRANCH  15  17
ENDBRANCH  14  15
ENDBRANCH   3  14
TORSDOF 4
ENDMDL
