MODEL 1
REMARK VINA RESULT:      -9.3      0.000      0.000
REMARK  Name = 24916772
REMARK  4 active torsions:
REMARK  status: ('A' for Active; 'I' for Inactive)
REMARK    1  A    between atoms: C_4  and  C_13
REMARK    2  A    between atoms: C_8  and  O_14
REMARK    3  A    between atoms: O_14  and  C_16
REMARK    4  A    between atoms: C_16  and  C_17
REMARK                            x       y       z     vdW  Elec       q    Type
REMARK                         _______ _______ _______ _____ _____    ______ ____
ROOT
ATOM      1  N   UNL     1      35.498 -23.356 -13.664  0.00  0.00    +0.389 N 
ATOM      2  C   UNL     1      34.896 -24.614 -14.280  0.00  0.00    -0.044 C 
ATOM      3  C   UNL     1      36.513 -22.943 -14.709  0.00  0.00    -0.055 C 
ATOM      4  C   UNL     1      33.977 -24.173 -15.435  0.00  0.00    +0.125 C 
ATOM      5  C   UNL     1      36.139 -25.357 -14.782  0.00  0.00    -0.022 C 
ATOM      6  C   UNL     1      37.182 -24.270 -15.074  0.00  0.00    -0.023 C 
ATOM      7  C   UNL     1      35.709 -22.333 -15.867  0.00  0.00    +0.023 C 
ATOM      8  C   UNL     1      34.721 -23.331 -16.485  0.00  0.00    +0.176 C 
ATOM      9  C   UNL     1      36.050 -23.535 -12.281  0.00  0.00    -0.100 C 
ATOM     10  H   UNL     1      34.802 -22.633 -13.480  0.00  0.00    -0.080 HD
ENDROOT
BRANCH   4  13
ATOM     11  O   UNL     1      31.939 -23.022 -15.736  0.00  0.00    -0.246 OA
ATOM     12  O   UNL     1      32.726 -23.361 -13.614  0.00  0.00    -0.246 OA
ATOM     13  C   UNL     1      32.759 -23.446 -14.874  0.00  0.00    +0.366 C 
ENDBRANCH   4  13
BRANCH   8  14
ATOM     14  O   UNL     1      33.829 -22.645 -17.356  0.00  0.00    -0.449 OA
BRANCH  14  16
ATOM     15  O   UNL     1      33.858 -24.061 -19.171  0.00  0.00    -0.245 OA
ATOM     16  C   UNL     1      33.937 -22.946 -18.680  0.00  0.00    +0.341 C 
BRANCH  16  17
ATOM     17  C   UNL     1      34.169 -21.718 -19.480  0.00  0.00    +0.076 C 
ATOM     18  C   UNL     1      35.471 -21.329 -19.799  0.00  0.00    +0.006 C 
ATOM     19  C   UNL     1      33.087 -20.954 -19.917  0.00  0.00    +0.006 C 
ATOM     20  C   UNL     1      35.690 -20.175 -20.551  0.00  0.00    +0.000 C 
ATOM     21  C   UNL     1      33.306 -19.800 -20.669  0.00  0.00    +0.000 C 
ATOM     22  C   UNL     1      34.607 -19.410 -20.986  0.00  0.00    +0.000 C 
ENDBRANCH  16  17
ENDBRANCH  14  16
ENDBRANCH   8  14
TORSDOF 4
ENDMDL
MODEL 2
REMARK VINA RESULT:      -9.1      1.852      2.947
REMARK  Name = 24916772
REMARK  4 active torsions:
REMARK  status: ('A' for Active; 'I' for Inactive)
REMARK    1  A    between atoms: C_4  and  C_13
REMARK    2  A    between atoms: C_8  and  O_14
REMARK    3  A    between atoms: O_14  and  C_16
REMARK    4  A    between atoms: C_16  and  C_17
REMARK                            x       y       z     vdW  Elec       q    Type
REMARK                         _______ _______ _______ _____ _____    ______ ____
ROOT
ATOM      1  N   UNL     1      37.444 -24.497 -13.631  0.00  0.00    +0.389 N 
ATOM      2  C   UNL     1      36.818 -23.112 -13.523  0.00  0.00    -0.044 C 
ATOM      3  C   UNL     1      36.229 -25.386 -13.797  0.00  0.00    -0.055 C 
ATOM      4  C   UNL     1      36.340 -22.706 -14.930  0.00  0.00    +0.125 C 
ATOM      5  C   UNL     1      35.648 -23.357 -12.564  0.00  0.00    -0.022 C 
ATOM      6  C   UNL     1      35.258 -24.829 -12.753  0.00  0.00    -0.023 C 
ATOM      7  C   UNL     1      35.746 -25.181 -15.242  0.00  0.00    +0.023 C 
ATOM      8  C   UNL     1      35.355 -23.726 -15.529  0.00  0.00    +0.176 C 
ATOM      9  C   UNL     1      38.349 -24.869 -12.493  0.00  0.00    -0.100 C 
ATOM     10  H   UNL     1      38.102 -24.576 -14.407  0.00  0.00    -0.080 HD
ENDROOT
BRANCH   4  13
ATOM     11  O   UNL     1      38.441 -23.360 -15.783  0.00  0.00    -0.246 OA
ATOM     12  O   UNL     1      37.493 -21.414 -16.524  0.00  0.00    -0.246 OA
ATOM     13  C   UNL     1      37.545 -22.471 -15.835  0.00  0.00    +0.366 C 
ENDBRANCH   4  13
BRANCH   8  14
ATOM     14  O   UNL     1      35.179 -23.545 -16.930  0.00  0.00    -0.449 OA
BRANCH  14  16
ATOM     15  O   UNL     1      32.888 -23.342 -16.820  0.00  0.00    -0.245 OA
ATOM     16  C   UNL     1      33.966 -23.065 -17.322  0.00  0.00    +0.341 C 
BRANCH  16  17
ATOM     17  C   UNL     1      34.116 -22.134 -18.468  0.00  0.00    +0.076 C 
ATOM     18  C   UNL     1      35.386 -21.843 -18.968  0.00  0.00    +0.006 C 
ATOM     19  C   UNL     1      32.988 -21.553 -19.048  0.00  0.00    +0.006 C 
ATOM     20  C   UNL     1      35.527 -20.968 -20.046  0.00  0.00    +0.000 C 
ATOM     21  C   UNL     1      33.130 -20.679 -20.126  0.00  0.00    +0.000 C 
ATOM     22  C   UNL     1      34.399 -20.386 -20.625  0.00  0.00    +0.000 C 
ENDBRANCH  16  17
ENDBRANCH  14  16
ENDBRANCH   8  14
TORSDOF 4
ENDMDL
MODEL 3
REMARK VINA RESULT:      -9.0      1.844      3.069
REMARK  Name = 24916772
REMARK  4 active torsions:
REMARK  status: ('A' for Active; 'I' for Inactive)
REMARK    1  A    between atoms: C_4  and  C_13
REMARK    2  A    between atoms: C_8  and  O_14
REMARK    3  A    between atoms: O_14  and  C_16
REMARK    4  A    between atoms: C_16  and  C_17
REMARK                            x       y       z     vdW  Elec       q    Type
REMARK                         _______ _______ _______ _____ _____    ______ ____
ROOT
ATOM      1  N   UNL     1      37.409 -24.510 -13.674  0.00  0.00    +0.389 N 
ATOM      2  C   UNL     1      36.802 -23.117 -13.561  0.00  0.00    -0.044 C 
ATOM      3  C   UNL     1      36.183 -25.379 -13.858  0.00  0.00    -0.055 C 
ATOM      4  C   UNL     1      36.343 -22.694 -14.969  0.00  0.00    +0.125 C 
ATOM      5  C   UNL     1      35.621 -23.352 -12.614  0.00  0.00    -0.022 C 
ATOM      6  C   UNL     1      35.211 -24.817 -12.818  0.00  0.00    -0.023 C 
ATOM      7  C   UNL     1      35.715 -25.157 -15.305  0.00  0.00    +0.023 C 
ATOM      8  C   UNL     1      35.349 -23.694 -15.585  0.00  0.00    +0.176 C 
ATOM      9  C   UNL     1      38.299 -24.904 -12.532  0.00  0.00    -0.100 C 
ATOM     10  H   UNL     1      38.073 -24.593 -14.446  0.00  0.00    -0.080 HD
ENDROOT
BRANCH   4  13
ATOM     11  O   UNL     1      37.525 -21.423 -16.568  0.00  0.00    -0.246 OA
ATOM     12  O   UNL     1      38.448 -23.363 -15.781  0.00  0.00    -0.246 OA
ATOM     13  C   UNL     1      37.559 -22.470 -15.862  0.00  0.00    +0.366 C 
ENDBRANCH   4  13
BRANCH   8  14
ATOM     14  O   UNL     1      35.187 -23.500 -16.985  0.00  0.00    -0.449 OA
BRANCH  14  16
ATOM     15  O   UNL     1      32.892 -23.330 -16.899  0.00  0.00    -0.245 OA
ATOM     16  C   UNL     1      33.972 -23.035 -17.387  0.00  0.00    +0.341 C 
BRANCH  16  17
ATOM     17  C   UNL     1      34.121 -22.095 -18.526  0.00  0.00    +0.076 C 
ATOM     18  C   UNL     1      32.991 -21.517 -19.106  0.00  0.00    +0.006 C 
ATOM     19  C   UNL     1      35.390 -21.787 -19.016  0.00  0.00    +0.006 C 
ATOM     20  C   UNL     1      33.130 -20.634 -20.177  0.00  0.00    +0.000 C 
ATOM     21  C   UNL     1      35.529 -20.904 -20.087  0.00  0.00    +0.000 C 
ATOM     22  C   UNL     1      34.399 -20.327 -20.667  0.00  0.00    +0.000 C 
ENDBRANCH  16  17
ENDBRANCH  14  16
ENDBRANCH   8  14
TORSDOF 4
ENDMDL
MODEL 4
REMARK VINA RESULT:      -9.0      1.059      1.704
REMARK  Name = 24916772
REMARK  4 active torsions:
REMARK  status: ('A' for Active; 'I' for Inactive)
REMARK    1  A    between atoms: C_4  and  C_13
REMARK    2  A    between atoms: C_8  and  O_14
REMARK    3  A    between atoms: O_14  and  C_16
REMARK    4  A    between atoms: C_16  and  C_17
REMARK                            x       y       z     vdW  Elec       q    Type
REMARK                         _______ _______ _______ _____ _____    ______ ____
ROOT
ATOM      1  N   UNL     1      36.626 -24.063 -13.327  0.00  0.00    +0.389 N 
ATOM      2  C   UNL     1      36.027 -25.240 -14.087  0.00  0.00    -0.044 C 
ATOM      3  C   UNL     1      37.429 -23.363 -14.404  0.00  0.00    -0.055 C 
ATOM      4  C   UNL     1      34.905 -24.690 -14.989  0.00  0.00    +0.125 C 
ATOM      5  C   UNL     1      37.224 -25.748 -14.898  0.00  0.00    -0.022 C 
ATOM      6  C   UNL     1      38.126 -24.525 -15.115  0.00  0.00    -0.023 C 
ATOM      7  C   UNL     1      36.408 -22.635 -15.292  0.00  0.00    +0.023 C 
ATOM      8  C   UNL     1      35.409 -23.598 -15.948  0.00  0.00    +0.176 C 
ATOM      9  C   UNL     1      37.404 -24.436 -12.100  0.00  0.00    -0.100 C 
ATOM     10  H   UNL     1      35.918 -23.460 -12.907  0.00  0.00    -0.080 HD
ENDROOT
BRANCH   4  13
ATOM     11  O   UNL     1      34.031 -23.956 -12.924  0.00  0.00    -0.246 OA
ATOM     12  O   UNL     1      32.637 -24.118 -14.730  0.00  0.00    -0.246 OA
ATOM     13  C   UNL     1      33.743 -24.207 -14.127  0.00  0.00    +0.366 C 
ENDBRANCH   4  13
BRANCH   8  14
ATOM     14  O   UNL     1      34.342 -22.858 -16.530  0.00  0.00    -0.449 OA
BRANCH  14  16
ATOM     15  O   UNL     1      33.466 -24.226 -18.161  0.00  0.00    -0.245 OA
ATOM     16  C   UNL     1      34.011 -23.192 -17.807  0.00  0.00    +0.341 C 
BRANCH  16  17
ATOM     17  C   UNL     1      34.402 -22.114 -18.750  0.00  0.00    +0.076 C 
ATOM     18  C   UNL     1      33.420 -21.385 -19.422  0.00  0.00    +0.006 C 
ATOM     19  C   UNL     1      35.750 -21.827 -18.961  0.00  0.00    +0.006 C 
ATOM     20  C   UNL     1      33.787 -20.372 -20.308  0.00  0.00    +0.000 C 
ATOM     21  C   UNL     1      36.117 -20.814 -19.848  0.00  0.00    +0.000 C 
ATOM     22  C   UNL     1      35.136 -20.087 -20.521  0.00  0.00    +0.000 C 
ENDBRANCH  16  17
ENDBRANCH  14  16
ENDBRANCH   8  14
TORSDOF 4
ENDMDL
MODEL 5
REMARK VINA RESULT:      -8.7      3.312      4.915
REMARK  Name = 24916772
REMARK  4 active torsions:
REMARK  status: ('A' for Active; 'I' for Inactive)
REMARK    1  A    between atoms: C_4  and  C_13
REMARK    2  A    between atoms: C_8  and  O_14
REMARK    3  A    between atoms: O_14  and  C_16
REMARK    4  A    between atoms: C_16  and  C_17
REMARK                            x       y       z     vdW  Elec       q    Type
REMARK                         _______ _______ _______ _____ _____    ______ ____
ROOT
ATOM      1  N   UNL     1      38.608 -25.125 -14.884  0.00  0.00    +0.389 N 
ATOM      2  C   UNL     1      38.255 -24.048 -13.865  0.00  0.00    -0.044 C 
ATOM      3  C   UNL     1      37.753 -26.289 -14.427  0.00  0.00    -0.055 C 
ATOM      4  C   UNL     1      36.843 -23.533 -14.202  0.00  0.00    +0.125 C 
ATOM      5  C   UNL     1      38.288 -24.825 -12.544  0.00  0.00    -0.022 C 
ATOM      6  C   UNL     1      37.947 -26.276 -12.909  0.00  0.00    -0.023 C 
ATOM      7  C   UNL     1      36.315 -25.956 -14.855  0.00  0.00    +0.023 C 
ATOM      8  C   UNL     1      35.797 -24.662 -14.214  0.00  0.00    +0.176 C 
ATOM      9  C   UNL     1      40.073 -25.425 -15.001  0.00  0.00    -0.100 C 
ATOM     10  H   UNL     1      38.412 -24.843 -15.844  0.00  0.00    -0.080 HD
ENDROOT
BRANCH   4  13
ATOM     11  O   UNL     1      35.762 -22.315 -15.910  0.00  0.00    -0.246 OA
ATOM     12  O   UNL     1      38.016 -22.680 -16.055  0.00  0.00    -0.246 OA
ATOM     13  C   UNL     1      36.875 -22.766 -15.520  0.00  0.00    +0.366 C 
ENDBRANCH   4  13
BRANCH   8  14
ATOM     14  O   UNL     1      34.585 -24.266 -14.846  0.00  0.00    -0.449 OA
BRANCH  14  16
ATOM     15  O   UNL     1      33.471 -24.374 -12.834  0.00  0.00    -0.245 OA
ATOM     16  C   UNL     1      33.501 -24.140 -14.033  0.00  0.00    +0.341 C 
BRANCH  16  17
ATOM     17  C   UNL     1      32.321 -23.670 -14.800  0.00  0.00    +0.076 C 
ATOM     18  C   UNL     1      32.455 -23.329 -16.146  0.00  0.00    +0.006 C 
ATOM     19  C   UNL     1      31.077 -23.572 -14.177  0.00  0.00    +0.006 C 
ATOM     20  C   UNL     1      31.346 -22.886 -16.868  0.00  0.00    +0.000 C 
ATOM     21  C   UNL     1      29.968 -23.129 -14.899  0.00  0.00    +0.000 C 
ATOM     22  C   UNL     1      30.103 -22.786 -16.244  0.00  0.00    +0.000 C 
ENDBRANCH  16  17
ENDBRANCH  14  16
ENDBRANCH   8  14
TORSDOF 4
ENDMDL
MODEL 6
REMARK VINA RESULT:      -8.6      2.203      3.284
REMARK  Name = 24916772
REMARK  4 active torsions:
REMARK  status: ('A' for Active; 'I' for Inactive)
REMARK    1  A    between atoms: C_4  and  C_13
REMARK    2  A    between atoms: C_8  and  O_14
REMARK    3  A    between atoms: O_14  and  C_16
REMARK    4  A    between atoms: C_16  and  C_17
REMARK                            x       y       z     vdW  Elec       q    Type
REMARK                         _______ _______ _______ _____ _____    ______ ____
ROOT
ATOM      1  N   UNL     1      35.990 -24.602 -12.479  0.00  0.00    +0.389 N 
ATOM      2  C   UNL     1      37.255 -25.287 -12.982  0.00  0.00    -0.044 C 
ATOM      3  C   UNL     1      36.346 -23.136 -12.612  0.00  0.00    -0.055 C 
ATOM      4  C   UNL     1      37.293 -25.126 -14.514  0.00  0.00    +0.125 C 
ATOM      5  C   UNL     1      38.359 -24.482 -12.288  0.00  0.00    -0.022 C 
ATOM      6  C   UNL     1      37.773 -23.083 -12.062  0.00  0.00    -0.023 C 
ATOM      7  C   UNL     1      36.264 -22.812 -14.112  0.00  0.00    +0.023 C 
ATOM      8  C   UNL     1      37.240 -23.651 -14.948  0.00  0.00    +0.176 C 
ATOM      9  C   UNL     1      35.549 -25.023 -11.108  0.00  0.00    -0.100 C 
ATOM     10  H   UNL     1      35.160 -24.858 -13.014  0.00  0.00    -0.080 HD
ENDROOT
BRANCH   4  13
ATOM     11  O   UNL     1      35.008 -25.518 -14.949  0.00  0.00    -0.246 OA
ATOM     12  O   UNL     1      36.567 -26.967 -15.789  0.00  0.00    -0.246 OA
ATOM     13  C   UNL     1      36.177 -25.952 -15.146  0.00  0.00    +0.366 C 
ENDBRANCH   4  13
BRANCH   8  14
ATOM     14  O   UNL     1      36.934 -23.507 -16.330  0.00  0.00    -0.449 OA
BRANCH  14  16
ATOM     15  O   UNL     1      37.678 -21.334 -16.489  0.00  0.00    -0.245 OA
ATOM     16  C   UNL     1      36.914 -22.232 -16.807  0.00  0.00    +0.341 C 
BRANCH  16  17
ATOM     17  C   UNL     1      35.817 -22.058 -17.792  0.00  0.00    +0.076 C 
ATOM     18  C   UNL     1      36.038 -21.326 -18.960  0.00  0.00    +0.006 C 
ATOM     19  C   UNL     1      34.567 -22.628 -17.553  0.00  0.00    +0.006 C 
ATOM     20  C   UNL     1      35.008 -21.162 -19.886  0.00  0.00    +0.000 C 
ATOM     21  C   UNL     1      33.537 -22.463 -18.479  0.00  0.00    +0.000 C 
ATOM     22  C   UNL     1      33.757 -21.730 -19.646  0.00  0.00    +0.000 C 
ENDBRANCH  16  17
ENDBRANCH  14  16
ENDBRANCH   8  14
TORSDOF 4
ENDMDL
MODEL 7
REMARK VINA RESULT:      -8.6      3.436      4.736
REMARK  Name = 24916772
REMARK  4 active torsions:
REMARK  status: ('A' for Active; 'I' for Inactive)
REMARK    1  A    between atoms: C_4  and  C_13
REMARK    2  A    between atoms: C_8  and  O_14
REMARK    3  A    between atoms: O_14  and  C_16
REMARK    4  A    between atoms: C_16  and  C_17
REMARK                            x       y       z     vdW  Elec       q    Type
REMARK                         _______ _______ _______ _____ _____    ______ ____
ROOT
ATOM      1  N   UNL     1      38.101 -24.768 -13.603  0.00  0.00    +0.389 N 
ATOM      2  C   UNL     1      37.210 -25.770 -12.879  0.00  0.00    -0.044 C 
ATOM      3  C   UNL     1      37.534 -24.792 -15.007  0.00  0.00    -0.055 C 
ATOM      4  C   UNL     1      35.840 -25.101 -12.660  0.00  0.00    +0.125 C 
ATOM      5  C   UNL     1      37.135 -26.925 -13.884  0.00  0.00    -0.022 C 
ATOM      6  C   UNL     1      37.331 -26.286 -15.265  0.00  0.00    -0.023 C 
ATOM      7  C   UNL     1      36.216 -24.004 -14.947  0.00  0.00    +0.023 C 
ATOM      8  C   UNL     1      35.203 -24.628 -13.979  0.00  0.00    +0.176 C 
ATOM      9  C   UNL     1      39.572 -25.052 -13.511  0.00  0.00    -0.100 C 
ATOM     10  H   UNL     1      38.078 -23.839 -13.182  0.00  0.00    -0.080 HD
ENDROOT
BRANCH   4  13
ATOM     11  O   UNL     1      36.706 -23.002 -12.017  0.00  0.00    -0.246 OA
ATOM     12  O   UNL     1      35.342 -24.136 -10.572  0.00  0.00    -0.246 OA
ATOM     13  C   UNL     1      35.977 -23.966 -11.650  0.00  0.00    +0.366 C 
ENDBRANCH   4  13
BRANCH   8  14
ATOM     14  O   UNL     1      34.126 -23.723 -13.763  0.00  0.00    -0.449 OA
BRANCH  14  16
ATOM     15  O   UNL     1      32.552 -25.157 -12.886  0.00  0.00    -0.245 OA
ATOM     16  C   UNL     1      32.887 -24.281 -13.668  0.00  0.00    +0.341 C 
BRANCH  16  17
ATOM     17  C   UNL     1      31.963 -23.676 -14.659  0.00  0.00    +0.076 C 
ATOM     18  C   UNL     1      32.417 -23.376 -15.944  0.00  0.00    +0.006 C 
ATOM     19  C   UNL     1      30.639 -23.410 -14.308  0.00  0.00    +0.006 C 
ATOM     20  C   UNL     1      31.548 -22.808 -16.876  0.00  0.00    +0.000 C 
ATOM     21  C   UNL     1      29.771 -22.842 -15.240  0.00  0.00    +0.000 C 
ATOM     22  C   UNL     1      30.225 -22.541 -16.524  0.00  0.00    +0.000 C 
ENDBRANCH  16  17
ENDBRANCH  14  16
ENDBRANCH   8  14
TORSDOF 4
ENDMDL
MODEL 8
REMARK VINA RESULT:      -8.4      3.086      4.396
REMARK  Name = 24916772
REMARK  4 active torsions:
REMARK  status: ('A' for Active; 'I' for Inactive)
REMARK    1  A    between atoms: C_4  and  C_13
REMARK    2  A    between atoms: C_8  and  O_14
REMARK    3  A    between atoms: O_14  and  C_16
REMARK    4  A    between atoms: C_16  and  C_17
REMARK                            x       y       z     vdW  Elec       q    Type
REMARK                         _______ _______ _______ _____ _____    ______ ____
ROOT
ATOM      1  N   UNL     1      38.143 -24.878 -13.470  0.00  0.00    +0.389 N 
ATOM      2  C   UNL     1      36.909 -25.720 -13.166  0.00  0.00    -0.044 C 
ATOM      3  C   UNL     1      38.135 -24.836 -14.984  0.00  0.00    -0.055 C 
ATOM      4  C   UNL     1      35.670 -24.844 -13.435  0.00  0.00    +0.125 C 
ATOM      5  C   UNL     1      37.038 -26.865 -14.176  0.00  0.00    -0.022 C 
ATOM      6  C   UNL     1      37.821 -26.285 -15.361  0.00  0.00    -0.023 C 
ATOM      7  C   UNL     1      37.020 -23.854 -15.378  0.00  0.00    +0.023 C 
ATOM      8  C   UNL     1      35.641 -24.300 -14.874  0.00  0.00    +0.176 C 
ATOM      9  C   UNL     1      39.416 -25.383 -12.858  0.00  0.00    -0.100 C 
ATOM     10  H   UNL     1      38.104 -23.950 -13.048  0.00  0.00    -0.080 HD
ENDROOT
BRANCH   4  13
ATOM     11  O   UNL     1      34.547 -23.720 -11.691  0.00  0.00    -0.246 OA
ATOM     12  O   UNL     1      36.590 -22.953 -12.378  0.00  0.00    -0.246 OA
ATOM     13  C   UNL     1      35.593 -23.729 -12.398  0.00  0.00    +0.366 C 
ENDBRANCH   4  13
BRANCH   8  14
ATOM     14  O   UNL     1      34.707 -23.237 -15.029  0.00  0.00    -0.449 OA
BRANCH  14  16
ATOM     15  O   UNL     1      34.239 -23.438 -17.275  0.00  0.00    -0.245 OA
ATOM     16  C   UNL     1      33.886 -23.318 -16.111  0.00  0.00    +0.341 C 
BRANCH  16  17
ATOM     17  C   UNL     1      32.463 -23.239 -15.697  0.00  0.00    +0.076 C 
ATOM     18  C   UNL     1      32.117 -23.405 -14.355  0.00  0.00    +0.006 C 
ATOM     19  C   UNL     1      31.471 -22.998 -16.647  0.00  0.00    +0.006 C 
ATOM     20  C   UNL     1      30.780 -23.331 -13.964  0.00  0.00    +0.000 C 
ATOM     21  C   UNL     1      30.133 -22.925 -16.256  0.00  0.00    +0.000 C 
ATOM     22  C   UNL     1      29.788 -23.092 -14.915  0.00  0.00    +0.000 C 
ENDBRANCH  16  17
ENDBRANCH  14  16
ENDBRANCH   8  14
TORSDOF 4
ENDMDL
MODEL 9
REMARK VINA RESULT:      -8.3      3.524      5.299
REMARK  Name = 24916772
REMARK  4 active torsions:
REMARK  status: ('A' for Active; 'I' for Inactive)
REMARK    1  A    between atoms: C_4  and  C_13
REMARK    2  A    between atoms: C_8  and  O_14
REMARK    3  A    between atoms: O_14  and  C_16
REMARK    4  A    between atoms: C_16  and  C_17
REMARK                            x       y       z     vdW  Elec       q    Type
REMARK                         _______ _______ _______ _____ _____    ______ ____
ROOT
ATOM      1  N   UNL     1      37.079 -25.026 -13.222  0.00  0.00    +0.389 N 
ATOM      2  C   UNL     1      37.127 -23.548 -13.589  0.00  0.00    -0.044 C 
ATOM      3  C   UNL     1      36.075 -25.041 -12.087  0.00  0.00    -0.055 C 
ATOM      4  C   UNL     1      35.823 -23.211 -14.338  0.00  0.00    +0.125 C 
ATOM      5  C   UNL     1      37.196 -22.873 -12.215  0.00  0.00    -0.022 C 
ATOM      6  C   UNL     1      36.500 -23.836 -11.245  0.00  0.00    -0.023 C 
ATOM      7  C   UNL     1      34.694 -24.867 -12.738  0.00  0.00    +0.023 C 
ATOM      8  C   UNL     1      34.570 -23.546 -13.509  0.00  0.00    +0.176 C 
ATOM      9  C   UNL     1      38.410 -25.638 -12.897  0.00  0.00    -0.100 C 
ATOM     10  H   UNL     1      36.801 -25.621 -14.004  0.00  0.00    -0.080 HD
ENDROOT
BRANCH   4  13
ATOM     11  O   UNL     1      35.909 -25.164 -15.659  0.00  0.00    -0.246 OA
ATOM     12  O   UNL     1      35.715 -23.130 -16.687  0.00  0.00    -0.246 OA
ATOM     13  C   UNL     1      35.815 -23.906 -15.696  0.00  0.00    +0.366 C 
ENDBRANCH   4  13
BRANCH   8  14
ATOM     14  O   UNL     1      33.388 -23.563 -14.301  0.00  0.00    -0.449 OA
BRANCH  14  16
ATOM     15  O   UNL     1      32.126 -22.834 -12.519  0.00  0.00    -0.245 OA
ATOM     16  C   UNL     1      32.226 -23.297 -13.645  0.00  0.00    +0.341 C 
BRANCH  16  17
ATOM     17  C   UNL     1      31.055 -23.648 -14.487  0.00  0.00    +0.076 C 
ATOM     18  C   UNL     1      30.718 -22.849 -15.580  0.00  0.00    +0.006 C 
ATOM     19  C   UNL     1      30.294 -24.778 -14.188  0.00  0.00    +0.006 C 
ATOM     20  C   UNL     1      29.618 -23.179 -16.372  0.00  0.00    +0.000 C 
ATOM     21  C   UNL     1      29.194 -25.108 -14.981  0.00  0.00    +0.000 C 
ATOM     22  C   UNL     1      28.856 -24.308 -16.073  0.00  0.00    +0.000 C 
ENDBRANCH  16  17
ENDBRANCH  14  16
ENDBRANCH   8  14
TORSDOF 4
ENDMDL
