MODEL 1
REMARK VINA RESULT:      -9.5      0.000      0.000
REMARK  Name = 72792
REMARK  0 active torsions:
REMARK  status: ('A' for Active; 'I' for Inactive)
REMARK                            x       y       z     vdW  Elec       q    Type
REMARK                         _______ _______ _______ _____ _____    ______ ____
ROOT
ATOM      1  N   UNL     1      34.184 -17.731 -25.370  0.00  0.00    -0.242 NA
ATOM      2  N   UNL     1      33.537 -15.279 -26.395  0.00  0.00    -0.242 NA
ATOM      3  C   UNL     1      34.591 -16.750 -23.216  0.00  0.00    +0.015 C 
ATOM      4  C   UNL     1      33.933 -14.254 -24.260  0.00  0.00    +0.015 C 
ATOM      5  C   UNL     1      34.221 -16.641 -24.575  0.00  0.00    +0.099 C 
ATOM      6  C   UNL     1      33.891 -15.391 -25.098  0.00  0.00    +0.099 C 
ATOM      7  C   UNL     1      34.920 -18.015 -22.709  0.00  0.00    -0.019 C 
ATOM      8  C   UNL     1      33.598 -13.006 -24.804  0.00  0.00    -0.019 C 
ATOM      9  C   UNL     1      34.629 -15.619 -22.396  0.00  0.00    +0.001 C 
ATOM     10  C   UNL     1      34.301 -14.375 -22.916  0.00  0.00    +0.001 C 
ATOM     11  C   UNL     1      34.879 -19.130 -23.532  0.00  0.00    +0.016 C 
ATOM     12  C   UNL     1      33.235 -12.900 -26.137  0.00  0.00    +0.016 C 
ATOM     13  C   UNL     1      35.323 -18.227 -21.284  0.00  0.00    +0.031 C 
ATOM     14  C   UNL     1      33.615 -11.749 -23.992  0.00  0.00    +0.031 C 
ATOM     15  C   UNL     1      34.507 -18.934 -24.844  0.00  0.00    +0.099 C 
ATOM     16  C   UNL     1      33.220 -14.058 -26.884  0.00  0.00    +0.099 C 
ENDROOT
TORSDOF 0
ENDMDL
MODEL 2
REMARK VINA RESULT:      -9.5      0.012      4.749
REMARK  Name = 72792
REMARK  0 active torsions:
REMARK  status: ('A' for Active; 'I' for Inactive)
REMARK                            x       y       z     vdW  Elec       q    Type
REMARK                         _______ _______ _______ _____ _____    ______ ____
ROOT
ATOM      1  N   UNL     1      33.537 -15.293 -26.394  0.00  0.00    -0.242 NA
ATOM      2  N   UNL     1      34.184 -17.743 -25.365  0.00  0.00    -0.242 NA
ATOM      3  C   UNL     1      33.936 -14.265 -24.260  0.00  0.00    +0.015 C 
ATOM      4  C   UNL     1      34.595 -16.759 -23.214  0.00  0.00    +0.015 C 
ATOM      5  C   UNL     1      33.893 -15.403 -25.097  0.00  0.00    +0.099 C 
ATOM      6  C   UNL     1      34.223 -16.652 -24.573  0.00  0.00    +0.099 C 
ATOM      7  C   UNL     1      33.601 -13.018 -24.805  0.00  0.00    -0.019 C 
ATOM      8  C   UNL     1      34.924 -18.024 -22.706  0.00  0.00    -0.019 C 
ATOM      9  C   UNL     1      34.306 -14.383 -22.918  0.00  0.00    +0.001 C 
ATOM     10  C   UNL     1      34.634 -15.627 -22.396  0.00  0.00    +0.001 C 
ATOM     11  C   UNL     1      33.236 -12.913 -26.138  0.00  0.00    +0.016 C 
ATOM     12  C   UNL     1      34.881 -19.140 -23.526  0.00  0.00    +0.016 C 
ATOM     13  C   UNL     1      33.618 -11.759 -23.996  0.00  0.00    +0.031 C 
ATOM     14  C   UNL     1      35.328 -18.233 -21.279  0.00  0.00    +0.031 C 
ATOM     15  C   UNL     1      33.220 -14.073 -26.883  0.00  0.00    +0.099 C 
ATOM     16  C   UNL     1      34.508 -18.947 -24.839  0.00  0.00    +0.099 C 
ENDROOT
TORSDOF 0
ENDMDL
MODEL 3
REMARK VINA RESULT:      -8.5      1.608      5.476
REMARK  Name = 72792
REMARK  0 active torsions:
REMARK  status: ('A' for Active; 'I' for Inactive)
REMARK                            x       y       z     vdW  Elec       q    Type
REMARK                         _______ _______ _______ _____ _____    ______ ____
ROOT
ATOM      1  N   UNL     1      34.028 -13.760 -22.811  0.00  0.00    -0.242 NA
ATOM      2  N   UNL     1      34.785 -16.133 -21.684  0.00  0.00    -0.242 NA
ATOM      3  C   UNL     1      33.780 -14.826 -24.948  0.00  0.00    +0.015 C 
ATOM      4  C   UNL     1      34.551 -17.243 -23.800  0.00  0.00    +0.015 C 
ATOM      5  C   UNL     1      34.096 -14.872 -23.572  0.00  0.00    +0.099 C 
ATOM      6  C   UNL     1      34.482 -16.082 -22.997  0.00  0.00    +0.099 C 
ATOM      7  C   UNL     1      33.394 -13.600 -25.509  0.00  0.00    -0.019 C 
ATOM      8  C   UNL     1      34.941 -18.450 -23.203  0.00  0.00    -0.019 C 
ATOM      9  C   UNL     1      33.852 -15.980 -25.733  0.00  0.00    +0.001 C 
ATOM     10  C   UNL     1      34.236 -17.185 -25.161  0.00  0.00    +0.001 C 
ATOM     11  C   UNL     1      33.327 -12.462 -24.720  0.00  0.00    +0.016 C 
ATOM     12  C   UNL     1      35.251 -18.494 -21.853  0.00  0.00    +0.016 C 
ATOM     13  C   UNL     1      33.042 -13.456 -26.955  0.00  0.00    +0.031 C 
ATOM     14  C   UNL     1      35.043 -19.728 -23.976  0.00  0.00    +0.031 C 
ATOM     15  C   UNL     1      33.652 -12.596 -23.387  0.00  0.00    +0.099 C 
ATOM     16  C   UNL     1      35.158 -17.317 -21.143  0.00  0.00    +0.099 C 
ENDROOT
TORSDOF 0
ENDMDL
MODEL 4
REMARK VINA RESULT:      -8.5      1.611      2.737
REMARK  Name = 72792
REMARK  0 active torsions:
REMARK  status: ('A' for Active; 'I' for Inactive)
REMARK                            x       y       z     vdW  Elec       q    Type
REMARK                         _______ _______ _______ _____ _____    ______ ____
ROOT
ATOM      1  N   UNL     1      34.781 -16.158 -21.662  0.00  0.00    -0.242 NA
ATOM      2  N   UNL     1      34.051 -13.769 -22.775  0.00  0.00    -0.242 NA
ATOM      3  C   UNL     1      34.530 -17.251 -23.785  0.00  0.00    +0.015 C 
ATOM      4  C   UNL     1      33.787 -14.819 -24.918  0.00  0.00    +0.015 C 
ATOM      5  C   UNL     1      34.476 -16.095 -22.975  0.00  0.00    +0.099 C 
ATOM      6  C   UNL     1      34.104 -14.877 -23.542  0.00  0.00    +0.099 C 
ATOM      7  C   UNL     1      34.906 -18.467 -23.197  0.00  0.00    -0.019 C 
ATOM      8  C   UNL     1      33.415 -13.585 -25.470  0.00  0.00    -0.019 C 
ATOM      9  C   UNL     1      34.214 -17.182 -25.145  0.00  0.00    +0.001 C 
ATOM     10  C   UNL     1      33.844 -15.970 -25.710  0.00  0.00    +0.001 C 
ATOM     11  C   UNL     1      35.217 -18.523 -21.847  0.00  0.00    +0.016 C 
ATOM     12  C   UNL     1      33.363 -12.451 -24.675  0.00  0.00    +0.016 C 
ATOM     13  C   UNL     1      34.991 -19.742 -23.976  0.00  0.00    +0.031 C 
ATOM     14  C   UNL     1      33.062 -13.429 -26.916  0.00  0.00    +0.031 C 
ATOM     15  C   UNL     1      35.139 -17.349 -21.130  0.00  0.00    +0.099 C 
ATOM     16  C   UNL     1      33.688 -12.596 -23.343  0.00  0.00    +0.099 C 
ENDROOT
TORSDOF 0
ENDMDL
MODEL 5
REMARK VINA RESULT:      -8.4      1.697      5.021
REMARK  Name = 72792
REMARK  0 active torsions:
REMARK  status: ('A' for Active; 'I' for Inactive)
REMARK                            x       y       z     vdW  Elec       q    Type
REMARK                         _______ _______ _______ _____ _____    ______ ____
ROOT
ATOM      1  N   UNL     1      33.547 -14.430 -24.304  0.00  0.00    -0.242 NA
ATOM      2  N   UNL     1      34.556 -16.970 -24.417  0.00  0.00    -0.242 NA
ATOM      3  C   UNL     1      33.121 -14.678 -21.954  0.00  0.00    +0.015 C 
ATOM      4  C   UNL     1      34.148 -17.263 -22.069  0.00  0.00    +0.015 C 
ATOM      5  C   UNL     1      33.591 -15.185 -23.186  0.00  0.00    +0.099 C 
ATOM      6  C   UNL     1      34.105 -16.479 -23.244  0.00  0.00    +0.099 C 
ATOM      7  C   UNL     1      32.607 -13.374 -21.916  0.00  0.00    -0.019 C 
ATOM      8  C   UNL     1      34.669 -18.562 -22.147  0.00  0.00    -0.019 C 
ATOM      9  C   UNL     1      33.168 -15.462 -20.798  0.00  0.00    +0.001 C 
ATOM     10  C   UNL     1      33.680 -16.751 -20.855  0.00  0.00    +0.001 C 
ATOM     11  C   UNL     1      32.565 -12.606 -23.069  0.00  0.00    +0.016 C 
ATOM     12  C   UNL     1      35.130 -19.059 -23.356  0.00  0.00    +0.016 C 
ATOM     13  C   UNL     1      32.087 -12.754 -20.657  0.00  0.00    +0.031 C 
ATOM     14  C   UNL     1      34.752 -19.464 -20.955  0.00  0.00    +0.031 C 
ATOM     15  C   UNL     1      33.044 -13.177 -24.228  0.00  0.00    +0.099 C 
ATOM     16  C   UNL     1      35.051 -18.228 -24.453  0.00  0.00    +0.099 C 
ENDROOT
TORSDOF 0
ENDMDL
MODEL 6
REMARK VINA RESULT:      -8.4      1.652      2.196
REMARK  Name = 72792
REMARK  0 active torsions:
REMARK  status: ('A' for Active; 'I' for Inactive)
REMARK                            x       y       z     vdW  Elec       q    Type
REMARK                         _______ _______ _______ _____ _____    ______ ____
ROOT
ATOM      1  N   UNL     1      34.492 -16.972 -24.587  0.00  0.00    -0.242 NA
ATOM      2  N   UNL     1      33.485 -14.443 -24.323  0.00  0.00    -0.242 NA
ATOM      3  C   UNL     1      34.213 -17.355 -22.233  0.00  0.00    +0.015 C 
ATOM      4  C   UNL     1      33.188 -14.781 -21.964  0.00  0.00    +0.015 C 
ATOM      5  C   UNL     1      34.104 -16.528 -23.373  0.00  0.00    +0.099 C 
ATOM      6  C   UNL     1      33.591 -15.239 -23.239  0.00  0.00    +0.099 C 
ATOM      7  C   UNL     1      34.731 -18.649 -22.389  0.00  0.00    -0.019 C 
ATOM      8  C   UNL     1      32.674 -13.481 -21.849  0.00  0.00    -0.019 C 
ATOM      9  C   UNL     1      33.811 -16.892 -20.978  0.00  0.00    +0.001 C 
ATOM     10  C   UNL     1      33.300 -15.608 -20.843  0.00  0.00    +0.001 C 
ATOM     11  C   UNL     1      35.127 -19.097 -23.639  0.00  0.00    +0.016 C 
ATOM     12  C   UNL     1      32.568 -12.670 -22.968  0.00  0.00    +0.016 C 
ATOM     13  C   UNL     1      34.883 -19.594 -21.239  0.00  0.00    +0.031 C 
ATOM     14  C   UNL     1      32.224 -12.912 -20.540  0.00  0.00    +0.031 C 
ATOM     15  C   UNL     1      34.987 -18.226 -24.697  0.00  0.00    +0.099 C 
ATOM     16  C   UNL     1      32.984 -13.195 -24.172  0.00  0.00    +0.099 C 
ENDROOT
TORSDOF 0
ENDMDL
MODEL 7
REMARK VINA RESULT:      -8.4      5.553      9.253
REMARK  Name = 72792
REMARK  0 active torsions:
REMARK  status: ('A' for Active; 'I' for Inactive)
REMARK                            x       y       z     vdW  Elec       q    Type
REMARK                         _______ _______ _______ _____ _____    ______ ____
ROOT
ATOM      1  N   UNL     1      32.766 -20.819 -20.217  0.00  0.00    -0.242 NA
ATOM      2  N   UNL     1      32.584 -22.499 -18.067  0.00  0.00    -0.242 NA
ATOM      3  C   UNL     1      35.141 -20.645 -19.910  0.00  0.00    +0.015 C 
ATOM      4  C   UNL     1      34.956 -22.355 -17.721  0.00  0.00    +0.015 C 
ATOM      5  C   UNL     1      33.879 -21.154 -19.531  0.00  0.00    +0.099 C 
ATOM      6  C   UNL     1      33.786 -22.010 -18.435  0.00  0.00    +0.099 C 
ATOM      7  C   UNL     1      35.214 -19.785 -21.016  0.00  0.00    -0.019 C 
ATOM      8  C   UNL     1      34.842 -23.217 -16.622  0.00  0.00    -0.019 C 
ATOM      9  C   UNL     1      36.291 -20.993 -19.197  0.00  0.00    +0.001 C 
ATOM     10  C   UNL     1      36.199 -21.845 -18.106  0.00  0.00    +0.001 C 
ATOM     11  C   UNL     1      34.066 -19.447 -21.715  0.00  0.00    +0.016 C 
ATOM     12  C   UNL     1      33.603 -23.716 -16.250  0.00  0.00    +0.016 C 
ATOM     13  C   UNL     1      36.506 -19.198 -21.490  0.00  0.00    +0.031 C 
ATOM     14  C   UNL     1      36.026 -23.636 -15.807  0.00  0.00    +0.031 C 
ATOM     15  C   UNL     1      32.876 -19.988 -21.277  0.00  0.00    +0.099 C 
ATOM     16  C   UNL     1      32.514 -23.329 -17.000  0.00  0.00    +0.099 C 
ENDROOT
TORSDOF 0
ENDMDL
MODEL 8
REMARK VINA RESULT:      -8.2      7.517     11.172
REMARK  Name = 72792
REMARK  0 active torsions:
REMARK  status: ('A' for Active; 'I' for Inactive)
REMARK                            x       y       z     vdW  Elec       q    Type
REMARK                         _______ _______ _______ _____ _____    ______ ____
ROOT
ATOM      1  N   UNL     1      36.444 -22.009 -18.185  0.00  0.00    -0.242 NA
ATOM      2  N   UNL     1      36.322 -23.409 -15.839  0.00  0.00    -0.242 NA
ATOM      3  C   UNL     1      34.052 -22.080 -18.380  0.00  0.00    +0.015 C 
ATOM      4  C   UNL     1      33.928 -23.506 -15.992  0.00  0.00    +0.015 C 
ATOM      5  C   UNL     1      35.247 -22.393 -17.694  0.00  0.00    +0.099 C 
ATOM      6  C   UNL     1      35.185 -23.107 -16.499  0.00  0.00    +0.099 C 
ATOM      7  C   UNL     1      34.135 -21.362 -19.581  0.00  0.00    -0.019 C 
ATOM      8  C   UNL     1      33.886 -24.223 -14.787  0.00  0.00    -0.019 C 
ATOM      9  C   UNL     1      32.814 -22.480 -17.869  0.00  0.00    +0.001 C 
ATOM     10  C   UNL     1      32.752 -23.190 -16.678  0.00  0.00    +0.001 C 
ATOM     11  C   UNL     1      35.368 -20.971 -20.078  0.00  0.00    +0.016 C 
ATOM     12  C   UNL     1      35.059 -24.529 -14.116  0.00  0.00    +0.016 C 
ATOM     13  C   UNL     1      32.923 -20.986 -20.375  0.00  0.00    +0.031 C 
ATOM     14  C   UNL     1      32.601 -24.686 -14.176  0.00  0.00    +0.031 C 
ATOM     15  C   UNL     1      36.484 -21.317 -19.346  0.00  0.00    +0.099 C 
ATOM     16  C   UNL     1      36.242 -24.103 -14.680  0.00  0.00    +0.099 C 
ENDROOT
TORSDOF 0
ENDMDL
MODEL 9
REMARK VINA RESULT:      -8.2      7.516     10.369
REMARK  Name = 72792
REMARK  0 active torsions:
REMARK  status: ('A' for Active; 'I' for Inactive)
REMARK                            x       y       z     vdW  Elec       q    Type
REMARK                         _______ _______ _______ _____ _____    ______ ____
ROOT
ATOM      1  N   UNL     1      36.384 -23.427 -15.851  0.00  0.00    -0.242 NA
ATOM      2  N   UNL     1      36.500 -22.014 -18.189  0.00  0.00    -0.242 NA
ATOM      3  C   UNL     1      33.989 -23.521 -15.998  0.00  0.00    +0.015 C 
ATOM      4  C   UNL     1      34.107 -22.082 -18.378  0.00  0.00    +0.015 C 
ATOM      5  C   UNL     1      35.245 -23.120 -16.506  0.00  0.00    +0.099 C 
ATOM      6  C   UNL     1      35.304 -22.400 -17.698  0.00  0.00    +0.099 C 
ATOM      7  C   UNL     1      33.950 -24.244 -14.797  0.00  0.00    -0.019 C 
ATOM      8  C   UNL     1      34.187 -21.357 -19.576  0.00  0.00    -0.019 C 
ATOM      9  C   UNL     1      32.811 -23.201 -16.679  0.00  0.00    +0.001 C 
ATOM     10  C   UNL     1      32.870 -22.484 -17.866  0.00  0.00    +0.001 C 
ATOM     11  C   UNL     1      35.124 -24.555 -14.131  0.00  0.00    +0.016 C 
ATOM     12  C   UNL     1      35.420 -20.964 -20.074  0.00  0.00    +0.016 C 
ATOM     13  C   UNL     1      32.667 -24.710 -14.185  0.00  0.00    +0.031 C 
ATOM     14  C   UNL     1      32.973 -20.975 -20.363  0.00  0.00    +0.031 C 
ATOM     15  C   UNL     1      36.306 -24.126 -14.696  0.00  0.00    +0.099 C 
ATOM     16  C   UNL     1      36.537 -21.315 -19.348  0.00  0.00    +0.099 C 
ENDROOT
TORSDOF 0
ENDMDL
