MODEL 1
REMARK VINA RESULT:     -10.8      0.000      0.000
REMARK  Name = 5003498
REMARK  4 active torsions:
REMARK  status: ('A' for Active; 'I' for Inactive)
REMARK    1  A    between atoms: C_2  and  C_11
REMARK    2  A    between atoms: C_4  and  C_17
REMARK    3  A    between atoms: C_6  and  C_24
REMARK    4  A    between atoms: C_24  and  O_25
REMARK                            x       y       z     vdW  Elec       q    Type
REMARK                         _______ _______ _______ _____ _____    ______ ____
ROOT
ATOM      1  N   UNL     1      32.209 -23.038 -16.836  0.00  0.00    -0.353 N 
ATOM      2  C   UNL     1      33.705 -23.856 -15.415  0.00  0.00    +0.017 A 
ATOM      3  C   UNL     1      32.407 -24.177 -14.928  0.00  0.00    +0.017 A 
ATOM      4  C   UNL     1      33.551 -23.155 -16.589  0.00  0.00    +0.057 A 
ATOM      5  C   UNL     1      31.486 -23.653 -15.839  0.00  0.00    +0.063 A 
ATOM      6  C   UNL     1      30.103 -23.783 -15.673  0.00  0.00    +0.091 C 
ATOM      7  C   UNL     1      31.924 -24.866 -13.797  0.00  0.00    +0.001 C 
ATOM      8  C   UNL     1      29.648 -24.470 -14.545  0.00  0.00    +0.008 C 
ATOM      9  C   UNL     1      30.543 -25.004 -13.619  0.00  0.00    +0.000 C 
ATOM     10  H   UNL     1      31.817 -22.581 -17.615  0.00  0.00    +0.166 HD
ENDROOT
BRANCH   2  11
ATOM     11  C   UNL     1      34.987 -24.168 -14.845  0.00  0.00    +0.001 C 
ATOM     12  C   UNL     1      35.655 -25.329 -15.230  0.00  0.00    +0.000 C 
ATOM     13  C   UNL     1      35.559 -23.310 -13.907  0.00  0.00    +0.000 C 
ATOM     14  C   UNL     1      36.899 -25.633 -14.676  0.00  0.00    +0.000 C 
ATOM     15  C   UNL     1      36.803 -23.613 -13.353  0.00  0.00    +0.000 C 
ATOM     16  C   UNL     1      37.473 -24.775 -13.738  0.00  0.00    +0.000 C 
ENDBRANCH   2  11
BRANCH   4  17
ATOM     17  C   UNL     1      34.528 -22.592 -17.494  0.00  0.00    +0.016 C 
ATOM     18  C   UNL     1      35.797 -22.258 -17.024  0.00  0.00    +0.001 C 
ATOM     19  C   UNL     1      34.198 -22.383 -18.831  0.00  0.00    +0.001 C 
ATOM     20  C   UNL     1      36.739 -21.713 -17.896  0.00  0.00    +0.000 C 
ATOM     21  C   UNL     1      35.140 -21.838 -19.702  0.00  0.00    +0.000 C 
ATOM     22  C   UNL     1      36.410 -21.503 -19.235  0.00  0.00    +0.000 C 
ENDBRANCH   4  17
BRANCH   6  24
ATOM     23  O   UNL     1      29.096 -22.042 -16.969  0.00  0.00    -0.245 OA
ATOM     24  C   UNL     1      29.162 -23.230 -16.632  0.00  0.00    +0.339 C 
BRANCH  24  25
ATOM     25  O   UNL     1      28.327 -24.173 -17.149  0.00  0.00    -0.477 OA
ATOM     26  H   UNL     1      27.413 -24.153 -16.941  0.00  0.00    +0.295 HD
ENDBRANCH  24  25
ENDBRANCH   6  24
TORSDOF 4
ENDMDL
MODEL 2
REMARK VINA RESULT:      -9.3      1.819      5.322
REMARK  Name = 5003498
REMARK  4 active torsions:
REMARK  status: ('A' for Active; 'I' for Inactive)
REMARK    1  A    between atoms: C_2  and  C_11
REMARK    2  A    between atoms: C_4  and  C_17
REMARK    3  A    between atoms: C_6  and  C_24
REMARK    4  A    between atoms: C_24  and  O_25
REMARK                            x       y       z     vdW  Elec       q    Type
REMARK                         _______ _______ _______ _____ _____    ______ ____
ROOT
ATOM      1  N   UNL     1      33.231 -22.571 -17.593  0.00  0.00    -0.353 N 
ATOM      2  C   UNL     1      34.865 -23.193 -16.227  0.00  0.00    +0.017 A 
ATOM      3  C   UNL     1      35.442 -22.485 -17.317  0.00  0.00    +0.017 A 
ATOM      4  C   UNL     1      33.504 -23.230 -16.425  0.00  0.00    +0.057 A 
ATOM      5  C   UNL     1      34.396 -22.104 -18.160  0.00  0.00    +0.063 A 
ATOM      6  C   UNL     1      34.601 -21.384 -19.341  0.00  0.00    +0.091 C 
ATOM      7  C   UNL     1      36.760 -22.127 -17.669  0.00  0.00    +0.001 C 
ATOM      8  C   UNL     1      35.915 -21.041 -19.670  0.00  0.00    +0.008 C 
ATOM      9  C   UNL     1      36.980 -21.406 -18.849  0.00  0.00    +0.000 C 
ATOM     10  H   UNL     1      32.331 -22.447 -17.974  0.00  0.00    +0.166 HD
ENDROOT
BRANCH   2  11
ATOM     11  C   UNL     1      35.514 -23.791 -15.092  0.00  0.00    +0.001 C 
ATOM     12  C   UNL     1      35.687 -23.053 -13.921  0.00  0.00    +0.000 C 
ATOM     13  C   UNL     1      35.971 -25.106 -15.164  0.00  0.00    +0.000 C 
ATOM     14  C   UNL     1      36.317 -23.633 -12.820  0.00  0.00    +0.000 C 
ATOM     15  C   UNL     1      36.601 -25.685 -14.062  0.00  0.00    +0.000 C 
ATOM     16  C   UNL     1      36.774 -24.948 -12.890  0.00  0.00    +0.000 C 
ENDBRANCH   2  11
BRANCH   4  17
ATOM     17  C   UNL     1      32.445 -23.816 -15.634  0.00  0.00    +0.016 C 
ATOM     18  C   UNL     1      31.125 -23.734 -16.073  0.00  0.00    +0.001 C 
ATOM     19  C   UNL     1      32.747 -24.459 -14.435  0.00  0.00    +0.001 C 
ATOM     20  C   UNL     1      30.103 -24.298 -15.311  0.00  0.00    +0.000 C 
ATOM     21  C   UNL     1      31.724 -25.022 -13.673  0.00  0.00    +0.000 C 
ATOM     22  C   UNL     1      30.402 -24.942 -14.109  0.00  0.00    +0.000 C 
ENDBRANCH   4  17
BRANCH   6  24
ATOM     23  O   UNL     1      32.462 -21.651 -20.379  0.00  0.00    -0.245 OA
ATOM     24  C   UNL     1      33.498 -20.999 -20.205  0.00  0.00    +0.339 C 
BRANCH  24  25
ATOM     25  O   UNL     1      33.712 -19.807 -20.828  0.00  0.00    -0.477 OA
ATOM     26  H   UNL     1      33.868 -19.783 -21.752  0.00  0.00    +0.295 HD
ENDBRANCH  24  25
ENDBRANCH   6  24
TORSDOF 4
ENDMDL
MODEL 3
REMARK VINA RESULT:      -9.2      8.644     12.306
REMARK  Name = 5003498
REMARK  4 active torsions:
REMARK  status: ('A' for Active; 'I' for Inactive)
REMARK    1  A    between atoms: C_2  and  C_11
REMARK    2  A    between atoms: C_4  and  C_17
REMARK    3  A    between atoms: C_6  and  C_24
REMARK    4  A    between atoms: C_24  and  O_25
REMARK                            x       y       z     vdW  Elec       q    Type
REMARK                         _______ _______ _______ _____ _____    ______ ____
ROOT
ATOM      1  N   UNL     1      33.467 -16.123 -21.813  0.00  0.00    -0.353 N 
ATOM      2  C   UNL     1      33.649 -15.152 -23.800  0.00  0.00    +0.017 A 
ATOM      3  C   UNL     1      34.168 -16.473 -23.901  0.00  0.00    +0.017 A 
ATOM      4  C   UNL     1      33.226 -14.966 -22.504  0.00  0.00    +0.057 A 
ATOM      5  C   UNL     1      34.042 -17.062 -22.641  0.00  0.00    +0.063 A 
ATOM      6  C   UNL     1      34.455 -18.371 -22.374  0.00  0.00    +0.091 C 
ATOM      7  C   UNL     1      34.734 -17.228 -24.948  0.00  0.00    +0.001 C 
ATOM      8  C   UNL     1      35.014 -19.100 -23.427  0.00  0.00    +0.008 C 
ATOM      9  C   UNL     1      35.153 -18.539 -24.695  0.00  0.00    +0.000 C 
ATOM     10  H   UNL     1      33.259 -16.265 -20.861  0.00  0.00    +0.166 HD
ENDROOT
BRANCH   2  11
ATOM     11  C   UNL     1      33.551 -14.138 -24.815  0.00  0.00    +0.001 C 
ATOM     12  C   UNL     1      32.931 -14.428 -26.029  0.00  0.00    +0.000 C 
ATOM     13  C   UNL     1      34.076 -12.868 -24.583  0.00  0.00    +0.000 C 
ATOM     14  C   UNL     1      32.836 -13.446 -27.014  0.00  0.00    +0.000 C 
ATOM     15  C   UNL     1      33.980 -11.885 -25.568  0.00  0.00    +0.000 C 
ATOM     16  C   UNL     1      33.361 -12.174 -26.784  0.00  0.00    +0.000 C 
ENDBRANCH   2  11
BRANCH   4  17
ATOM     17  C   UNL     1      32.623 -13.823 -21.856  0.00  0.00    +0.016 C 
ATOM     18  C   UNL     1      32.691 -13.696 -20.469  0.00  0.00    +0.001 C 
ATOM     19  C   UNL     1      31.977 -12.853 -22.618  0.00  0.00    +0.001 C 
ATOM     20  C   UNL     1      32.109 -12.594 -19.844  0.00  0.00    +0.000 C 
ATOM     21  C   UNL     1      31.395 -11.751 -21.992  0.00  0.00    +0.000 C 
ATOM     22  C   UNL     1      31.460 -11.621 -20.605  0.00  0.00    +0.000 C 
ENDBRANCH   4  17
BRANCH   6  24
ATOM     23  O   UNL     1      35.246 -19.358 -20.344  0.00  0.00    -0.245 OA
ATOM     24  C   UNL     1      34.315 -18.964 -21.056  0.00  0.00    +0.339 C 
BRANCH  24  25
ATOM     25  O   UNL     1      33.016 -19.049 -20.655  0.00  0.00    -0.477 OA
ATOM     26  H   UNL     1      32.327 -18.852 -21.259  0.00  0.00    +0.295 HD
ENDBRANCH  24  25
ENDBRANCH   6  24
TORSDOF 4
ENDMDL
MODEL 4
REMARK VINA RESULT:      -9.1     15.202     18.030
REMARK  Name = 5003498
REMARK  4 active torsions:
REMARK  status: ('A' for Active; 'I' for Inactive)
REMARK    1  A    between atoms: C_2  and  C_11
REMARK    2  A    between atoms: C_4  and  C_17
REMARK    3  A    between atoms: C_6  and  C_24
REMARK    4  A    between atoms: C_24  and  O_25
REMARK                            x       y       z     vdW  Elec       q    Type
REMARK                         _______ _______ _______ _____ _____    ______ ____
ROOT
ATOM      1  N   UNL     1      31.361  -6.749 -22.081  0.00  0.00    -0.353 N 
ATOM      2  C   UNL     1      32.658  -7.891 -23.474  0.00  0.00    +0.017 A 
ATOM      3  C   UNL     1      32.475  -6.585 -24.007  0.00  0.00    +0.017 A 
ATOM      4  C   UNL     1      31.960  -7.962 -22.290  0.00  0.00    +0.057 A 
ATOM      5  C   UNL     1      31.658  -5.887 -23.114  0.00  0.00    +0.063 A 
ATOM      6  C   UNL     1      31.270  -4.560 -23.324  0.00  0.00    +0.091 C 
ATOM      7  C   UNL     1      32.928  -5.925 -25.167  0.00  0.00    +0.001 C 
ATOM      8  C   UNL     1      31.732  -3.926 -24.481  0.00  0.00    +0.008 C 
ATOM      9  C   UNL     1      32.548  -4.597 -25.390  0.00  0.00    +0.000 C 
ATOM     10  H   UNL     1      30.799  -6.523 -21.305  0.00  0.00    +0.166 HD
ENDROOT
BRANCH   2  11
ATOM     11  C   UNL     1      33.413  -8.990 -24.011  0.00  0.00    +0.001 C 
ATOM     12  C   UNL     1      34.780  -8.847 -24.242  0.00  0.00    +0.000 C 
ATOM     13  C   UNL     1      32.777 -10.195 -24.302  0.00  0.00    +0.000 C 
ATOM     14  C   UNL     1      35.513  -9.912 -24.764  0.00  0.00    +0.000 C 
ATOM     15  C   UNL     1      33.510 -11.262 -24.824  0.00  0.00    +0.000 C 
ATOM     16  C   UNL     1      34.879 -11.119 -25.056  0.00  0.00    +0.000 C 
ENDBRANCH   2  11
BRANCH   4  17
ATOM     17  C   UNL     1      31.803  -9.044 -21.343  0.00  0.00    +0.016 C 
ATOM     18  C   UNL     1      31.161 -10.217 -21.733  0.00  0.00    +0.001 C 
ATOM     19  C   UNL     1      32.292  -8.909 -20.046  0.00  0.00    +0.001 C 
ATOM     20  C   UNL     1      31.007 -11.261 -20.820  0.00  0.00    +0.000 C 
ATOM     21  C   UNL     1      32.139  -9.952 -19.134  0.00  0.00    +0.000 C 
ATOM     22  C   UNL     1      31.496 -11.128 -19.520  0.00  0.00    +0.000 C 
ENDBRANCH   4  17
BRANCH   6  24
ATOM     23  O   UNL     1      30.077  -2.668 -22.474  0.00  0.00    -0.245 OA
ATOM     24  C   UNL     1      30.420  -3.853 -22.383  0.00  0.00    +0.339 C 
BRANCH  24  25
ATOM     25  O   UNL     1      30.013  -4.642 -21.350  0.00  0.00    -0.477 OA
ATOM     26  H   UNL     1      29.136  -4.573 -21.026  0.00  0.00    +0.295 HD
ENDBRANCH  24  25
ENDBRANCH   6  24
TORSDOF 4
ENDMDL
MODEL 5
REMARK VINA RESULT:      -8.7     12.564     15.433
REMARK  Name = 5003498
REMARK  4 active torsions:
REMARK  status: ('A' for Active; 'I' for Inactive)
REMARK    1  A    between atoms: C_2  and  C_11
REMARK    2  A    between atoms: C_4  and  C_17
REMARK    3  A    between atoms: C_6  and  C_24
REMARK    4  A    between atoms: C_24  and  O_25
REMARK                            x       y       z     vdW  Elec       q    Type
REMARK                         _______ _______ _______ _____ _____    ______ ____
ROOT
ATOM      1  N   UNL     1      33.213 -12.217 -23.068  0.00  0.00    -0.353 N 
ATOM      2  C   UNL     1      32.860 -10.028 -23.148  0.00  0.00    +0.017 A 
ATOM      3  C   UNL     1      32.292 -10.526 -21.943  0.00  0.00    +0.017 A 
ATOM      4  C   UNL     1      33.419 -11.092 -23.819  0.00  0.00    +0.057 A 
ATOM      5  C   UNL     1      32.528 -11.903 -21.916  0.00  0.00    +0.063 A 
ATOM      6  C   UNL     1      32.103 -12.721 -20.864  0.00  0.00    +0.091 C 
ATOM      7  C   UNL     1      31.598  -9.936 -20.866  0.00  0.00    +0.001 C 
ATOM      8  C   UNL     1      31.417 -12.114 -19.808  0.00  0.00    +0.008 C 
ATOM      9  C   UNL     1      31.167 -10.743 -19.808  0.00  0.00    +0.000 C 
ATOM     10  H   UNL     1      33.513 -13.123 -23.315  0.00  0.00    +0.166 HD
ENDROOT
BRANCH   2  11
ATOM     11  C   UNL     1      32.886  -8.680 -23.646  0.00  0.00    +0.001 C 
ATOM     12  C   UNL     1      34.102  -8.008 -23.773  0.00  0.00    +0.000 C 
ATOM     13  C   UNL     1      31.696  -8.045 -23.999  0.00  0.00    +0.000 C 
ATOM     14  C   UNL     1      34.127  -6.700 -24.255  0.00  0.00    +0.000 C 
ATOM     15  C   UNL     1      31.722  -6.736 -24.482  0.00  0.00    +0.000 C 
ATOM     16  C   UNL     1      32.938  -6.063 -24.609  0.00  0.00    +0.000 C 
ENDBRANCH   2  11
BRANCH   4  17
ATOM     17  C   UNL     1      34.120 -11.155 -25.082  0.00  0.00    +0.016 C 
ATOM     18  C   UNL     1      33.707 -12.059 -26.059  0.00  0.00    +0.001 C 
ATOM     19  C   UNL     1      35.206 -10.316 -25.317  0.00  0.00    +0.001 C 
ATOM     20  C   UNL     1      34.383 -12.122 -27.277  0.00  0.00    +0.000 C 
ATOM     21  C   UNL     1      35.882 -10.379 -26.535  0.00  0.00    +0.000 C 
ATOM     22  C   UNL     1      35.472 -11.282 -27.515  0.00  0.00    +0.000 C 
ENDBRANCH   4  17
BRANCH   6  24
ATOM     23  O   UNL     1      32.652 -14.822 -19.860  0.00  0.00    -0.245 OA
ATOM     24  C   UNL     1      32.357 -14.151 -20.856  0.00  0.00    +0.339 C 
BRANCH  24  25
ATOM     25  O   UNL     1      32.234 -14.711 -22.092  0.00  0.00    -0.477 OA
ATOM     26  H   UNL     1      32.193 -14.164 -22.851  0.00  0.00    +0.295 HD
ENDBRANCH  24  25
ENDBRANCH   6  24
TORSDOF 4
ENDMDL
MODEL 6
REMARK VINA RESULT:      -8.5     11.790     14.372
REMARK  Name = 5003498
REMARK  4 active torsions:
REMARK  status: ('A' for Active; 'I' for Inactive)
REMARK    1  A    between atoms: C_2  and  C_11
REMARK    2  A    between atoms: C_4  and  C_17
REMARK    3  A    between atoms: C_6  and  C_24
REMARK    4  A    between atoms: C_24  and  O_25
REMARK                            x       y       z     vdW  Elec       q    Type
REMARK                         _______ _______ _______ _____ _____    ______ ____
ROOT
ATOM      1  N   UNL     1      33.079 -10.093 -23.305  0.00  0.00    -0.353 N 
ATOM      2  C   UNL     1      33.236 -12.296 -23.081  0.00  0.00    +0.017 A 
ATOM      3  C   UNL     1      32.520 -11.785 -21.963  0.00  0.00    +0.017 A 
ATOM      4  C   UNL     1      33.567 -11.232 -23.888  0.00  0.00    +0.057 A 
ATOM      5  C   UNL     1      32.435 -10.400 -22.127  0.00  0.00    +0.063 A 
ATOM      6  C   UNL     1      31.791  -9.568 -21.206  0.00  0.00    +0.091 C 
ATOM      7  C   UNL     1      31.932 -12.368 -20.822  0.00  0.00    +0.001 C 
ATOM      8  C   UNL     1      31.216 -10.169 -20.083  0.00  0.00    +0.008 C 
ATOM      9  C   UNL     1      31.285 -11.548 -19.892  0.00  0.00    +0.000 C 
ATOM     10  H   UNL     1      33.175  -9.185 -23.674  0.00  0.00    +0.166 HD
ENDROOT
BRANCH   2  11
ATOM     11  C   UNL     1      33.589 -13.656 -23.383  0.00  0.00    +0.001 C 
ATOM     12  C   UNL     1      33.101 -14.261 -24.541  0.00  0.00    +0.000 C 
ATOM     13  C   UNL     1      34.419 -14.368 -22.518  0.00  0.00    +0.000 C 
ATOM     14  C   UNL     1      33.443 -15.580 -24.834  0.00  0.00    +0.000 C 
ATOM     15  C   UNL     1      34.762 -15.688 -22.812  0.00  0.00    +0.000 C 
ATOM     16  C   UNL     1      34.273 -16.294 -23.970  0.00  0.00    +0.000 C 
ENDBRANCH   2  11
BRANCH   4  17
ATOM     17  C   UNL     1      34.287 -11.178 -25.141  0.00  0.00    +0.016 C 
ATOM     18  C   UNL     1      33.931 -12.032 -26.183  0.00  0.00    +0.001 C 
ATOM     19  C   UNL     1      35.335 -10.274 -25.302  0.00  0.00    +0.001 C 
ATOM     20  C   UNL     1      34.626 -11.982 -27.390  0.00  0.00    +0.000 C 
ATOM     21  C   UNL     1      36.030 -10.224 -26.510  0.00  0.00    +0.000 C 
ATOM     22  C   UNL     1      35.677 -11.078 -27.554  0.00  0.00    +0.000 C 
ENDBRANCH   4  17
BRANCH   6  24
ATOM     23  O   UNL     1      32.006  -7.278 -20.549  0.00  0.00    -0.245 OA
ATOM     24  C   UNL     1      31.714  -8.130 -21.396  0.00  0.00    +0.339 C 
BRANCH  24  25
ATOM     25  O   UNL     1      31.277  -7.789 -22.640  0.00  0.00    -0.477 OA
ATOM     26  H   UNL     1      30.550  -7.205 -22.737  0.00  0.00    +0.295 HD
ENDBRANCH  24  25
ENDBRANCH   6  24
TORSDOF 4
ENDMDL
MODEL 7
REMARK VINA RESULT:      -8.4     12.659     15.262
REMARK  Name = 5003498
REMARK  4 active torsions:
REMARK  status: ('A' for Active; 'I' for Inactive)
REMARK    1  A    between atoms: C_2  and  C_11
REMARK    2  A    between atoms: C_4  and  C_17
REMARK    3  A    between atoms: C_6  and  C_24
REMARK    4  A    between atoms: C_24  and  O_25
REMARK                            x       y       z     vdW  Elec       q    Type
REMARK                         _______ _______ _______ _____ _____    ______ ____
ROOT
ATOM      1  N   UNL     1      33.017 -11.129 -24.685  0.00  0.00    -0.353 N 
ATOM      2  C   UNL     1      32.483 -11.068 -22.532  0.00  0.00    +0.017 A 
ATOM      3  C   UNL     1      32.699 -12.426 -22.898  0.00  0.00    +0.017 A 
ATOM      4  C   UNL     1      32.686 -10.295 -23.651  0.00  0.00    +0.057 A 
ATOM      5  C   UNL     1      33.034 -12.437 -24.255  0.00  0.00    +0.063 A 
ATOM      6  C   UNL     1      33.315 -13.616 -24.954  0.00  0.00    +0.091 C 
ATOM      7  C   UNL     1      32.643 -13.652 -22.205  0.00  0.00    +0.001 C 
ATOM      8  C   UNL     1      33.253 -14.818 -24.245  0.00  0.00    +0.008 C 
ATOM      9  C   UNL     1      32.922 -14.839 -22.892  0.00  0.00    +0.000 C 
ATOM     10  H   UNL     1      33.217 -10.837 -25.604  0.00  0.00    +0.166 HD
ENDROOT
BRANCH   2  11
ATOM     11  C   UNL     1      32.117 -10.525 -21.252  0.00  0.00    +0.001 C 
ATOM     12  C   UNL     1      32.407  -9.194 -20.953  0.00  0.00    +0.000 C 
ATOM     13  C   UNL     1      31.474 -11.329 -20.313  0.00  0.00    +0.000 C 
ATOM     14  C   UNL     1      32.053  -8.667 -19.712  0.00  0.00    +0.000 C 
ATOM     15  C   UNL     1      31.120 -10.801 -19.071  0.00  0.00    +0.000 C 
ATOM     16  C   UNL     1      31.410  -9.470 -18.770  0.00  0.00    +0.000 C 
ENDBRANCH   2  11
BRANCH   4  17
ATOM     17  C   UNL     1      32.601  -8.864 -23.845  0.00  0.00    +0.016 C 
ATOM     18  C   UNL     1      33.767  -8.105 -23.921  0.00  0.00    +0.001 C 
ATOM     19  C   UNL     1      31.355  -8.251 -23.954  0.00  0.00    +0.001 C 
ATOM     20  C   UNL     1      33.686  -6.725 -24.107  0.00  0.00    +0.000 C 
ATOM     21  C   UNL     1      31.275  -6.871 -24.140  0.00  0.00    +0.000 C 
ATOM     22  C   UNL     1      32.439  -6.108 -24.216  0.00  0.00    +0.000 C 
ENDBRANCH   4  17
BRANCH   6  24
ATOM     23  O   UNL     1      33.923 -12.597 -27.031  0.00  0.00    -0.245 OA
ATOM     24  C   UNL     1      33.661 -13.605 -26.364  0.00  0.00    +0.339 C 
BRANCH  24  25
ATOM     25  O   UNL     1      33.673 -14.853 -26.910  0.00  0.00    -0.477 OA
ATOM     26  H   UNL     1      33.286 -15.570 -26.446  0.00  0.00    +0.295 HD
ENDBRANCH  24  25
ENDBRANCH   6  24
TORSDOF 4
ENDMDL
MODEL 8
REMARK VINA RESULT:      -8.3     15.325     17.754
REMARK  Name = 5003498
REMARK  4 active torsions:
REMARK  status: ('A' for Active; 'I' for Inactive)
REMARK    1  A    between atoms: C_2  and  C_11
REMARK    2  A    between atoms: C_4  and  C_17
REMARK    3  A    between atoms: C_6  and  C_24
REMARK    4  A    between atoms: C_24  and  O_25
REMARK                            x       y       z     vdW  Elec       q    Type
REMARK                         _______ _______ _______ _____ _____    ______ ____
ROOT
ATOM      1  N   UNL     1      32.696  -6.875 -24.192  0.00  0.00    -0.353 N 
ATOM      2  C   UNL     1      32.003  -7.915 -22.357  0.00  0.00    +0.017 A 
ATOM      3  C   UNL     1      31.507  -6.582 -22.328  0.00  0.00    +0.017 A 
ATOM      4  C   UNL     1      32.731  -8.065 -23.516  0.00  0.00    +0.057 A 
ATOM      5  C   UNL     1      31.955  -5.950 -23.490  0.00  0.00    +0.063 A 
ATOM      6  C   UNL     1      31.652  -4.618 -23.792  0.00  0.00    +0.091 C 
ATOM      7  C   UNL     1      30.716  -5.848 -21.421  0.00  0.00    +0.001 C 
ATOM      8  C   UNL     1      30.866  -3.911 -22.878  0.00  0.00    +0.008 C 
ATOM      9  C   UNL     1      30.404  -4.514 -21.709  0.00  0.00    +0.000 C 
ATOM     10  H   UNL     1      33.136  -6.705 -25.056  0.00  0.00    +0.166 HD
ENDROOT
BRANCH   2  11
ATOM     11  C   UNL     1      31.824  -8.968 -21.396  0.00  0.00    +0.001 C 
ATOM     12  C   UNL     1      31.090 -10.103 -21.736  0.00  0.00    +0.000 C 
ATOM     13  C   UNL     1      32.382  -8.851 -20.124  0.00  0.00    +0.000 C 
ATOM     14  C   UNL     1      30.915 -11.125 -20.803  0.00  0.00    +0.000 C 
ATOM     15  C   UNL     1      32.208  -9.874 -19.191  0.00  0.00    +0.000 C 
ATOM     16  C   UNL     1      31.473 -11.011 -19.531  0.00  0.00    +0.000 C 
ENDBRANCH   2  11
BRANCH   4  17
ATOM     17  C   UNL     1      33.448  -9.203 -24.046  0.00  0.00    +0.016 C 
ATOM     18  C   UNL     1      34.746  -9.043 -24.525  0.00  0.00    +0.001 C 
ATOM     19  C   UNL     1      32.838 -10.455 -24.076  0.00  0.00    +0.001 C 
ATOM     20  C   UNL     1      35.438 -10.140 -25.038  0.00  0.00    +0.000 C 
ATOM     21  C   UNL     1      33.530 -11.552 -24.589  0.00  0.00    +0.000 C 
ATOM     22  C   UNL     1      34.829 -11.395 -25.071  0.00  0.00    +0.000 C 
ENDBRANCH   4  17
BRANCH   6  24
ATOM     23  O   UNL     1      32.703  -4.553 -25.940  0.00  0.00    -0.245 OA
ATOM     24  C   UNL     1      32.129  -3.981 -25.006  0.00  0.00    +0.339 C 
BRANCH  24  25
ATOM     25  O   UNL     1      31.875  -2.643 -25.029  0.00  0.00    -0.477 OA
ATOM     26  H   UNL     1      31.248  -2.296 -25.633  0.00  0.00    +0.295 HD
ENDBRANCH  24  25
ENDBRANCH   6  24
TORSDOF 4
ENDMDL
MODEL 9
REMARK VINA RESULT:      -8.3     11.078     13.590
REMARK  Name = 5003498
REMARK  4 active torsions:
REMARK  status: ('A' for Active; 'I' for Inactive)
REMARK    1  A    between atoms: C_2  and  C_11
REMARK    2  A    between atoms: C_4  and  C_17
REMARK    3  A    between atoms: C_6  and  C_24
REMARK    4  A    between atoms: C_24  and  O_25
REMARK                            x       y       z     vdW  Elec       q    Type
REMARK                         _______ _______ _______ _____ _____    ______ ____
ROOT
ATOM      1  N   UNL     1      32.350 -10.833 -23.193  0.00  0.00    -0.353 N 
ATOM      2  C   UNL     1      32.724 -12.678 -22.017  0.00  0.00    +0.017 A 
ATOM      3  C   UNL     1      32.342 -11.646 -21.115  0.00  0.00    +0.017 A 
ATOM      4  C   UNL     1      32.720 -12.148 -23.287  0.00  0.00    +0.057 A 
ATOM      5  C   UNL     1      32.113 -10.498 -21.878  0.00  0.00    +0.063 A 
ATOM      6  C   UNL     1      31.718  -9.282 -21.312  0.00  0.00    +0.091 C 
ATOM      7  C   UNL     1      32.168 -11.577 -19.718  0.00  0.00    +0.001 C 
ATOM      8  C   UNL     1      31.552  -9.237 -19.925  0.00  0.00    +0.008 C 
ATOM      9  C   UNL     1      31.773 -10.366 -19.138  0.00  0.00    +0.000 C 
ATOM     10  H   UNL     1      32.265 -10.215 -23.954  0.00  0.00    +0.166 HD
ENDROOT
BRANCH   2  11
ATOM     11  C   UNL     1      33.066 -14.045 -21.734  0.00  0.00    +0.001 C 
ATOM     12  C   UNL     1      32.118 -14.898 -21.171  0.00  0.00    +0.000 C 
ATOM     13  C   UNL     1      34.346 -14.516 -22.022  0.00  0.00    +0.000 C 
ATOM     14  C   UNL     1      32.450 -16.224 -20.896  0.00  0.00    +0.000 C 
ATOM     15  C   UNL     1      34.679 -15.843 -21.747  0.00  0.00    +0.000 C 
ATOM     16  C   UNL     1      33.730 -16.697 -21.183  0.00  0.00    +0.000 C 
ENDBRANCH   2  11
BRANCH   4  17
ATOM     17  C   UNL     1      33.025 -12.747 -24.567  0.00  0.00    +0.016 C 
ATOM     18  C   UNL     1      33.670 -11.995 -25.548  0.00  0.00    +0.001 C 
ATOM     19  C   UNL     1      32.672 -14.071 -24.817  0.00  0.00    +0.001 C 
ATOM     20  C   UNL     1      33.963 -12.571 -26.783  0.00  0.00    +0.000 C 
ATOM     21  C   UNL     1      32.965 -14.647 -26.052  0.00  0.00    +0.000 C 
ATOM     22  C   UNL     1      33.610 -13.898 -27.036  0.00  0.00    +0.000 C 
ENDBRANCH   4  17
BRANCH   6  24
ATOM     23  O   UNL     1      31.042  -8.097 -23.277  0.00  0.00    -0.245 OA
ATOM     24  C   UNL     1      31.485  -8.100 -22.123  0.00  0.00    +0.339 C 
BRANCH  24  25
ATOM     25  O   UNL     1      31.809  -6.947 -21.473  0.00  0.00    -0.477 OA
ATOM     26  H   UNL     1      32.013  -6.967 -20.558  0.00  0.00    +0.295 HD
ENDBRANCH  24  25
ENDBRANCH   6  24
TORSDOF 4
ENDMDL
