MODEL 1
REMARK VINA RESULT:      -7.1      0.000      0.000
REMARK  Name = 5289329
REMARK  7 active torsions:
REMARK  status: ('A' for Active; 'I' for Inactive)
REMARK    1  A    between atoms: C_1  and  C_2
REMARK    2  A    between atoms: C_1  and  C_9
REMARK    3  A    between atoms: C_2  and  C_3
REMARK    4  A    between atoms: C_9  and  N_10
REMARK    5  A    between atoms: N_10  and  O_11
REMARK    6  A    between atoms: N_10  and  C_13
REMARK    7  A    between atoms: C_13  and  O_14
REMARK                            x       y       z     vdW  Elec       q    Type
REMARK                         _______ _______ _______ _____ _____    ______ ____
ROOT
ATOM      1  C   UNL     1      35.047 -18.979 -23.186  0.00  0.00    +0.025 C 
ENDROOT
BRANCH   1   2
ATOM      2  C   UNL     1      34.268 -18.704 -21.898  0.00  0.00    +0.028 C 
BRANCH   2   3
ATOM      3  C   UNL     1      34.393 -19.842 -20.917  0.00  0.00    -0.022 C 
ATOM      4  C   UNL     1      35.652 -20.311 -20.574  0.00  0.00    -0.004 C 
ATOM      5  C   UNL     1      33.247 -20.400 -20.370  0.00  0.00    -0.004 C 
ATOM      6  C   UNL     1      35.768 -21.362 -19.665  0.00  0.00    -0.000 C 
ATOM      7  C   UNL     1      33.363 -21.451 -19.462  0.00  0.00    -0.000 C 
ATOM      8  C   UNL     1      34.623 -21.933 -19.110  0.00  0.00    -0.000 C 
ENDBRANCH   2   3
ENDBRANCH   1   2
BRANCH   1   9
ATOM      9  C   UNL     1      34.644 -18.005 -24.292  0.00  0.00    +0.104 C 
BRANCH   9  10
ATOM     10  N   UNL     1      34.480 -16.662 -23.749  0.00  0.00    -0.141 NA
BRANCH  10  11
ATOM     11  O   UNL     1      35.837 -16.159 -23.608  0.00  0.00    -0.309 OA
ATOM     12  H   UNL     1      35.810 -15.236 -23.310  0.00  0.00    +0.237 HD
ENDBRANCH  10  11
BRANCH  10  13
ATOM     13  C   UNL     1      33.850 -15.773 -24.725  0.00  0.00    +0.241 C 
BRANCH  13  14
ATOM     14  O   UNL     1      34.110 -16.180 -26.067  0.00  0.00    -0.365 OA
ATOM     15  H   UNL     1      33.574 -15.649 -26.675  0.00  0.00    +0.212 HD
ENDBRANCH  13  14
ENDBRANCH  10  13
ENDBRANCH   9  10
ENDBRANCH   1   9
TORSDOF 7
ENDMDL
MODEL 2
REMARK VINA RESULT:      -7.1      1.146      1.322
REMARK  Name = 5289329
REMARK  7 active torsions:
REMARK  status: ('A' for Active; 'I' for Inactive)
REMARK    1  A    between atoms: C_1  and  C_2
REMARK    2  A    between atoms: C_1  and  C_9
REMARK    3  A    between atoms: C_2  and  C_3
REMARK    4  A    between atoms: C_9  and  N_10
REMARK    5  A    between atoms: N_10  and  O_11
REMARK    6  A    between atoms: N_10  and  C_13
REMARK    7  A    between atoms: C_13  and  O_14
REMARK                            x       y       z     vdW  Elec       q    Type
REMARK                         _______ _______ _______ _____ _____    ______ ____
ROOT
ATOM      1  C   UNL     1      35.196 -18.395 -23.262  0.00  0.00    +0.025 C 
ENDROOT
BRANCH   1   2
ATOM      2  C   UNL     1      35.823 -18.634 -21.886  0.00  0.00    +0.028 C 
BRANCH   2   3
ATOM      3  C   UNL     1      35.010 -19.598 -21.062  0.00  0.00    -0.022 C 
ATOM      4  C   UNL     1      35.657 -20.586 -20.335  0.00  0.00    -0.004 C 
ATOM      5  C   UNL     1      33.629 -19.482 -21.042  0.00  0.00    -0.004 C 
ATOM      6  C   UNL     1      34.905 -21.478 -19.571  0.00  0.00    -0.000 C 
ATOM      7  C   UNL     1      32.877 -20.374 -20.278  0.00  0.00    -0.000 C 
ATOM      8  C   UNL     1      33.514 -21.373 -19.543  0.00  0.00    -0.000 C 
ENDBRANCH   2   3
ENDBRANCH   1   2
BRANCH   1   9
ATOM      9  C   UNL     1      34.896 -16.912 -23.480  0.00  0.00    +0.104 C 
BRANCH   9  10
ATOM     10  N   UNL     1      34.824 -16.614 -24.905  0.00  0.00    -0.141 NA
BRANCH  10  11
ATOM     11  O   UNL     1      34.367 -17.853 -25.513  0.00  0.00    -0.309 OA
ATOM     12  H   UNL     1      35.113 -18.467 -25.593  0.00  0.00    +0.237 HD
ENDBRANCH  10  11
BRANCH  10  13
ATOM     13  C   UNL     1      33.765 -15.645 -25.187  0.00  0.00    +0.241 C 
BRANCH  13  14
ATOM     14  O   UNL     1      33.438 -15.598 -26.574  0.00  0.00    -0.365 OA
ATOM     15  H   UNL     1      33.449 -16.495 -26.940  0.00  0.00    +0.212 HD
ENDBRANCH  13  14
ENDBRANCH  10  13
ENDBRANCH   9  10
ENDBRANCH   1   9
TORSDOF 7
ENDMDL
MODEL 3
REMARK VINA RESULT:      -7.1      1.146      1.778
REMARK  Name = 5289329
REMARK  7 active torsions:
REMARK  status: ('A' for Active; 'I' for Inactive)
REMARK    1  A    between atoms: C_1  and  C_2
REMARK    2  A    between atoms: C_1  and  C_9
REMARK    3  A    between atoms: C_2  and  C_3
REMARK    4  A    between atoms: C_9  and  N_10
REMARK    5  A    between atoms: N_10  and  O_11
REMARK    6  A    between atoms: N_10  and  C_13
REMARK    7  A    between atoms: C_13  and  O_14
REMARK                            x       y       z     vdW  Elec       q    Type
REMARK                         _______ _______ _______ _____ _____    ______ ____
ROOT
ATOM      1  C   UNL     1      35.267 -18.424 -23.261  0.00  0.00    +0.025 C 
ENDROOT
BRANCH   1   2
ATOM      2  C   UNL     1      35.865 -18.637 -21.868  0.00  0.00    +0.028 C 
BRANCH   2   3
ATOM      3  C   UNL     1      35.044 -19.598 -21.049  0.00  0.00    -0.022 C 
ATOM      4  C   UNL     1      33.663 -19.473 -21.032  0.00  0.00    -0.004 C 
ATOM      5  C   UNL     1      35.682 -20.595 -20.325  0.00  0.00    -0.004 C 
ATOM      6  C   UNL     1      32.902 -20.363 -20.275  0.00  0.00    -0.000 C 
ATOM      7  C   UNL     1      34.921 -21.485 -19.567  0.00  0.00    -0.000 C 
ATOM      8  C   UNL     1      33.532 -21.369 -19.541  0.00  0.00    -0.000 C 
ENDBRANCH   2   3
ENDBRANCH   1   2
BRANCH   1   9
ATOM      9  C   UNL     1      34.848 -16.969 -23.464  0.00  0.00    +0.104 C 
BRANCH   9  10
ATOM     10  N   UNL     1      34.826 -16.642 -24.885  0.00  0.00    -0.141 NA
BRANCH  10  11
ATOM     11  O   UNL     1      34.402 -17.872 -25.534  0.00  0.00    -0.309 OA
ATOM     12  H   UNL     1      33.522 -17.746 -25.922  0.00  0.00    +0.237 HD
ENDBRANCH  10  11
BRANCH  10  13
ATOM     13  C   UNL     1      33.769 -15.676 -25.186  0.00  0.00    +0.241 C 
BRANCH  13  14
ATOM     14  O   UNL     1      33.455 -15.640 -26.576  0.00  0.00    -0.365 OA
ATOM     15  H   UNL     1      33.866 -14.861 -26.981  0.00  0.00    +0.212 HD
ENDBRANCH  13  14
ENDBRANCH  10  13
ENDBRANCH   9  10
ENDBRANCH   1   9
TORSDOF 7
ENDMDL
MODEL 4
REMARK VINA RESULT:      -7.0      0.888      1.753
REMARK  Name = 5289329
REMARK  7 active torsions:
REMARK  status: ('A' for Active; 'I' for Inactive)
REMARK    1  A    between atoms: C_1  and  C_2
REMARK    2  A    between atoms: C_1  and  C_9
REMARK    3  A    between atoms: C_2  and  C_3
REMARK    4  A    between atoms: C_9  and  N_10
REMARK    5  A    between atoms: N_10  and  O_11
REMARK    6  A    between atoms: N_10  and  C_13
REMARK    7  A    between atoms: C_13  and  O_14
REMARK                            x       y       z     vdW  Elec       q    Type
REMARK                         _______ _______ _______ _____ _____    ______ ____
ROOT
ATOM      1  C   UNL     1      35.682 -18.134 -21.654  0.00  0.00    +0.025 C 
ENDROOT
BRANCH   1   2
ATOM      2  C   UNL     1      36.365 -19.335 -20.995  0.00  0.00    +0.028 C 
BRANCH   2   3
ATOM      3  C   UNL     1      35.366 -20.257 -20.344  0.00  0.00    -0.022 C 
ATOM      4  C   UNL     1      34.010 -20.042 -20.541  0.00  0.00    -0.004 C 
ATOM      5  C   UNL     1      35.818 -21.307 -19.560  0.00  0.00    -0.004 C 
ATOM      6  C   UNL     1      33.086 -20.896 -19.940  0.00  0.00    -0.000 C 
ATOM      7  C   UNL     1      34.894 -22.161 -18.958  0.00  0.00    -0.000 C 
ATOM      8  C   UNL     1      33.528 -21.955 -19.147  0.00  0.00    -0.000 C 
ENDBRANCH   2   3
ENDBRANCH   1   2
BRANCH   1   9
ATOM      9  C   UNL     1      35.673 -18.273 -23.176  0.00  0.00    +0.104 C 
BRANCH   9  10
ATOM     10  N   UNL     1      34.827 -17.247 -23.774  0.00  0.00    -0.141 NA
BRANCH  10  11
ATOM     11  O   UNL     1      35.624 -16.032 -23.702  0.00  0.00    -0.309 OA
ATOM     12  H   UNL     1      35.326 -15.410 -24.383  0.00  0.00    +0.237 HD
ENDBRANCH  10  11
BRANCH  10  13
ATOM     13  C   UNL     1      34.639 -17.488 -25.204  0.00  0.00    +0.241 C 
BRANCH  13  14
ATOM     14  O   UNL     1      34.302 -16.295 -25.908  0.00  0.00    -0.365 OA
ATOM     15  H   UNL     1      33.433 -15.981 -25.616  0.00  0.00    +0.212 HD
ENDBRANCH  13  14
ENDBRANCH  10  13
ENDBRANCH   9  10
ENDBRANCH   1   9
TORSDOF 7
ENDMDL
MODEL 5
REMARK VINA RESULT:      -6.9      1.414      1.694
REMARK  Name = 5289329
REMARK  7 active torsions:
REMARK  status: ('A' for Active; 'I' for Inactive)
REMARK    1  A    between atoms: C_1  and  C_2
REMARK    2  A    between atoms: C_1  and  C_9
REMARK    3  A    between atoms: C_2  and  C_3
REMARK    4  A    between atoms: C_9  and  N_10
REMARK    5  A    between atoms: N_10  and  O_11
REMARK    6  A    between atoms: N_10  and  C_13
REMARK    7  A    between atoms: C_13  and  O_14
REMARK                            x       y       z     vdW  Elec       q    Type
REMARK                         _______ _______ _______ _____ _____    ______ ____
ROOT
ATOM      1  C   UNL     1      35.189 -17.567 -21.542  0.00  0.00    +0.025 C 
ENDROOT
BRANCH   1   2
ATOM      2  C   UNL     1      34.399 -18.816 -21.936  0.00  0.00    +0.028 C 
BRANCH   2   3
ATOM      3  C   UNL     1      34.528 -19.907 -20.904  0.00  0.00    -0.022 C 
ATOM      4  C   UNL     1      35.790 -20.326 -20.510  0.00  0.00    -0.004 C 
ATOM      5  C   UNL     1      33.384 -20.473 -20.363  0.00  0.00    -0.004 C 
ATOM      6  C   UNL     1      35.910 -21.335 -19.554  0.00  0.00    -0.000 C 
ATOM      7  C   UNL     1      33.504 -21.482 -19.408  0.00  0.00    -0.000 C 
ATOM      8  C   UNL     1      34.767 -21.913 -19.004  0.00  0.00    -0.000 C 
ENDBRANCH   2   3
ENDBRANCH   1   2
BRANCH   1   9
ATOM      9  C   UNL     1      34.335 -16.307 -21.687  0.00  0.00    +0.104 C 
BRANCH   9  10
ATOM     10  N   UNL     1      34.990 -15.349 -22.569  0.00  0.00    -0.141 NA
BRANCH  10  11
ATOM     11  O   UNL     1      35.693 -16.172 -23.540  0.00  0.00    -0.309 OA
ATOM     12  H   UNL     1      36.074 -15.605 -24.229  0.00  0.00    +0.237 HD
ENDBRANCH  10  11
BRANCH  10  13
ATOM     13  C   UNL     1      34.009 -14.600 -23.353  0.00  0.00    +0.241 C 
BRANCH  13  14
ATOM     14  O   UNL     1      34.316 -13.209 -23.408  0.00  0.00    -0.365 OA
ATOM     15  H   UNL     1      34.016 -12.844 -24.254  0.00  0.00    +0.212 HD
ENDBRANCH  13  14
ENDBRANCH  10  13
ENDBRANCH   9  10
ENDBRANCH   1   9
TORSDOF 7
ENDMDL
MODEL 6
REMARK VINA RESULT:      -6.7      1.395      2.373
REMARK  Name = 5289329
REMARK  7 active torsions:
REMARK  status: ('A' for Active; 'I' for Inactive)
REMARK    1  A    between atoms: C_1  and  C_2
REMARK    2  A    between atoms: C_1  and  C_9
REMARK    3  A    between atoms: C_2  and  C_3
REMARK    4  A    between atoms: C_9  and  N_10
REMARK    5  A    between atoms: N_10  and  O_11
REMARK    6  A    between atoms: N_10  and  C_13
REMARK    7  A    between atoms: C_13  and  O_14
REMARK                            x       y       z     vdW  Elec       q    Type
REMARK                         _______ _______ _______ _____ _____    ______ ____
ROOT
ATOM      1  C   UNL     1      34.848 -19.236 -22.556  0.00  0.00    +0.025 C 
ENDROOT
BRANCH   1   2
ATOM      2  C   UNL     1      33.811 -19.487 -21.459  0.00  0.00    +0.028 C 
BRANCH   2   3
ATOM      3  C   UNL     1      34.319 -20.451 -20.419  0.00  0.00    -0.022 C 
ATOM      4  C   UNL     1      33.415 -21.227 -19.710  0.00  0.00    -0.004 C 
ATOM      5  C   UNL     1      35.683 -20.550 -20.190  0.00  0.00    -0.004 C 
ATOM      6  C   UNL     1      33.886 -22.121 -18.748  0.00  0.00    -0.000 C 
ATOM      7  C   UNL     1      36.154 -21.443 -19.228  0.00  0.00    -0.000 C 
ATOM      8  C   UNL     1      35.256 -22.228 -18.506  0.00  0.00    -0.000 C 
ENDBRANCH   2   3
ENDBRANCH   1   2
BRANCH   1   9
ATOM      9  C   UNL     1      34.586 -17.910 -23.269  0.00  0.00    +0.104 C 
BRANCH   9  10
ATOM     10  N   UNL     1      35.357 -16.840 -22.647  0.00  0.00    -0.141 NA
BRANCH  10  11
ATOM     11  O   UNL     1      35.719 -15.964 -23.751  0.00  0.00    -0.309 OA
ATOM     12  H   UNL     1      35.582 -16.430 -24.591  0.00  0.00    +0.237 HD
ENDBRANCH  10  11
BRANCH  10  13
ATOM     13  C   UNL     1      34.513 -16.019 -21.779  0.00  0.00    +0.241 C 
BRANCH  13  14
ATOM     14  O   UNL     1      35.000 -15.979 -20.440  0.00  0.00    -0.365 OA
ATOM     15  H   UNL     1      35.601 -16.726 -20.292  0.00  0.00    +0.212 HD
ENDBRANCH  13  14
ENDBRANCH  10  13
ENDBRANCH   9  10
ENDBRANCH   1   9
TORSDOF 7
ENDMDL
MODEL 7
REMARK VINA RESULT:      -6.6      4.142      6.122
REMARK  Name = 5289329
REMARK  7 active torsions:
REMARK  status: ('A' for Active; 'I' for Inactive)
REMARK    1  A    between atoms: C_1  and  C_2
REMARK    2  A    between atoms: C_1  and  C_9
REMARK    3  A    between atoms: C_2  and  C_3
REMARK    4  A    between atoms: C_9  and  N_10
REMARK    5  A    between atoms: N_10  and  O_11
REMARK    6  A    between atoms: N_10  and  C_13
REMARK    7  A    between atoms: C_13  and  O_14
REMARK                            x       y       z     vdW  Elec       q    Type
REMARK                         _______ _______ _______ _____ _____    ______ ____
ROOT
ATOM      1  C   UNL     1      34.884 -19.932 -20.707  0.00  0.00    +0.025 C 
ENDROOT
BRANCH   1   2
ATOM      2  C   UNL     1      35.758 -18.785 -21.218  0.00  0.00    +0.028 C 
BRANCH   2   3
ATOM      3  C   UNL     1      35.301 -18.292 -22.567  0.00  0.00    -0.022 C 
ATOM      4  C   UNL     1      35.290 -16.930 -22.827  0.00  0.00    -0.004 C 
ATOM      5  C   UNL     1      34.899 -19.208 -23.527  0.00  0.00    -0.004 C 
ATOM      6  C   UNL     1      34.868 -16.474 -24.075  0.00  0.00    -0.000 C 
ATOM      7  C   UNL     1      34.476 -18.752 -24.775  0.00  0.00    -0.000 C 
ATOM      8  C   UNL     1      34.460 -17.385 -25.049  0.00  0.00    -0.000 C 
ENDBRANCH   2   3
ENDBRANCH   1   2
BRANCH   1   9
ATOM      9  C   UNL     1      35.737 -21.041 -20.090  0.00  0.00    +0.104 C 
BRANCH   9  10
ATOM     10  N   UNL     1      34.887 -22.111 -19.582  0.00  0.00    -0.141 NA
BRANCH  10  11
ATOM     11  O   UNL     1      35.363 -22.340 -18.227  0.00  0.00    -0.309 OA
ATOM     12  H   UNL     1      35.943 -23.117 -18.216  0.00  0.00    +0.237 HD
ENDBRANCH  10  11
BRANCH  10  13
ATOM     13  C   UNL     1      33.506 -21.655 -19.422  0.00  0.00    +0.241 C 
BRANCH  13  14
ATOM     14  O   UNL     1      32.769 -22.481 -18.524  0.00  0.00    -0.365 OA
ATOM     15  H   UNL     1      32.076 -22.951 -19.011  0.00  0.00    +0.212 HD
ENDBRANCH  13  14
ENDBRANCH  10  13
ENDBRANCH   9  10
ENDBRANCH   1   9
TORSDOF 7
ENDMDL
MODEL 8
REMARK VINA RESULT:      -6.5      6.352      8.516
REMARK  Name = 5289329
REMARK  7 active torsions:
REMARK  status: ('A' for Active; 'I' for Inactive)
REMARK    1  A    between atoms: C_1  and  C_2
REMARK    2  A    between atoms: C_1  and  C_9
REMARK    3  A    between atoms: C_2  and  C_3
REMARK    4  A    between atoms: C_9  and  N_10
REMARK    5  A    between atoms: N_10  and  O_11
REMARK    6  A    between atoms: N_10  and  C_13
REMARK    7  A    between atoms: C_13  and  O_14
REMARK                            x       y       z     vdW  Elec       q    Type
REMARK                         _______ _______ _______ _____ _____    ______ ____
ROOT
ATOM      1  C   UNL     1      34.270 -23.129 -17.102  0.00  0.00    +0.025 C 
ENDROOT
BRANCH   1   2
ATOM      2  C   UNL     1      33.269 -22.650 -18.156  0.00  0.00    +0.028 C 
BRANCH   2   3
ATOM      3  C   UNL     1      33.900 -21.685 -19.126  0.00  0.00    -0.022 C 
ATOM      4  C   UNL     1      33.092 -20.816 -19.845  0.00  0.00    -0.004 C 
ATOM      5  C   UNL     1      35.277 -21.678 -19.284  0.00  0.00    -0.004 C 
ATOM      6  C   UNL     1      33.675 -19.922 -20.742  0.00  0.00    -0.000 C 
ATOM      7  C   UNL     1      35.860 -20.784 -20.181  0.00  0.00    -0.000 C 
ATOM      8  C   UNL     1      35.060 -19.906 -20.911  0.00  0.00    -0.000 C 
ENDBRANCH   2   3
ENDBRANCH   1   2
BRANCH   1   9
ATOM      9  C   UNL     1      33.567 -23.461 -15.786  0.00  0.00    +0.104 C 
BRANCH   9  10
ATOM     10  N   UNL     1      34.334 -24.449 -15.037  0.00  0.00    -0.141 NA
BRANCH  10  11
ATOM     11  O   UNL     1      35.622 -24.496 -15.710  0.00  0.00    -0.309 OA
ATOM     12  H   UNL     1      35.838 -25.415 -15.930  0.00  0.00    +0.237 HD
ENDBRANCH  10  11
BRANCH  10  13
ATOM     13  C   UNL     1      34.633 -23.969 -13.688  0.00  0.00    +0.241 C 
BRANCH  13  14
ATOM     14  O   UNL     1      33.979 -24.745 -12.686  0.00  0.00    -0.365 OA
ATOM     15  H   UNL     1      33.710 -24.168 -11.955  0.00  0.00    +0.212 HD
ENDBRANCH  13  14
ENDBRANCH  10  13
ENDBRANCH   9  10
ENDBRANCH   1   9
TORSDOF 7
ENDMDL
MODEL 9
REMARK VINA RESULT:      -6.4      2.977      4.309
REMARK  Name = 5289329
REMARK  7 active torsions:
REMARK  status: ('A' for Active; 'I' for Inactive)
REMARK    1  A    between atoms: C_1  and  C_2
REMARK    2  A    between atoms: C_1  and  C_9
REMARK    3  A    between atoms: C_2  and  C_3
REMARK    4  A    between atoms: C_9  and  N_10
REMARK    5  A    between atoms: N_10  and  O_11
REMARK    6  A    between atoms: N_10  and  C_13
REMARK    7  A    between atoms: C_13  and  O_14
REMARK                            x       y       z     vdW  Elec       q    Type
REMARK                         _______ _______ _______ _____ _____    ______ ____
ROOT
ATOM      1  C   UNL     1      33.150 -15.329 -20.674  0.00  0.00    +0.025 C 
ENDROOT
BRANCH   1   2
ATOM      2  C   UNL     1      34.583 -15.856 -20.775  0.00  0.00    +0.028 C 
BRANCH   2   3
ATOM      3  C   UNL     1      34.688 -17.004 -21.746  0.00  0.00    -0.022 C 
ATOM      4  C   UNL     1      34.994 -16.748 -23.074  0.00  0.00    -0.004 C 
ATOM      5  C   UNL     1      34.479 -18.299 -21.296  0.00  0.00    -0.004 C 
ATOM      6  C   UNL     1      35.092 -17.810 -23.972  0.00  0.00    -0.000 C 
ATOM      7  C   UNL     1      34.577 -19.361 -22.194  0.00  0.00    -0.000 C 
ATOM      8  C   UNL     1      34.883 -19.117 -23.532  0.00  0.00    -0.000 C 
ENDBRANCH   2   3
ENDBRANCH   1   2
BRANCH   1   9
ATOM      9  C   UNL     1      33.059 -13.885 -21.168  0.00  0.00    +0.104 C 
BRANCH   9  10
ATOM     10  N   UNL     1      32.182 -13.801 -22.330  0.00  0.00    -0.141 NA
BRANCH  10  11
ATOM     11  O   UNL     1      31.517 -12.515 -22.191  0.00  0.00    -0.309 OA
ATOM     12  H   UNL     1      30.572 -12.656 -22.026  0.00  0.00    +0.237 HD
ENDBRANCH  10  11
BRANCH  10  13
ATOM     13  C   UNL     1      32.955 -13.693 -23.566  0.00  0.00    +0.241 C 
BRANCH  13  14
ATOM     14  O   UNL     1      34.290 -13.253 -23.327  0.00  0.00    -0.365 OA
ATOM     15  H   UNL     1      34.913 -13.871 -23.738  0.00  0.00    +0.212 HD
ENDBRANCH  13  14
ENDBRANCH  10  13
ENDBRANCH   9  10
ENDBRANCH   1   9
TORSDOF 7
ENDMDL
