MODEL 1
REMARK VINA RESULT:      -3.3      0.000      0.000
REMARK  Name = 15991559
REMARK  9 active torsions:
REMARK  status: ('A' for Active; 'I' for Inactive)
REMARK    1  A    between atoms: C_3  and  C_24
REMARK    2  A    between atoms: C_3  and  C_31
REMARK    3  A    between atoms: C_5  and  C_28
REMARK    4  A    between atoms: C_6  and  C_20
REMARK    5  A    between atoms: C_7  and  C_8
REMARK    6  A    between atoms: C_11  and  C_14
REMARK    7  A    between atoms: C_24  and  O_25
REMARK    8  A    between atoms: C_28  and  O_29
REMARK    9  A    between atoms: C_31  and  C_32
REMARK                            x       y       z     vdW  Elec       q    Type
REMARK                         _______ _______ _______ _____ _____    ______ ____
ROOT
ATOM      1  O   UNL     1      31.924 -13.272 -20.282  0.00  0.00    -0.270 OA
ATOM      2  N   UNL     1      33.182 -12.584 -22.133  0.00  0.00    -0.265 N 
ATOM      3  C   UNL     1      32.818 -11.158 -22.071  0.00  0.00    +0.150 C 
ATOM      4  C   UNL     1      33.856 -10.456 -22.965  0.00  0.00    +0.042 C 
ATOM      5  C   UNL     1      34.284 -11.506 -23.988  0.00  0.00    +0.125 C 
ATOM      6  C   UNL     1      34.154 -12.837 -23.222  0.00  0.00    +0.133 C 
ATOM      7  C   UNL     1      32.732 -13.507 -21.180  0.00  0.00    +0.250 C 
ENDROOT
BRANCH   7   8
ATOM      8  C   UNL     1      33.257 -14.882 -21.227  0.00  0.00    +0.054 C 
ATOM      9  C   UNL     1      32.432 -15.923 -21.643  0.00  0.00    +0.004 C 
ATOM     10  C   UNL     1      34.575 -15.133 -20.853  0.00  0.00    +0.004 C 
ATOM     11  C   UNL     1      34.248 -17.483 -21.313  0.00  0.00    -0.023 C 
ATOM     12  C   UNL     1      32.929 -17.226 -21.686  0.00  0.00    -0.004 C 
ATOM     13  C   UNL     1      35.072 -16.436 -20.896  0.00  0.00    -0.004 C 
BRANCH  11  14
ATOM     14  C   UNL     1      34.780 -18.875 -21.360  0.00  0.00    +0.019 C 
ATOM     15  C   UNL     1      34.867 -19.398 -22.827  0.00  0.00    +0.004 C 
ATOM     16  C   UNL     1      33.865 -19.857 -20.564  0.00  0.00    +0.004 C 
ATOM     17  C   UNL     1      36.213 -19.066 -20.763  0.00  0.00    +0.004 C 
ENDBRANCH  11  14
ENDBRANCH   7   8
BRANCH   6  20
ATOM     18  S   UNL     1      34.929 -15.286 -24.294  0.00  0.00    -0.069 S 
ATOM     19  N   UNL     1      32.661 -14.135 -24.754  0.00  0.00    -0.239 NA
ATOM     20  C   UNL     1      33.795 -14.015 -24.109  0.00  0.00    +0.107 C 
ATOM     21  C   UNL     1      33.820 -16.083 -25.331  0.00  0.00    +0.057 C 
ATOM     22  C   UNL     1      32.675 -15.323 -25.457  0.00  0.00    +0.106 C 
ENDBRANCH   6  20
BRANCH   3  24
ATOM     23  O   UNL     1      30.864  -9.945 -22.834  0.00  0.00    -0.249 OA
ATOM     24  C   UNL     1      31.427 -11.009 -22.629  0.00  0.00    +0.330 C 
BRANCH  24  25
ATOM     25  O   UNL     1      30.877 -12.223 -22.874  0.00  0.00    -0.479 OA
ATOM     26  H   UNL     1      30.027 -12.429 -22.537  0.00  0.00    +0.295 HD
ENDBRANCH  24  25
ENDBRANCH   3  24
BRANCH   5  28
ATOM     27  O   UNL     1      32.412 -10.773 -25.338  0.00  0.00    -0.250 OA
ATOM     28  C   UNL     1      33.469 -11.380 -25.245  0.00  0.00    +0.315 C 
BRANCH  28  29
ATOM     29  O   UNL     1      34.065 -12.035 -26.271  0.00  0.00    -0.480 OA
ATOM     30  H   UNL     1      34.352 -11.559 -27.026  0.00  0.00    +0.295 HD
ENDBRANCH  28  29
ENDBRANCH   5  28
BRANCH   3  31
ATOM     31  C   UNL     1      32.853 -10.542 -20.670  0.00  0.00    +0.029 C 
BRANCH  31  32
ATOM     32  C   UNL     1      31.601  -9.717 -20.336  0.00  0.00    +0.002 C 
ATOM     33  C   UNL     1      30.832 -10.278 -19.139  0.00  0.00    +0.000 C 
ATOM     34  C   UNL     1      32.003  -8.265 -20.058  0.00  0.00    +0.000 C 
ENDBRANCH  31  32
ENDBRANCH   3  31
TORSDOF 9
ENDMDL
MODEL 2
REMARK VINA RESULT:      -2.7      3.015      7.126
REMARK  Name = 15991559
REMARK  9 active torsions:
REMARK  status: ('A' for Active; 'I' for Inactive)
REMARK    1  A    between atoms: C_3  and  C_24
REMARK    2  A    between atoms: C_3  and  C_31
REMARK    3  A    between atoms: C_5  and  C_28
REMARK    4  A    between atoms: C_6  and  C_20
REMARK    5  A    between atoms: C_7  and  C_8
REMARK    6  A    between atoms: C_11  and  C_14
REMARK    7  A    between atoms: C_24  and  O_25
REMARK    8  A    between atoms: C_28  and  O_29
REMARK    9  A    between atoms: C_31  and  C_32
REMARK                            x       y       z     vdW  Elec       q    Type
REMARK                         _______ _______ _______ _____ _____    ______ ____
ROOT
ATOM      1  O   UNL     1      35.321 -16.331 -19.732  0.00  0.00    -0.270 OA
ATOM      2  N   UNL     1      34.372 -17.093 -21.732  0.00  0.00    -0.265 N 
ATOM      3  C   UNL     1      34.974 -18.436 -21.712  0.00  0.00    +0.150 C 
ATOM      4  C   UNL     1      34.158 -19.240 -22.740  0.00  0.00    +0.042 C 
ATOM      5  C   UNL     1      33.644 -18.209 -23.742  0.00  0.00    +0.125 C 
ATOM      6  C   UNL     1      33.469 -16.933 -22.897  0.00  0.00    +0.133 C 
ATOM      7  C   UNL     1      34.566 -16.176 -20.691  0.00  0.00    +0.250 C 
ENDROOT
BRANCH   7   8
ATOM      8  C   UNL     1      33.813 -14.910 -20.716  0.00  0.00    +0.054 C 
ATOM      9  C   UNL     1      32.503 -14.876 -20.247  0.00  0.00    +0.004 C 
ATOM     10  C   UNL     1      34.415 -13.756 -21.210  0.00  0.00    +0.004 C 
ATOM     11  C   UNL     1      32.388 -12.519 -20.765  0.00  0.00    -0.023 C 
ATOM     12  C   UNL     1      31.789 -13.677 -20.271  0.00  0.00    -0.004 C 
ATOM     13  C   UNL     1      33.701 -12.558 -21.235  0.00  0.00    -0.004 C 
BRANCH  11  14
ATOM     14  C   UNL     1      31.626 -11.238 -20.790  0.00  0.00    +0.019 C 
ATOM     15  C   UNL     1      31.641 -10.542 -19.394  0.00  0.00    +0.004 C 
ATOM     16  C   UNL     1      30.134 -11.474 -21.182  0.00  0.00    +0.004 C 
ATOM     17  C   UNL     1      32.154 -10.163 -21.796  0.00  0.00    +0.004 C 
ENDBRANCH  11  14
ENDBRANCH   7   8
BRANCH   6  20
ATOM     18  S   UNL     1      32.351 -14.633 -23.997  0.00  0.00    -0.069 S 
ATOM     19  N   UNL     1      34.855 -15.259 -24.137  0.00  0.00    -0.239 NA
ATOM     20  C   UNL     1      33.691 -15.652 -23.679  0.00  0.00    +0.107 C 
ATOM     21  C   UNL     1      33.402 -13.559 -24.823  0.00  0.00    +0.057 C 
ATOM     22  C   UNL     1      34.688 -14.056 -24.795  0.00  0.00    +0.106 C 
ENDBRANCH   6  20
BRANCH   3  24
ATOM     23  O   UNL     1      37.301 -19.097 -21.855  0.00  0.00    -0.249 OA
ATOM     24  C   UNL     1      36.413 -18.306 -22.137  0.00  0.00    +0.330 C 
BRANCH  24  25
ATOM     25  O   UNL     1      36.594 -17.186 -22.878  0.00  0.00    -0.479 OA
ATOM     26  H   UNL     1      37.453 -16.824 -22.975  0.00  0.00    +0.295 HD
ENDBRANCH  24  25
ENDBRANCH   3  24
BRANCH   5  28
ATOM     27  O   UNL     1      35.662 -18.659 -25.002  0.00  0.00    -0.250 OA
ATOM     28  C   UNL     1      34.576 -18.106 -24.917  0.00  0.00    +0.315 C 
BRANCH  28  29
ATOM     29  O   UNL     1      34.049 -17.310 -25.879  0.00  0.00    -0.480 OA
ATOM     30  H   UNL     1      34.063 -17.586 -26.775  0.00  0.00    +0.295 HD
ENDBRANCH  28  29
ENDBRANCH   5  28
BRANCH   3  31
ATOM     31  C   UNL     1      34.925 -19.146 -20.356  0.00  0.00    +0.029 C 
BRANCH  31  32
ATOM     32  C   UNL     1      34.565 -20.636 -20.461  0.00  0.00    +0.002 C 
ATOM     33  C   UNL     1      35.605 -21.538 -19.793  0.00  0.00    +0.000 C 
ATOM     34  C   UNL     1      33.190 -20.878 -19.833  0.00  0.00    +0.000 C 
ENDBRANCH  31  32
ENDBRANCH   3  31
TORSDOF 9
ENDMDL
MODEL 3
REMARK VINA RESULT:      -1.7      2.347      3.665
REMARK  Name = 15991559
REMARK  9 active torsions:
REMARK  status: ('A' for Active; 'I' for Inactive)
REMARK    1  A    between atoms: C_3  and  C_24
REMARK    2  A    between atoms: C_3  and  C_31
REMARK    3  A    between atoms: C_5  and  C_28
REMARK    4  A    between atoms: C_6  and  C_20
REMARK    5  A    between atoms: C_7  and  C_8
REMARK    6  A    between atoms: C_11  and  C_14
REMARK    7  A    between atoms: C_24  and  O_25
REMARK    8  A    between atoms: C_28  and  O_29
REMARK    9  A    between atoms: C_31  and  C_32
REMARK                            x       y       z     vdW  Elec       q    Type
REMARK                         _______ _______ _______ _____ _____    ______ ____
ROOT
ATOM      1  O   UNL     1      30.741 -10.946 -22.256  0.00  0.00    -0.270 OA
ATOM      2  N   UNL     1      32.664  -9.755 -22.860  0.00  0.00    -0.265 N 
ATOM      3  C   UNL     1      32.185  -8.426 -22.442  0.00  0.00    +0.150 C 
ATOM      4  C   UNL     1      33.456  -7.558 -22.388  0.00  0.00    +0.042 C 
ATOM      5  C   UNL     1      34.417  -8.186 -23.395  0.00  0.00    +0.125 C 
ATOM      6  C   UNL     1      34.059  -9.685 -23.357  0.00  0.00    +0.133 C 
ATOM      7  C   UNL     1      31.900 -10.913 -22.671  0.00  0.00    +0.250 C 
ENDROOT
BRANCH   7   8
ATOM      8  C   UNL     1      32.507 -12.218 -22.982  0.00  0.00    +0.054 C 
ATOM      9  C   UNL     1      31.993 -12.990 -24.020  0.00  0.00    +0.004 C 
ATOM     10  C   UNL     1      33.589 -12.673 -22.234  0.00  0.00    +0.004 C 
ATOM     11  C   UNL     1      33.652 -14.687 -23.568  0.00  0.00    -0.023 C 
ATOM     12  C   UNL     1      32.568 -14.227 -24.313  0.00  0.00    -0.004 C 
ATOM     13  C   UNL     1      34.164 -13.910 -22.527  0.00  0.00    -0.004 C 
BRANCH  11  14
ATOM     14  C   UNL     1      34.267 -16.009 -23.882  0.00  0.00    +0.019 C 
ATOM     15  C   UNL     1      33.862 -16.497 -25.307  0.00  0.00    +0.004 C 
ATOM     16  C   UNL     1      33.813 -17.100 -22.864  0.00  0.00    +0.004 C 
ATOM     17  C   UNL     1      35.831 -16.044 -23.859  0.00  0.00    +0.004 C 
ENDBRANCH  11  14
ENDBRANCH   7   8
BRANCH   6  20
ATOM     18  S   UNL     1      35.858 -10.430 -25.345  0.00  0.00    -0.069 S 
ATOM     19  N   UNL     1      33.336 -10.997 -25.360  0.00  0.00    -0.239 NA
ATOM     20  C   UNL     1      34.280 -10.396 -24.678  0.00  0.00    +0.107 C 
ATOM     21  C   UNL     1      35.245 -11.330 -26.671  0.00  0.00    +0.057 C 
ATOM     22  C   UNL     1      33.891 -11.534 -26.505  0.00  0.00    +0.106 C 
ENDBRANCH   6  20
BRANCH   3  24
ATOM     23  O   UNL     1      30.993  -8.486 -24.551  0.00  0.00    -0.249 OA
ATOM     24  C   UNL     1      31.227  -7.927 -23.490  0.00  0.00    +0.330 C 
BRANCH  24  25
ATOM     25  O   UNL     1      30.653  -6.763 -23.098  0.00  0.00    -0.479 OA
ATOM     26  H   UNL     1      29.719  -6.693 -23.054  0.00  0.00    +0.295 HD
ENDBRANCH  24  25
ENDBRANCH   3  24
BRANCH   5  28
ATOM     27  O   UNL     1      34.988  -7.759 -25.708  0.00  0.00    -0.250 OA
ATOM     28  C   UNL     1      34.298  -7.508 -24.731  0.00  0.00    +0.315 C 
BRANCH  28  29
ATOM     29  O   UNL     1      33.318  -6.573 -24.709  0.00  0.00    -0.480 OA
ATOM     30  H   UNL     1      33.467  -5.729 -25.089  0.00  0.00    +0.295 HD
ENDBRANCH  28  29
ENDBRANCH   5  28
BRANCH   3  31
ATOM     31  C   UNL     1      31.486  -8.391 -21.080  0.00  0.00    +0.029 C 
BRANCH  31  32
ATOM     32  C   UNL     1      32.457  -8.498 -19.894  0.00  0.00    +0.002 C 
ATOM     33  C   UNL     1      32.430  -7.257 -19.001  0.00  0.00    +0.000 C 
ATOM     34  C   UNL     1      32.119  -9.740 -19.065  0.00  0.00    +0.000 C 
ENDBRANCH  31  32
ENDBRANCH   3  31
TORSDOF 9
ENDMDL
MODEL 4
REMARK VINA RESULT:      -1.6      2.204      4.409
REMARK  Name = 15991559
REMARK  9 active torsions:
REMARK  status: ('A' for Active; 'I' for Inactive)
REMARK    1  A    between atoms: C_3  and  C_24
REMARK    2  A    between atoms: C_3  and  C_31
REMARK    3  A    between atoms: C_5  and  C_28
REMARK    4  A    between atoms: C_6  and  C_20
REMARK    5  A    between atoms: C_7  and  C_8
REMARK    6  A    between atoms: C_11  and  C_14
REMARK    7  A    between atoms: C_24  and  O_25
REMARK    8  A    between atoms: C_28  and  O_29
REMARK    9  A    between atoms: C_31  and  C_32
REMARK                            x       y       z     vdW  Elec       q    Type
REMARK                         _______ _______ _______ _____ _____    ______ ____
ROOT
ATOM      1  O   UNL     1      34.080 -10.954 -24.624  0.00  0.00    -0.270 OA
ATOM      2  N   UNL     1      32.451 -11.345 -22.989  0.00  0.00    -0.265 N 
ATOM      3  C   UNL     1      32.064  -9.939 -22.787  0.00  0.00    +0.150 C 
ATOM      4  C   UNL     1      30.723 -10.013 -22.035  0.00  0.00    +0.042 C 
ATOM      5  C   UNL     1      30.763 -11.331 -21.266  0.00  0.00    +0.125 C 
ATOM      6  C   UNL     1      31.620 -12.249 -22.159  0.00  0.00    +0.133 C 
ATOM      7  C   UNL     1      33.401 -11.725 -23.946  0.00  0.00    +0.250 C 
ENDROOT
BRANCH   7   8
ATOM      8  C   UNL     1      33.626 -13.160 -24.187  0.00  0.00    +0.054 C 
ATOM      9  C   UNL     1      32.903 -13.816 -25.178  0.00  0.00    +0.004 C 
ATOM     10  C   UNL     1      34.560 -13.852 -23.420  0.00  0.00    +0.004 C 
ATOM     11  C   UNL     1      34.049 -15.874 -24.641  0.00  0.00    -0.023 C 
ATOM     12  C   UNL     1      33.115 -15.176 -25.406  0.00  0.00    -0.004 C 
ATOM     13  C   UNL     1      34.772 -15.212 -23.648  0.00  0.00    -0.004 C 
BRANCH  11  14
ATOM     14  C   UNL     1      34.277 -17.327 -24.885  0.00  0.00    +0.019 C 
ATOM     15  C   UNL     1      34.609 -18.078 -23.558  0.00  0.00    +0.004 C 
ATOM     16  C   UNL     1      35.468 -17.557 -25.865  0.00  0.00    +0.004 C 
ATOM     17  C   UNL     1      33.068 -18.100 -25.509  0.00  0.00    +0.004 C 
ENDBRANCH  11  14
ENDBRANCH   7   8
BRANCH   6  20
ATOM     18  S   UNL     1      31.799 -14.875 -21.252  0.00  0.00    -0.069 S 
ATOM     19  N   UNL     1      33.561 -13.040 -20.794  0.00  0.00    -0.239 NA
ATOM     20  C   UNL     1      32.415 -13.282 -21.383  0.00  0.00    +0.107 C 
ATOM     21  C   UNL     1      33.178 -15.300 -20.325  0.00  0.00    +0.057 C 
ATOM     22  C   UNL     1      34.000 -14.200 -20.186  0.00  0.00    +0.106 C 
ENDBRANCH   6  20
BRANCH   3  24
ATOM     23  O   UNL     1      32.960  -8.852 -20.816  0.00  0.00    -0.249 OA
ATOM     24  C   UNL     1      33.126  -9.281 -21.948  0.00  0.00    +0.330 C 
BRANCH  24  25
ATOM     25  O   UNL     1      34.302  -9.224 -22.620  0.00  0.00    -0.479 OA
ATOM     26  H   UNL     1      34.902  -8.523 -22.456  0.00  0.00    +0.295 HD
ENDBRANCH  24  25
ENDBRANCH   3  24
BRANCH   5  28
ATOM     27  O   UNL     1      31.874 -11.934 -19.201  0.00  0.00    -0.250 OA
ATOM     28  C   UNL     1      31.264 -11.110 -19.866  0.00  0.00    +0.315 C 
BRANCH  28  29
ATOM     29  O   UNL     1      30.946  -9.866 -19.434  0.00  0.00    -0.480 OA
ATOM     30  H   UNL     1      31.536  -9.153 -19.583  0.00  0.00    +0.295 HD
ENDBRANCH  28  29
ENDBRANCH   5  28
BRANCH   3  31
ATOM     31  C   UNL     1      31.882  -9.129 -24.074  0.00  0.00    +0.029 C 
BRANCH  31  32
ATOM     32  C   UNL     1      31.779  -7.615 -23.830  0.00  0.00    +0.002 C 
ATOM     33  C   UNL     1      32.935  -6.839 -24.463  0.00  0.00    +0.000 C 
ATOM     34  C   UNL     1      30.447  -7.097 -24.379  0.00  0.00    +0.000 C 
ENDBRANCH  31  32
ENDBRANCH   3  31
TORSDOF 9
ENDMDL
MODEL 5
REMARK VINA RESULT:      -1.5      6.453     10.770
REMARK  Name = 15991559
REMARK  9 active torsions:
REMARK  status: ('A' for Active; 'I' for Inactive)
REMARK    1  A    between atoms: C_3  and  C_24
REMARK    2  A    between atoms: C_3  and  C_31
REMARK    3  A    between atoms: C_5  and  C_28
REMARK    4  A    between atoms: C_6  and  C_20
REMARK    5  A    between atoms: C_7  and  C_8
REMARK    6  A    between atoms: C_11  and  C_14
REMARK    7  A    between atoms: C_24  and  O_25
REMARK    8  A    between atoms: C_28  and  O_29
REMARK    9  A    between atoms: C_31  and  C_32
REMARK                            x       y       z     vdW  Elec       q    Type
REMARK                         _______ _______ _______ _____ _____    ______ ____
ROOT
ATOM      1  O   UNL     1      33.246  -7.996 -25.497  0.00  0.00    -0.270 OA
ATOM      2  N   UNL     1      32.666  -6.343 -23.945  0.00  0.00    -0.265 N 
ATOM      3  C   UNL     1      32.264  -7.253 -22.860  0.00  0.00    +0.150 C 
ATOM      4  C   UNL     1      32.224  -6.364 -21.604  0.00  0.00    +0.042 C 
ATOM      5  C   UNL     1      31.922  -4.957 -22.116  0.00  0.00    +0.125 C 
ATOM      6  C   UNL     1      32.574  -4.928 -23.511  0.00  0.00    +0.133 C 
ATOM      7  C   UNL     1      33.179  -6.814 -25.160  0.00  0.00    +0.250 C 
ENDROOT
BRANCH   7   8
ATOM      8  C   UNL     1      33.694  -5.839 -26.135  0.00  0.00    +0.054 C 
ATOM      9  C   UNL     1      35.039  -5.481 -26.111  0.00  0.00    +0.004 C 
ATOM     10  C   UNL     1      32.832  -5.278 -27.073  0.00  0.00    +0.004 C 
ATOM     11  C   UNL     1      34.668  -3.992 -27.977  0.00  0.00    -0.023 C 
ATOM     12  C   UNL     1      35.527  -4.556 -27.034  0.00  0.00    -0.004 C 
ATOM     13  C   UNL     1      33.320  -4.352 -27.997  0.00  0.00    -0.004 C 
BRANCH  11  14
ATOM     14  C   UNL     1      35.189  -3.003 -28.964  0.00  0.00    +0.019 C 
ATOM     15  C   UNL     1      34.033  -2.383 -29.808  0.00  0.00    +0.004 C 
ATOM     16  C   UNL     1      36.191  -3.670 -29.957  0.00  0.00    +0.004 C 
ATOM     17  C   UNL     1      35.957  -1.786 -28.353  0.00  0.00    +0.004 C 
ENDBRANCH  11  14
ENDBRANCH   7   8
BRANCH   6  20
ATOM     18  S   UNL     1      32.542  -2.500 -24.873  0.00  0.00    -0.069 S 
ATOM     19  N   UNL     1      30.732  -4.332 -25.095  0.00  0.00    -0.239 NA
ATOM     20  C   UNL     1      31.857  -4.025 -24.498  0.00  0.00    +0.107 C 
ATOM     21  C   UNL     1      31.227  -2.205 -25.933  0.00  0.00    +0.057 C 
ATOM     22  C   UNL     1      30.369  -3.286 -25.921  0.00  0.00    +0.106 C 
ENDBRANCH   6  20
BRANCH   3  24
ATOM     23  O   UNL     1      30.283  -8.607 -22.516  0.00  0.00    -0.249 OA
ATOM     24  C   UNL     1      30.898  -7.794 -23.191  0.00  0.00    +0.330 C 
BRANCH  24  25
ATOM     25  O   UNL     1      30.437  -7.257 -24.346  0.00  0.00    -0.479 OA
ATOM     26  H   UNL     1      29.765  -7.696 -24.831  0.00  0.00    +0.295 HD
ENDBRANCH  24  25
ENDBRANCH   3  24
BRANCH   5  28
ATOM     27  O   UNL     1      29.580  -5.531 -21.906  0.00  0.00    -0.250 OA
ATOM     28  C   UNL     1      30.445  -4.683 -22.066  0.00  0.00    +0.315 C 
BRANCH  28  29
ATOM     29  O   UNL     1      30.197  -3.361 -22.225  0.00  0.00    -0.480 OA
ATOM     30  H   UNL     1      29.474  -3.080 -22.752  0.00  0.00    +0.295 HD
ENDBRANCH  28  29
ENDBRANCH   5  28
BRANCH   3  31
ATOM     31  C   UNL     1      33.213  -8.431 -22.620  0.00  0.00    +0.029 C 
BRANCH  31  32
ATOM     32  C   UNL     1      32.572  -9.798 -22.906  0.00  0.00    +0.002 C 
ATOM     33  C   UNL     1      33.443 -10.676 -23.806  0.00  0.00    +0.000 C 
ATOM     34  C   UNL     1      32.297 -10.522 -21.586  0.00  0.00    +0.000 C 
ENDBRANCH  31  32
ENDBRANCH   3  31
TORSDOF 9
ENDMDL
MODEL 6
REMARK VINA RESULT:      -0.7      2.461      3.868
REMARK  Name = 15991559
REMARK  9 active torsions:
REMARK  status: ('A' for Active; 'I' for Inactive)
REMARK    1  A    between atoms: C_3  and  C_24
REMARK    2  A    between atoms: C_3  and  C_31
REMARK    3  A    between atoms: C_5  and  C_28
REMARK    4  A    between atoms: C_6  and  C_20
REMARK    5  A    between atoms: C_7  and  C_8
REMARK    6  A    between atoms: C_11  and  C_14
REMARK    7  A    between atoms: C_24  and  O_25
REMARK    8  A    between atoms: C_28  and  O_29
REMARK    9  A    between atoms: C_31  and  C_32
REMARK                            x       y       z     vdW  Elec       q    Type
REMARK                         _______ _______ _______ _____ _____    ______ ____
ROOT
ATOM      1  O   UNL     1      30.405  -9.825 -21.722  0.00  0.00    -0.270 OA
ATOM      2  N   UNL     1      32.470  -9.115 -22.566  0.00  0.00    -0.265 N 
ATOM      3  C   UNL     1      32.165  -7.675 -22.586  0.00  0.00    +0.150 C 
ATOM      4  C   UNL     1      33.537  -6.992 -22.736  0.00  0.00    +0.042 C 
ATOM      5  C   UNL     1      34.415  -8.007 -23.465  0.00  0.00    +0.125 C 
ATOM      6  C   UNL     1      33.865  -9.368 -22.997  0.00  0.00    +0.133 C 
ATOM      7  C   UNL     1      31.561 -10.060 -22.075  0.00  0.00    +0.250 C 
ENDROOT
BRANCH   7   8
ATOM      8  C   UNL     1      31.996 -11.462 -21.954  0.00  0.00    +0.054 C 
ATOM      9  C   UNL     1      31.850 -12.327 -23.035  0.00  0.00    +0.004 C 
ATOM     10  C   UNL     1      32.548 -11.914 -20.759  0.00  0.00    +0.004 C 
ATOM     11  C   UNL     1      32.815 -14.113 -21.726  0.00  0.00    -0.023 C 
ATOM     12  C   UNL     1      32.261 -13.655 -22.920  0.00  0.00    -0.004 C 
ATOM     13  C   UNL     1      32.958 -13.243 -20.644  0.00  0.00    -0.004 C 
BRANCH  11  14
ATOM     14  C   UNL     1      33.255 -15.532 -21.602  0.00  0.00    +0.019 C 
ATOM     15  C   UNL     1      33.606 -16.139 -22.996  0.00  0.00    +0.004 C 
ATOM     16  C   UNL     1      32.136 -16.419 -20.973  0.00  0.00    +0.004 C 
ATOM     17  C   UNL     1      34.521 -15.767 -20.715  0.00  0.00    +0.004 C 
ENDBRANCH  11  14
ENDBRANCH   7   8
BRANCH   6  20
ATOM     18  S   UNL     1      32.928 -10.482 -25.370  0.00  0.00    -0.069 S 
ATOM     19  N   UNL     1      34.897 -11.422 -23.985  0.00  0.00    -0.239 NA
ATOM     20  C   UNL     1      34.002 -10.467 -24.035  0.00  0.00    +0.107 C 
ATOM     21  C   UNL     1      33.717 -11.890 -25.950  0.00  0.00    +0.057 C 
ATOM     22  C   UNL     1      34.734 -12.240 -25.085  0.00  0.00    +0.106 C 
ENDBRANCH   6  20
BRANCH   3  24
ATOM     23  O   UNL     1      30.881  -8.249 -24.559  0.00  0.00    -0.249 OA
ATOM     24  C   UNL     1      31.286  -7.402 -23.778  0.00  0.00    +0.330 C 
BRANCH  24  25
ATOM     25  O   UNL     1      31.003  -6.080 -23.872  0.00  0.00    -0.479 OA
ATOM     26  H   UNL     1      31.142  -5.518 -23.134  0.00  0.00    +0.295 HD
ENDBRANCH  24  25
ENDBRANCH   3  24
BRANCH   5  28
ATOM     27  O   UNL     1      35.008  -8.407 -25.778  0.00  0.00    -0.250 OA
ATOM     28  C   UNL     1      34.394  -7.754 -24.946  0.00  0.00    +0.315 C 
BRANCH  28  29
ATOM     29  O   UNL     1      33.599  -6.697 -25.241  0.00  0.00    -0.480 OA
ATOM     30  H   UNL     1      33.248  -6.168 -24.551  0.00  0.00    +0.295 HD
ENDBRANCH  28  29
ENDBRANCH   5  28
BRANCH   3  31
ATOM     31  C   UNL     1      31.467  -7.145 -21.330  0.00  0.00    +0.029 C 
BRANCH  31  32
ATOM     32  C   UNL     1      32.354  -7.189 -20.077  0.00  0.00    +0.002 C 
ATOM     33  C   UNL     1      32.393  -5.850 -19.338  0.00  0.00    +0.000 C 
ATOM     34  C   UNL     1      31.854  -8.286 -19.132  0.00  0.00    +0.000 C 
ENDBRANCH  31  32
ENDBRANCH   3  31
TORSDOF 9
ENDMDL
