MODEL 1
REMARK VINA RESULT:      -6.0      0.000      0.000
REMARK  Name = 96595
REMARK  1 active torsions:
REMARK  status: ('A' for Active; 'I' for Inactive)
REMARK    1  A    between atoms: C_3  and  N_9
REMARK                            x       y       z     vdW  Elec       q    Type
REMARK                         _______ _______ _______ _____ _____    ______ ____
ROOT
ATOM      1  F   UNL     1      33.764 -18.570 -21.615  0.00  0.00    -0.204 F 
ATOM      2  F   UNL     1      37.209 -21.441 -20.092  0.00  0.00    -0.204 F 
ATOM      3  C   UNL     1      33.625 -21.508 -19.474  0.00  0.00    +0.046 C 
ATOM      4  C   UNL     1      34.974 -21.861 -19.434  0.00  0.00    +0.044 C 
ATOM      5  C   UNL     1      33.217 -20.397 -20.212  0.00  0.00    +0.044 C 
ATOM      6  C   UNL     1      34.157 -19.638 -20.909  0.00  0.00    +0.144 C 
ATOM      7  C   UNL     1      35.914 -21.102 -20.131  0.00  0.00    +0.144 C 
ATOM      8  C   UNL     1      35.506 -19.991 -20.868  0.00  0.00    +0.059 C 
ENDROOT
BRANCH   3   9
ATOM      9  N   UNL     1      32.674 -22.275 -18.770  0.00  0.00    -0.357 N 
ATOM     10  H   UNL     1      32.872 -23.210 -18.535  0.00  0.00    +0.142 HD
ATOM     11  H   UNL     1      31.812 -21.875 -18.513  0.00  0.00    +0.142 HD
ENDBRANCH   3   9
TORSDOF 1
ENDMDL
MODEL 2
REMARK VINA RESULT:      -6.0      0.180      2.756
REMARK  Name = 96595
REMARK  1 active torsions:
REMARK  status: ('A' for Active; 'I' for Inactive)
REMARK    1  A    between atoms: C_3  and  N_9
REMARK                            x       y       z     vdW  Elec       q    Type
REMARK                         _______ _______ _______ _____ _____    ______ ____
ROOT
ATOM      1  F   UNL     1      37.180 -21.392 -20.111  0.00  0.00    -0.204 F 
ATOM      2  F   UNL     1      33.538 -18.721 -21.539  0.00  0.00    -0.204 F 
ATOM      3  C   UNL     1      33.630 -21.623 -19.347  0.00  0.00    +0.046 C 
ATOM      4  C   UNL     1      33.137 -20.546 -20.084  0.00  0.00    +0.044 C 
ATOM      5  C   UNL     1      34.996 -21.907 -19.355  0.00  0.00    +0.044 C 
ATOM      6  C   UNL     1      35.869 -21.116 -20.101  0.00  0.00    +0.144 C 
ATOM      7  C   UNL     1      34.011 -19.755 -20.831  0.00  0.00    +0.144 C 
ATOM      8  C   UNL     1      35.376 -20.040 -20.840  0.00  0.00    +0.059 C 
ENDROOT
BRANCH   3   9
ATOM      9  N   UNL     1      32.748 -22.423 -18.592  0.00  0.00    -0.357 N 
ATOM     10  H   UNL     1      31.852 -22.635 -18.943  0.00  0.00    +0.142 HD
ATOM     11  H   UNL     1      33.027 -22.771 -17.715  0.00  0.00    +0.142 HD
ENDBRANCH   3   9
TORSDOF 1
ENDMDL
MODEL 3
REMARK VINA RESULT:      -5.5      4.151      5.456
REMARK  Name = 96595
REMARK  1 active torsions:
REMARK  status: ('A' for Active; 'I' for Inactive)
REMARK    1  A    between atoms: C_3  and  N_9
REMARK                            x       y       z     vdW  Elec       q    Type
REMARK                         _______ _______ _______ _____ _____    ______ ____
ROOT
ATOM      1  F   UNL     1      34.885 -20.170 -24.873  0.00  0.00    -0.204 F 
ATOM      2  F   UNL     1      34.162 -15.490 -24.972  0.00  0.00    -0.204 F 
ATOM      3  C   UNL     1      35.073 -17.687 -22.220  0.00  0.00    +0.046 C 
ATOM      4  C   UNL     1      34.750 -16.529 -22.927  0.00  0.00    +0.044 C 
ATOM      5  C   UNL     1      35.120 -18.916 -22.878  0.00  0.00    +0.044 C 
ATOM      6  C   UNL     1      34.843 -18.989 -24.243  0.00  0.00    +0.144 C 
ATOM      7  C   UNL     1      34.472 -16.602 -24.293  0.00  0.00    +0.144 C 
ATOM      8  C   UNL     1      34.518 -17.831 -24.950  0.00  0.00    +0.059 C 
ENDROOT
BRANCH   3   9
ATOM      9  N   UNL     1      35.354 -17.615 -20.840  0.00  0.00    -0.357 N 
ATOM     10  H   UNL     1      35.821 -16.830 -20.473  0.00  0.00    +0.142 HD
ATOM     11  H   UNL     1      35.082 -18.349 -20.243  0.00  0.00    +0.142 HD
ENDBRANCH   3   9
TORSDOF 1
ENDMDL
MODEL 4
REMARK VINA RESULT:      -5.5      1.935      2.307
REMARK  Name = 96595
REMARK  1 active torsions:
REMARK  status: ('A' for Active; 'I' for Inactive)
REMARK    1  A    between atoms: C_3  and  N_9
REMARK                            x       y       z     vdW  Elec       q    Type
REMARK                         _______ _______ _______ _____ _____    ______ ____
ROOT
ATOM      1  F   UNL     1      32.309 -20.131 -21.031  0.00  0.00    -0.204 F 
ATOM      2  F   UNL     1      36.631 -18.402 -21.907  0.00  0.00    -0.204 F 
ATOM      3  C   UNL     1      35.542 -21.004 -19.609  0.00  0.00    +0.046 C 
ATOM      4  C   UNL     1      36.374 -20.124 -20.302  0.00  0.00    +0.044 C 
ATOM      5  C   UNL     1      34.169 -21.006 -19.856  0.00  0.00    +0.044 C 
ATOM      6  C   UNL     1      33.627 -20.129 -20.796  0.00  0.00    +0.144 C 
ATOM      7  C   UNL     1      35.832 -19.247 -21.241  0.00  0.00    +0.144 C 
ATOM      8  C   UNL     1      34.459 -19.249 -21.488  0.00  0.00    +0.059 C 
ENDROOT
BRANCH   3   9
ATOM      9  N   UNL     1      36.089 -21.890 -18.659  0.00  0.00    -0.357 N 
ATOM     10  H   UNL     1      37.066 -21.993 -18.585  0.00  0.00    +0.142 HD
ATOM     11  H   UNL     1      35.495 -22.407 -18.068  0.00  0.00    +0.142 HD
ENDBRANCH   3   9
TORSDOF 1
ENDMDL
MODEL 5
REMARK VINA RESULT:      -5.5      2.480      3.001
REMARK  Name = 96595
REMARK  1 active torsions:
REMARK  status: ('A' for Active; 'I' for Inactive)
REMARK    1  A    between atoms: C_3  and  N_9
REMARK                            x       y       z     vdW  Elec       q    Type
REMARK                         _______ _______ _______ _____ _____    ______ ____
ROOT
ATOM      1  F   UNL     1      32.326 -20.156 -20.770  0.00  0.00    -0.204 F 
ATOM      2  F   UNL     1      36.504 -21.630 -19.091  0.00  0.00    -0.204 F 
ATOM      3  C   UNL     1      35.707 -19.044 -21.523  0.00  0.00    +0.046 C 
ATOM      4  C   UNL     1      36.447 -19.887 -20.693  0.00  0.00    +0.044 C 
ATOM      5  C   UNL     1      34.316 -19.135 -21.547  0.00  0.00    +0.044 C 
ATOM      6  C   UNL     1      33.663 -20.068 -20.743  0.00  0.00    +0.144 C 
ATOM      7  C   UNL     1      35.793 -20.820 -19.888  0.00  0.00    +0.144 C 
ATOM      8  C   UNL     1      34.402 -20.912 -19.913  0.00  0.00    +0.059 C 
ENDROOT
BRANCH   3   9
ATOM      9  N   UNL     1      36.367 -18.100 -22.337  0.00  0.00    -0.357 N 
ATOM     10  H   UNL     1      37.349 -18.119 -22.416  0.00  0.00    +0.142 HD
ATOM     11  H   UNL     1      35.847 -17.423 -22.826  0.00  0.00    +0.142 HD
ENDBRANCH   3   9
TORSDOF 1
ENDMDL
MODEL 6
REMARK VINA RESULT:      -5.5      4.147      4.973
REMARK  Name = 96595
REMARK  1 active torsions:
REMARK  status: ('A' for Active; 'I' for Inactive)
REMARK    1  A    between atoms: C_3  and  N_9
REMARK                            x       y       z     vdW  Elec       q    Type
REMARK                         _______ _______ _______ _____ _____    ______ ____
ROOT
ATOM      1  F   UNL     1      34.184 -15.606 -25.224  0.00  0.00    -0.204 F 
ATOM      2  F   UNL     1      34.965 -20.252 -24.728  0.00  0.00    -0.204 F 
ATOM      3  C   UNL     1      35.025 -17.565 -22.276  0.00  0.00    +0.046 C 
ATOM      4  C   UNL     1      35.110 -18.842 -22.831  0.00  0.00    +0.044 C 
ATOM      5  C   UNL     1      34.711 -16.473 -23.084  0.00  0.00    +0.044 C 
ATOM      6  C   UNL     1      34.483 -16.656 -24.448  0.00  0.00    +0.144 C 
ATOM      7  C   UNL     1      34.883 -19.025 -24.195  0.00  0.00    +0.144 C 
ATOM      8  C   UNL     1      34.570 -17.933 -25.004  0.00  0.00    +0.059 C 
ENDROOT
BRANCH   3   9
ATOM      9  N   UNL     1      35.254 -17.379 -20.897  0.00  0.00    -0.357 N 
ATOM     10  H   UNL     1      35.941 -16.742 -20.593  0.00  0.00    +0.142 HD
ATOM     11  H   UNL     1      34.728 -17.886 -20.238  0.00  0.00    +0.142 HD
ENDBRANCH   3   9
TORSDOF 1
ENDMDL
MODEL 7
REMARK VINA RESULT:      -5.5      2.471      4.014
REMARK  Name = 96595
REMARK  1 active torsions:
REMARK  status: ('A' for Active; 'I' for Inactive)
REMARK    1  A    between atoms: C_3  and  N_9
REMARK                            x       y       z     vdW  Elec       q    Type
REMARK                         _______ _______ _______ _____ _____    ______ ____
ROOT
ATOM      1  F   UNL     1      36.504 -21.688 -19.052  0.00  0.00    -0.204 F 
ATOM      2  F   UNL     1      32.347 -20.156 -20.730  0.00  0.00    -0.204 F 
ATOM      3  C   UNL     1      35.743 -19.087 -21.479  0.00  0.00    +0.046 C 
ATOM      4  C   UNL     1      34.350 -19.160 -21.506  0.00  0.00    +0.044 C 
ATOM      5  C   UNL     1      36.469 -19.942 -20.651  0.00  0.00    +0.044 C 
ATOM      6  C   UNL     1      35.805 -20.870 -19.849  0.00  0.00    +0.144 C 
ATOM      7  C   UNL     1      33.685 -20.087 -20.704  0.00  0.00    +0.144 C 
ATOM      8  C   UNL     1      34.411 -20.941 -19.875  0.00  0.00    +0.059 C 
ENDROOT
BRANCH   3   9
ATOM      9  N   UNL     1      36.416 -18.151 -22.290  0.00  0.00    -0.357 N 
ATOM     10  H   UNL     1      37.400 -18.142 -22.321  0.00  0.00    +0.142 HD
ATOM     11  H   UNL     1      35.902 -17.505 -22.827  0.00  0.00    +0.142 HD
ENDBRANCH   3   9
TORSDOF 1
ENDMDL
MODEL 8
REMARK VINA RESULT:      -5.5      2.011      2.910
REMARK  Name = 96595
REMARK  1 active torsions:
REMARK  status: ('A' for Active; 'I' for Inactive)
REMARK    1  A    between atoms: C_3  and  N_9
REMARK                            x       y       z     vdW  Elec       q    Type
REMARK                         _______ _______ _______ _____ _____    ______ ____
ROOT
ATOM      1  F   UNL     1      36.478 -18.336 -22.166  0.00  0.00    -0.204 F 
ATOM      2  F   UNL     1      32.229 -20.055 -20.970  0.00  0.00    -0.204 F 
ATOM      3  C   UNL     1      35.552 -20.893 -19.749  0.00  0.00    +0.046 C 
ATOM      4  C   UNL     1      34.165 -20.903 -19.903  0.00  0.00    +0.044 C 
ATOM      5  C   UNL     1      36.332 -20.025 -20.512  0.00  0.00    +0.044 C 
ATOM      6  C   UNL     1      35.727 -19.167 -21.431  0.00  0.00    +0.144 C 
ATOM      7  C   UNL     1      33.560 -20.045 -20.822  0.00  0.00    +0.144 C 
ATOM      8  C   UNL     1      34.340 -19.178 -21.586  0.00  0.00    +0.059 C 
ENDROOT
BRANCH   3   9
ATOM      9  N   UNL     1      36.164 -21.760 -18.821  0.00  0.00    -0.357 N 
ATOM     10  H   UNL     1      36.827 -22.420 -19.127  0.00  0.00    +0.142 HD
ATOM     11  H   UNL     1      35.929 -21.705 -17.867  0.00  0.00    +0.142 HD
ENDBRANCH   3   9
TORSDOF 1
ENDMDL
MODEL 9
REMARK VINA RESULT:      -5.4      4.841      5.770
REMARK  Name = 96595
REMARK  1 active torsions:
REMARK  status: ('A' for Active; 'I' for Inactive)
REMARK    1  A    between atoms: C_3  and  N_9
REMARK                            x       y       z     vdW  Elec       q    Type
REMARK                         _______ _______ _______ _____ _____    ______ ____
ROOT
ATOM      1  F   UNL     1      35.022 -20.199 -24.641  0.00  0.00    -0.204 F 
ATOM      2  F   UNL     1      35.430 -16.906 -21.260  0.00  0.00    -0.204 F 
ATOM      3  C   UNL     1      34.280 -16.637 -24.701  0.00  0.00    +0.046 C 
ATOM      4  C   UNL     1      34.623 -16.281 -23.396  0.00  0.00    +0.044 C 
ATOM      5  C   UNL     1      34.413 -17.961 -25.120  0.00  0.00    +0.044 C 
ATOM      6  C   UNL     1      34.891 -18.929 -24.236  0.00  0.00    +0.144 C 
ATOM      7  C   UNL     1      35.100 -17.248 -22.512  0.00  0.00    +0.144 C 
ATOM      8  C   UNL     1      35.235 -18.572 -22.932  0.00  0.00    +0.059 C 
ENDROOT
BRANCH   3   9
ATOM      9  N   UNL     1      33.797 -15.660 -25.595  0.00  0.00    -0.357 N 
ATOM     10  H   UNL     1      34.109 -15.650 -26.529  0.00  0.00    +0.142 HD
ATOM     11  H   UNL     1      33.147 -14.988 -25.286  0.00  0.00    +0.142 HD
ENDBRANCH   3   9
TORSDOF 1
ENDMDL
