MODEL 1
REMARK VINA RESULT:      -9.6      0.000      0.000
REMARK  Name = 3342
REMARK  5 active torsions:
REMARK  status: ('A' for Active; 'I' for Inactive)
REMARK    1  A    between atoms: C_1  and  C_7
REMARK    2  A    between atoms: C_4  and  O_13
REMARK    3  A    between atoms: C_7  and  C_10
REMARK    4  A    between atoms: C_10  and  O_11
REMARK    5  A    between atoms: O_13  and  C_14
REMARK                            x       y       z     vdW  Elec       q    Type
REMARK                         _______ _______ _______ _____ _____    ______ ____
ROOT
ATOM      1  C   UNL     1      34.399 -15.733 -23.247  0.00  0.00    -0.009 C 
ATOM      2  C   UNL     1      34.992 -16.548 -22.282  0.00  0.00    +0.034 C 
ATOM      3  C   UNL     1      34.206 -16.212 -24.542  0.00  0.00    -0.004 C 
ATOM      4  C   UNL     1      35.394 -17.842 -22.614  0.00  0.00    +0.145 C 
ATOM      5  C   UNL     1      34.607 -17.507 -24.874  0.00  0.00    +0.003 C 
ATOM      6  C   UNL     1      35.200 -18.321 -23.910  0.00  0.00    +0.037 C 
ENDROOT
BRANCH   1   7
ATOM      7  C   UNL     1      33.969 -14.350 -22.891  0.00  0.00    +0.121 C 
ATOM      8  C   UNL     1      33.936 -13.378 -24.088  0.00  0.00    +0.016 C 
BRANCH   7  10
ATOM      9  O   UNL     1      32.161 -15.200 -21.486  0.00  0.00    -0.250 OA
ATOM     10  C   UNL     1      32.598 -14.311 -22.206  0.00  0.00    +0.317 C 
BRANCH  10  11
ATOM     11  O   UNL     1      31.895 -13.182 -22.482  0.00  0.00    -0.480 OA
ATOM     12  H   UNL     1      31.022 -13.081 -22.158  0.00  0.00    +0.295 HD
ENDBRANCH  10  11
ENDBRANCH   7  10
ENDBRANCH   1   7
BRANCH   4  13
ATOM     13  O   UNL     1      35.972 -18.638 -21.674  0.00  0.00    -0.454 OA
BRANCH  13  14
ATOM     14  C   UNL     1      35.156 -19.524 -20.990  0.00  0.00    +0.145 C 
ATOM     15  C   UNL     1      33.787 -19.332 -21.012  0.00  0.00    +0.037 C 
ATOM     16  C   UNL     1      35.732 -20.578 -20.304  0.00  0.00    +0.037 C 
ATOM     17  C   UNL     1      32.965 -20.224 -20.322  0.00  0.00    +0.003 C 
ATOM     18  C   UNL     1      34.911 -21.469 -19.615  0.00  0.00    +0.003 C 
ATOM     19  C   UNL     1      33.527 -21.293 -19.624  0.00  0.00    +0.000 C 
ENDBRANCH  13  14
ENDBRANCH   4  13
TORSDOF 5
ENDMDL
MODEL 2
REMARK VINA RESULT:      -9.4      5.501      9.384
REMARK  Name = 3342
REMARK  5 active torsions:
REMARK  status: ('A' for Active; 'I' for Inactive)
REMARK    1  A    between atoms: C_1  and  C_7
REMARK    2  A    between atoms: C_4  and  O_13
REMARK    3  A    between atoms: C_7  and  C_10
REMARK    4  A    between atoms: C_10  and  O_11
REMARK    5  A    between atoms: O_13  and  C_14
REMARK                            x       y       z     vdW  Elec       q    Type
REMARK                         _______ _______ _______ _____ _____    ______ ____
ROOT
ATOM      1  C   UNL     1      32.102 -23.269 -15.384  0.00  0.00    -0.009 C 
ATOM      2  C   UNL     1      32.180 -23.297 -16.777  0.00  0.00    +0.034 C 
ATOM      3  C   UNL     1      33.265 -23.153 -14.623  0.00  0.00    -0.004 C 
ATOM      4  C   UNL     1      33.420 -23.208 -17.408  0.00  0.00    +0.145 C 
ATOM      5  C   UNL     1      34.506 -23.063 -15.254  0.00  0.00    +0.003 C 
ATOM      6  C   UNL     1      34.583 -23.090 -16.646  0.00  0.00    +0.037 C 
ENDROOT
BRANCH   1   7
ATOM      7  C   UNL     1      30.775 -23.364 -14.709  0.00  0.00    +0.121 C 
ATOM      8  C   UNL     1      29.587 -22.962 -15.607  0.00  0.00    +0.016 C 
BRANCH   7  10
ATOM      9  O   UNL     1      30.260 -25.748 -14.824  0.00  0.00    -0.250 OA
ATOM     10  C   UNL     1      30.495 -24.760 -14.142  0.00  0.00    +0.317 C 
BRANCH  10  11
ATOM     11  O   UNL     1      30.525 -24.799 -12.784  0.00  0.00    -0.480 OA
ATOM     12  H   UNL     1      31.328 -24.641 -12.327  0.00  0.00    +0.295 HD
ENDBRANCH  10  11
ENDBRANCH   7  10
ENDBRANCH   1   7
BRANCH   4  13
ATOM     13  O   UNL     1      33.497 -23.234 -18.766  0.00  0.00    -0.454 OA
BRANCH  13  14
ATOM     14  C   UNL     1      33.958 -22.096 -19.407  0.00  0.00    +0.145 C 
ATOM     15  C   UNL     1      33.044 -21.168 -19.872  0.00  0.00    +0.037 C 
ATOM     16  C   UNL     1      35.320 -21.917 -19.566  0.00  0.00    +0.037 C 
ATOM     17  C   UNL     1      33.508 -20.023 -20.519  0.00  0.00    +0.003 C 
ATOM     18  C   UNL     1      35.784 -20.772 -20.212  0.00  0.00    +0.003 C 
ATOM     19  C   UNL     1      34.878 -19.824 -20.689  0.00  0.00    +0.000 C 
ENDBRANCH  13  14
ENDBRANCH   4  13
TORSDOF 5
ENDMDL
MODEL 3
REMARK VINA RESULT:      -9.1      2.319      6.762
REMARK  Name = 3342
REMARK  5 active torsions:
REMARK  status: ('A' for Active; 'I' for Inactive)
REMARK    1  A    between atoms: C_1  and  C_7
REMARK    2  A    between atoms: C_4  and  O_13
REMARK    3  A    between atoms: C_7  and  C_10
REMARK    4  A    between atoms: C_10  and  O_11
REMARK    5  A    between atoms: O_13  and  C_14
REMARK                            x       y       z     vdW  Elec       q    Type
REMARK                         _______ _______ _______ _____ _____    ______ ____
ROOT
ATOM      1  C   UNL     1      34.741 -21.037 -19.796  0.00  0.00    -0.009 C 
ATOM      2  C   UNL     1      35.565 -20.177 -20.522  0.00  0.00    +0.034 C 
ATOM      3  C   UNL     1      33.358 -20.853 -19.806  0.00  0.00    -0.004 C 
ATOM      4  C   UNL     1      35.007 -19.132 -21.258  0.00  0.00    +0.145 C 
ATOM      5  C   UNL     1      32.800 -19.808 -20.543  0.00  0.00    +0.003 C 
ATOM      6  C   UNL     1      33.624 -18.949 -21.269  0.00  0.00    +0.037 C 
ENDROOT
BRANCH   1   7
ATOM      7  C   UNL     1      35.338 -22.155 -19.009  0.00  0.00    +0.121 C 
ATOM      8  C   UNL     1      36.376 -21.699 -17.964  0.00  0.00    +0.016 C 
BRANCH   7  10
ATOM      9  O   UNL     1      33.921 -22.836 -17.140  0.00  0.00    -0.250 OA
ATOM     10  C   UNL     1      34.284 -23.010 -18.296  0.00  0.00    +0.317 C 
BRANCH  10  11
ATOM     11  O   UNL     1      33.786 -24.004 -19.078  0.00  0.00    -0.480 OA
ATOM     12  H   UNL     1      33.070 -23.831 -19.657  0.00  0.00    +0.295 HD
ENDBRANCH  10  11
ENDBRANCH   7  10
ENDBRANCH   1   7
BRANCH   4  13
ATOM     13  O   UNL     1      35.810 -18.294 -21.967  0.00  0.00    -0.454 OA
BRANCH  13  14
ATOM     14  C   UNL     1      35.247 -17.610 -23.032  0.00  0.00    +0.145 C 
ATOM     15  C   UNL     1      34.906 -16.279 -22.871  0.00  0.00    +0.037 C 
ATOM     16  C   UNL     1      35.039 -18.275 -24.226  0.00  0.00    +0.037 C 
ATOM     17  C   UNL     1      34.338 -15.590 -23.942  0.00  0.00    +0.003 C 
ATOM     18  C   UNL     1      34.472 -17.586 -25.297  0.00  0.00    +0.003 C 
ATOM     19  C   UNL     1      34.121 -16.243 -25.156  0.00  0.00    +0.000 C 
ENDBRANCH  13  14
ENDBRANCH   4  13
TORSDOF 5
ENDMDL
MODEL 4
REMARK VINA RESULT:      -9.1      1.439      2.249
REMARK  Name = 3342
REMARK  5 active torsions:
REMARK  status: ('A' for Active; 'I' for Inactive)
REMARK    1  A    between atoms: C_1  and  C_7
REMARK    2  A    between atoms: C_4  and  O_13
REMARK    3  A    between atoms: C_7  and  C_10
REMARK    4  A    between atoms: C_10  and  O_11
REMARK    5  A    between atoms: O_13  and  C_14
REMARK                            x       y       z     vdW  Elec       q    Type
REMARK                         _______ _______ _______ _____ _____    ______ ____
ROOT
ATOM      1  C   UNL     1      33.677 -15.249 -24.054  0.00  0.00    -0.009 C 
ATOM      2  C   UNL     1      34.239 -15.672 -22.850  0.00  0.00    +0.034 C 
ATOM      3  C   UNL     1      33.862 -16.001 -25.214  0.00  0.00    -0.004 C 
ATOM      4  C   UNL     1      34.988 -16.848 -22.805  0.00  0.00    +0.145 C 
ATOM      5  C   UNL     1      34.610 -17.178 -25.169  0.00  0.00    +0.003 C 
ATOM      6  C   UNL     1      35.173 -17.601 -23.965  0.00  0.00    +0.037 C 
ENDROOT
BRANCH   1   7
ATOM      7  C   UNL     1      32.876 -13.991 -24.101  0.00  0.00    +0.121 C 
ATOM      8  C   UNL     1      32.410 -13.494 -22.718  0.00  0.00    +0.016 C 
BRANCH   7  10
ATOM      9  O   UNL     1      33.586 -12.637 -26.005  0.00  0.00    -0.250 OA
ATOM     10  C   UNL     1      33.613 -12.843 -24.799  0.00  0.00    +0.317 C 
BRANCH  10  11
ATOM     11  O   UNL     1      34.322 -12.064 -23.940  0.00  0.00    -0.480 OA
ATOM     12  H   UNL     1      34.743 -11.286 -24.249  0.00  0.00    +0.295 HD
ENDBRANCH  10  11
ENDBRANCH   7  10
ENDBRANCH   1   7
BRANCH   4  13
ATOM     13  O   UNL     1      35.536 -17.262 -21.631  0.00  0.00    -0.454 OA
BRANCH  13  14
ATOM     14  C   UNL     1      35.148 -18.498 -21.139  0.00  0.00    +0.145 C 
ATOM     15  C   UNL     1      36.121 -19.414 -20.779  0.00  0.00    +0.037 C 
ATOM     16  C   UNL     1      33.800 -18.783 -21.021  0.00  0.00    +0.037 C 
ATOM     17  C   UNL     1      35.730 -20.658 -20.285  0.00  0.00    +0.003 C 
ATOM     18  C   UNL     1      33.411 -20.027 -20.527  0.00  0.00    +0.003 C 
ATOM     19  C   UNL     1      34.375 -20.965 -20.158  0.00  0.00    +0.000 C 
ENDBRANCH  13  14
ENDBRANCH   4  13
TORSDOF 5
ENDMDL
MODEL 5
REMARK VINA RESULT:      -9.1      5.006      9.290
REMARK  Name = 3342
REMARK  5 active torsions:
REMARK  status: ('A' for Active; 'I' for Inactive)
REMARK    1  A    between atoms: C_1  and  C_7
REMARK    2  A    between atoms: C_4  and  O_13
REMARK    3  A    between atoms: C_7  and  C_10
REMARK    4  A    between atoms: C_10  and  O_11
REMARK    5  A    between atoms: O_13  and  C_14
REMARK                            x       y       z     vdW  Elec       q    Type
REMARK                         _______ _______ _______ _____ _____    ______ ____
ROOT
ATOM      1  C   UNL     1      34.528 -23.198 -15.329  0.00  0.00    -0.009 C 
ATOM      2  C   UNL     1      34.666 -23.206 -16.718  0.00  0.00    +0.034 C 
ATOM      3  C   UNL     1      33.258 -23.208 -14.755  0.00  0.00    -0.004 C 
ATOM      4  C   UNL     1      33.534 -23.224 -17.531  0.00  0.00    +0.145 C 
ATOM      5  C   UNL     1      32.124 -23.226 -15.568  0.00  0.00    +0.003 C 
ATOM      6  C   UNL     1      32.262 -23.234 -16.956  0.00  0.00    +0.037 C 
ENDROOT
BRANCH   1   7
ATOM      7  C   UNL     1      35.740 -23.180 -14.460  0.00  0.00    +0.121 C 
ATOM      8  C   UNL     1      35.570 -23.948 -13.134  0.00  0.00    +0.016 C 
BRANCH   7  10
ATOM      9  O   UNL     1      37.967 -23.042 -15.453  0.00  0.00    -0.250 OA
ATOM     10  C   UNL     1      36.988 -23.719 -15.169  0.00  0.00    +0.317 C 
BRANCH  10  11
ATOM     11  O   UNL     1      36.902 -25.042 -15.466  0.00  0.00    -0.480 OA
ATOM     12  H   UNL     1      36.068 -25.469 -15.472  0.00  0.00    +0.295 HD
ENDBRANCH  10  11
ENDBRANCH   7  10
ENDBRANCH   1   7
BRANCH   4  13
ATOM     13  O   UNL     1      33.667 -23.232 -18.885  0.00  0.00    -0.454 OA
BRANCH  13  14
ATOM     14  C   UNL     1      34.047 -22.051 -19.502  0.00  0.00    +0.145 C 
ATOM     15  C   UNL     1      33.069 -21.163 -19.913  0.00  0.00    +0.037 C 
ATOM     16  C   UNL     1      35.392 -21.792 -19.692  0.00  0.00    +0.037 C 
ATOM     17  C   UNL     1      33.451 -19.974 -20.535  0.00  0.00    +0.003 C 
ATOM     18  C   UNL     1      35.773 -20.604 -20.313  0.00  0.00    +0.003 C 
ATOM     19  C   UNL     1      34.803 -19.694 -20.735  0.00  0.00    +0.000 C 
ENDBRANCH  13  14
ENDBRANCH   4  13
TORSDOF 5
ENDMDL
MODEL 6
REMARK VINA RESULT:      -9.1      1.255      2.379
REMARK  Name = 3342
REMARK  5 active torsions:
REMARK  status: ('A' for Active; 'I' for Inactive)
REMARK    1  A    between atoms: C_1  and  C_7
REMARK    2  A    between atoms: C_4  and  O_13
REMARK    3  A    between atoms: C_7  and  C_10
REMARK    4  A    between atoms: C_10  and  O_11
REMARK    5  A    between atoms: O_13  and  C_14
REMARK                            x       y       z     vdW  Elec       q    Type
REMARK                         _______ _______ _______ _____ _____    ______ ____
ROOT
ATOM      1  C   UNL     1      34.442 -15.187 -22.922  0.00  0.00    -0.009 C 
ATOM      2  C   UNL     1      34.814 -16.523 -23.075  0.00  0.00    +0.034 C 
ATOM      3  C   UNL     1      34.327 -14.636 -21.647  0.00  0.00    -0.004 C 
ATOM      4  C   UNL     1      35.072 -17.307 -21.951  0.00  0.00    +0.145 C 
ATOM      5  C   UNL     1      34.585 -15.421 -20.522  0.00  0.00    +0.003 C 
ATOM      6  C   UNL     1      34.957 -16.755 -20.675  0.00  0.00    +0.037 C 
ENDROOT
BRANCH   1   7
ATOM      7  C   UNL     1      34.167 -14.348 -24.125  0.00  0.00    +0.121 C 
ATOM      8  C   UNL     1      33.336 -15.062 -25.210  0.00  0.00    +0.016 C 
BRANCH   7  10
ATOM      9  O   UNL     1      32.320 -12.939 -23.371  0.00  0.00    -0.250 OA
ATOM     10  C   UNL     1      33.470 -13.026 -23.781  0.00  0.00    +0.317 C 
BRANCH  10  11
ATOM     11  O   UNL     1      34.259 -11.939 -23.985  0.00  0.00    -0.480 OA
ATOM     12  H   UNL     1      33.911 -11.077 -23.864  0.00  0.00    +0.295 HD
ENDBRANCH  10  11
ENDBRANCH   7  10
ENDBRANCH   1   7
BRANCH   4  13
ATOM     13  O   UNL     1      35.436 -18.610 -22.099  0.00  0.00    -0.454 OA
BRANCH  13  14
ATOM     14  C   UNL     1      34.869 -19.538 -21.241  0.00  0.00    +0.145 C 
ATOM     15  C   UNL     1      35.696 -20.369 -20.508  0.00  0.00    +0.037 C 
ATOM     16  C   UNL     1      33.492 -19.610 -21.141  0.00  0.00    +0.037 C 
ATOM     17  C   UNL     1      35.126 -21.305 -19.645  0.00  0.00    +0.003 C 
ATOM     18  C   UNL     1      32.922 -20.545 -20.278  0.00  0.00    +0.003 C 
ATOM     19  C   UNL     1      33.738 -21.393 -19.529  0.00  0.00    +0.000 C 
ENDBRANCH  13  14
ENDBRANCH   4  13
TORSDOF 5
ENDMDL
MODEL 7
REMARK VINA RESULT:      -9.0      1.614      5.951
REMARK  Name = 3342
REMARK  5 active torsions:
REMARK  status: ('A' for Active; 'I' for Inactive)
REMARK    1  A    between atoms: C_1  and  C_7
REMARK    2  A    between atoms: C_4  and  O_13
REMARK    3  A    between atoms: C_7  and  C_10
REMARK    4  A    between atoms: C_10  and  O_11
REMARK    5  A    between atoms: O_13  and  C_14
REMARK                            x       y       z     vdW  Elec       q    Type
REMARK                         _______ _______ _______ _____ _____    ______ ____
ROOT
ATOM      1  C   UNL     1      34.631 -18.834 -21.869  0.00  0.00    -0.009 C 
ATOM      2  C   UNL     1      34.838 -17.455 -21.825  0.00  0.00    +0.034 C 
ATOM      3  C   UNL     1      34.597 -19.495 -23.097  0.00  0.00    -0.004 C 
ATOM      4  C   UNL     1      35.011 -16.736 -23.007  0.00  0.00    +0.145 C 
ATOM      5  C   UNL     1      34.771 -18.776 -24.281  0.00  0.00    +0.003 C 
ATOM      6  C   UNL     1      34.978 -17.398 -24.236  0.00  0.00    +0.037 C 
ENDROOT
BRANCH   1   7
ATOM      7  C   UNL     1      34.447 -19.601 -20.603  0.00  0.00    +0.121 C 
ATOM      8  C   UNL     1      33.178 -20.477 -20.582  0.00  0.00    +0.016 C 
BRANCH   7  10
ATOM      9  O   UNL     1      35.602 -21.712 -20.186  0.00  0.00    -0.250 OA
ATOM     10  C   UNL     1      35.649 -20.491 -20.268  0.00  0.00    +0.317 C 
BRANCH  10  11
ATOM     11  O   UNL     1      36.791 -19.787 -20.057  0.00  0.00    -0.480 OA
ATOM     12  H   UNL     1      37.458 -20.131 -19.495  0.00  0.00    +0.295 HD
ENDBRANCH  10  11
ENDBRANCH   7  10
ENDBRANCH   1   7
BRANCH   4  13
ATOM     13  O   UNL     1      35.213 -15.392 -22.965  0.00  0.00    -0.454 OA
BRANCH  13  14
ATOM     14  C   UNL     1      34.158 -14.595 -22.554  0.00  0.00    +0.145 C 
ATOM     15  C   UNL     1      33.797 -14.593 -21.218  0.00  0.00    +0.037 C 
ATOM     16  C   UNL     1      33.492 -13.823 -23.489  0.00  0.00    +0.037 C 
ATOM     17  C   UNL     1      32.733 -13.791 -20.804  0.00  0.00    +0.003 C 
ATOM     18  C   UNL     1      32.430 -13.021 -23.074  0.00  0.00    +0.003 C 
ATOM     19  C   UNL     1      32.050 -13.004 -21.732  0.00  0.00    +0.000 C 
ENDBRANCH  13  14
ENDBRANCH   4  13
TORSDOF 5
ENDMDL
MODEL 8
REMARK VINA RESULT:      -9.0      1.871      2.765
REMARK  Name = 3342
REMARK  5 active torsions:
REMARK  status: ('A' for Active; 'I' for Inactive)
REMARK    1  A    between atoms: C_1  and  C_7
REMARK    2  A    between atoms: C_4  and  O_13
REMARK    3  A    between atoms: C_7  and  C_10
REMARK    4  A    between atoms: C_10  and  O_11
REMARK    5  A    between atoms: O_13  and  C_14
REMARK                            x       y       z     vdW  Elec       q    Type
REMARK                         _______ _______ _______ _____ _____    ______ ____
ROOT
ATOM      1  C   UNL     1      33.933 -15.532 -23.133  0.00  0.00    -0.009 C 
ATOM      2  C   UNL     1      34.424 -16.838 -23.154  0.00  0.00    +0.034 C 
ATOM      3  C   UNL     1      33.983 -14.787 -21.955  0.00  0.00    -0.004 C 
ATOM      4  C   UNL     1      34.964 -17.399 -21.997  0.00  0.00    +0.145 C 
ATOM      5  C   UNL     1      34.525 -15.347 -20.798  0.00  0.00    +0.003 C 
ATOM      6  C   UNL     1      35.015 -16.652 -20.819  0.00  0.00    +0.037 C 
ENDROOT
BRANCH   1   7
ATOM      7  C   UNL     1      33.356 -14.933 -24.371  0.00  0.00    +0.121 C 
ATOM      8  C   UNL     1      33.737 -13.454 -24.586  0.00  0.00    +0.016 C 
BRANCH   7  10
ATOM      9  O   UNL     1      34.824 -16.220 -25.839  0.00  0.00    -0.250 OA
ATOM     10  C   UNL     1      33.728 -15.712 -25.637  0.00  0.00    +0.317 C 
BRANCH  10  11
ATOM     11  O   UNL     1      32.713 -15.782 -26.538  0.00  0.00    -0.480 OA
ATOM     12  H   UNL     1      32.852 -16.189 -27.371  0.00  0.00    +0.295 HD
ENDBRANCH  10  11
ENDBRANCH   7  10
ENDBRANCH   1   7
BRANCH   4  13
ATOM     13  O   UNL     1      35.443 -18.672 -22.016  0.00  0.00    -0.454 OA
BRANCH  13  14
ATOM     14  C   UNL     1      34.849 -19.596 -21.173  0.00  0.00    +0.145 C 
ATOM     15  C   UNL     1      35.652 -20.449 -20.437  0.00  0.00    +0.037 C 
ATOM     16  C   UNL     1      33.469 -19.643 -21.089  0.00  0.00    +0.037 C 
ATOM     17  C   UNL     1      35.054 -21.381 -19.589  0.00  0.00    +0.003 C 
ATOM     18  C   UNL     1      32.872 -20.574 -20.240  0.00  0.00    +0.003 C 
ATOM     19  C   UNL     1      33.664 -21.444 -19.490  0.00  0.00    +0.000 C 
ENDBRANCH  13  14
ENDBRANCH   4  13
TORSDOF 5
ENDMDL
MODEL 9
REMARK VINA RESULT:      -8.8      4.891      8.791
REMARK  Name = 3342
REMARK  5 active torsions:
REMARK  status: ('A' for Active; 'I' for Inactive)
REMARK    1  A    between atoms: C_1  and  C_7
REMARK    2  A    between atoms: C_4  and  O_13
REMARK    3  A    between atoms: C_7  and  C_10
REMARK    4  A    between atoms: C_10  and  O_11
REMARK    5  A    between atoms: O_13  and  C_14
REMARK                            x       y       z     vdW  Elec       q    Type
REMARK                         _______ _______ _______ _____ _____    ______ ____
ROOT
ATOM      1  C   UNL     1      32.269 -23.569 -15.969  0.00  0.00    -0.009 C 
ATOM      2  C   UNL     1      32.727 -23.515 -17.286  0.00  0.00    +0.034 C 
ATOM      3  C   UNL     1      33.133 -23.268 -14.917  0.00  0.00    -0.004 C 
ATOM      4  C   UNL     1      34.050 -23.161 -17.550  0.00  0.00    +0.145 C 
ATOM      5  C   UNL     1      34.456 -22.913 -15.181  0.00  0.00    +0.003 C 
ATOM      6  C   UNL     1      34.914 -22.859 -16.496  0.00  0.00    +0.037 C 
ENDROOT
BRANCH   1   7
ATOM      7  C   UNL     1      30.853 -23.948 -15.688  0.00  0.00    +0.121 C 
ATOM      8  C   UNL     1      30.635 -24.552 -14.286  0.00  0.00    +0.016 C 
BRANCH   7  10
ATOM      9  O   UNL     1      29.314 -22.206 -14.939  0.00  0.00    -0.250 OA
ATOM     10  C   UNL     1      29.879 -22.778 -15.863  0.00  0.00    +0.317 C 
BRANCH  10  11
ATOM     11  O   UNL     1      29.689 -22.432 -17.163  0.00  0.00    -0.480 OA
ATOM     12  H   UNL     1      28.855 -22.567 -17.567  0.00  0.00    +0.295 HD
ENDBRANCH  10  11
ENDBRANCH   7  10
ENDBRANCH   1   7
BRANCH   4  13
ATOM     13  O   UNL     1      34.498 -23.107 -18.833  0.00  0.00    -0.454 OA
BRANCH  13  14
ATOM     14  C   UNL     1      34.416 -21.892 -19.494  0.00  0.00    +0.145 C 
ATOM     15  C   UNL     1      35.582 -21.263 -19.890  0.00  0.00    +0.037 C 
ATOM     16  C   UNL     1      33.172 -21.341 -19.739  0.00  0.00    +0.037 C 
ATOM     17  C   UNL     1      35.501 -20.039 -20.555  0.00  0.00    +0.003 C 
ATOM     18  C   UNL     1      33.091 -20.117 -20.404  0.00  0.00    +0.003 C 
ATOM     19  C   UNL     1      34.255 -19.466 -20.812  0.00  0.00    +0.000 C 
ENDBRANCH  13  14
ENDBRANCH   4  13
TORSDOF 5
ENDMDL
