MODEL 1
REMARK VINA RESULT:     -10.6      0.000      0.000
REMARK  Name = 9821178
REMARK  6 active torsions:
REMARK  status: ('A' for Active; 'I' for Inactive)
REMARK    1  A    between atoms: N_1  and  C_29
REMARK    2  A    between atoms: C_4  and  N_21
REMARK    3  A    between atoms: C_6  and  C_12
REMARK    4  A    between atoms: N_11  and  C_14
REMARK    5  A    between atoms: C_14  and  C_15
REMARK    6  A    between atoms: N_21  and  C_24
REMARK                            x       y       z     vdW  Elec       q    Type
REMARK                         _______ _______ _______ _____ _____    ______ ____
ROOT
ATOM      1  N   UNL     1      36.091 -23.523 -12.798  0.00  0.00    -0.195 N 
ATOM      2  N   UNL     1      36.542 -22.916 -15.096  0.00  0.00    -0.227 NA
ATOM      3  N   UNL     1      35.081 -23.957 -12.023  0.00  0.00    -0.175 NA
ATOM      4  C   UNL     1      33.752 -23.585 -15.442  0.00  0.00    +0.055 C 
ATOM      5  C   UNL     1      34.399 -23.678 -14.189  0.00  0.00    +0.067 C 
ATOM      6  C   UNL     1      34.557 -23.145 -16.510  0.00  0.00    +0.086 C 
ATOM      7  C   UNL     1      35.741 -23.339 -14.104  0.00  0.00    +0.153 C 
ATOM      8  C   UNL     1      34.054 -24.049 -12.874  0.00  0.00    +0.122 C 
ATOM      9  C   UNL     1      35.895 -22.837 -16.284  0.00  0.00    +0.106 C 
ENDROOT
BRANCH   6  12
ATOM     10  O   UNL     1      33.472 -23.974 -18.416  0.00  0.00    -0.270 OA
ATOM     11  N   UNL     1      34.106 -21.744 -18.448  0.00  0.00    -0.297 N 
ATOM     12  C   UNL     1      34.012 -23.007 -17.852  0.00  0.00    +0.249 C 
ATOM     13  H   UNL     1      34.547 -21.023 -17.944  0.00  0.00    +0.150 HD
BRANCH  11  14
ATOM     14  C   UNL     1      33.591 -21.442 -19.764  0.00  0.00    +0.117 C 
BRANCH  14  15
ATOM     15  C   UNL     1      34.382 -20.363 -20.443  0.00  0.00    -0.003 C 
ATOM     16  C   UNL     1      33.731 -19.442 -21.258  0.00  0.00    -0.003 C 
ATOM     17  C   UNL     1      35.757 -20.294 -20.253  0.00  0.00    -0.003 C 
ATOM     18  C   UNL     1      34.466 -18.439 -21.889  0.00  0.00    -0.000 C 
ATOM     19  C   UNL     1      36.492 -19.291 -20.885  0.00  0.00    -0.000 C 
ATOM     20  C   UNL     1      35.846 -18.363 -21.703  0.00  0.00    -0.000 C 
ENDBRANCH  14  15
ENDBRANCH  11  14
ENDBRANCH   6  12
BRANCH   4  21
ATOM     21  N   UNL     1      32.418 -23.904 -15.615  0.00  0.00    -0.334 N 
ATOM     22  H   UNL     1      32.196 -24.762 -16.042  0.00  0.00    +0.147 HD
BRANCH  21  24
ATOM     23  O   UNL     1      28.836 -24.506 -15.234  0.00  0.00    -0.354 OA
ATOM     24  C   UNL     1      31.329 -23.041 -15.202  0.00  0.00    +0.074 C 
ATOM     25  C   UNL     1      30.304 -22.906 -16.330  0.00  0.00    +0.052 C 
ATOM     26  C   UNL     1      30.677 -23.597 -13.934  0.00  0.00    +0.052 C 
ATOM     27  C   UNL     1      29.442 -24.156 -16.476  0.00  0.00    +0.144 C 
ATOM     28  C   UNL     1      29.804 -24.812 -14.231  0.00  0.00    +0.144 C 
ENDBRANCH  21  24
ENDBRANCH   4  21
BRANCH   1  29
ATOM     29  C   UNL     1      37.392 -23.297 -12.212  0.00  0.00    +0.118 C 
ATOM     30  C   UNL     1      38.282 -24.525 -12.299  0.00  0.00    +0.025 C 
ENDBRANCH   1  29
TORSDOF 6
ENDMDL
MODEL 2
REMARK VINA RESULT:     -10.3      2.004      4.945
REMARK  Name = 9821178
REMARK  6 active torsions:
REMARK  status: ('A' for Active; 'I' for Inactive)
REMARK    1  A    between atoms: N_1  and  C_29
REMARK    2  A    between atoms: C_4  and  N_21
REMARK    3  A    between atoms: C_6  and  C_12
REMARK    4  A    between atoms: N_11  and  C_14
REMARK    5  A    between atoms: C_14  and  C_15
REMARK    6  A    between atoms: N_21  and  C_24
REMARK                            x       y       z     vdW  Elec       q    Type
REMARK                         _______ _______ _______ _____ _____    ______ ____
ROOT
ATOM      1  N   UNL     1      30.306 -24.148 -14.904  0.00  0.00    -0.195 N 
ATOM      2  N   UNL     1      31.388 -23.483 -16.963  0.00  0.00    -0.227 NA
ATOM      3  N   UNL     1      30.595 -24.360 -13.607  0.00  0.00    -0.175 NA
ATOM      4  C   UNL     1      33.726 -23.348 -15.270  0.00  0.00    +0.055 C 
ATOM      5  C   UNL     1      32.457 -23.721 -14.773  0.00  0.00    +0.067 C 
ATOM      6  C   UNL     1      33.775 -23.046 -16.644  0.00  0.00    +0.086 C 
ATOM      7  C   UNL     1      31.383 -23.762 -15.649  0.00  0.00    +0.153 C 
ATOM      8  C   UNL     1      31.904 -24.100 -13.533  0.00  0.00    +0.122 C 
ATOM      9  C   UNL     1      32.617 -23.128 -17.411  0.00  0.00    +0.106 C 
ENDROOT
BRANCH   6  12
ATOM     10  O   UNL     1      36.114 -22.912 -16.746  0.00  0.00    -0.270 OA
ATOM     11  N   UNL     1      34.924 -21.985 -18.509  0.00  0.00    -0.297 N 
ATOM     12  C   UNL     1      35.023 -22.647 -17.279  0.00  0.00    +0.249 C 
ATOM     13  H   UNL     1      34.027 -21.808 -18.872  0.00  0.00    +0.150 HD
BRANCH  11  14
ATOM     14  C   UNL     1      36.071 -21.548 -19.272  0.00  0.00    +0.117 C 
BRANCH  14  15
ATOM     15  C   UNL     1      35.726 -20.430 -20.213  0.00  0.00    -0.003 C 
ATOM     16  C   UNL     1      34.404 -20.242 -20.601  0.00  0.00    -0.003 C 
ATOM     17  C   UNL     1      36.729 -19.594 -20.687  0.00  0.00    -0.003 C 
ATOM     18  C   UNL     1      34.082 -19.204 -21.475  0.00  0.00    -0.000 C 
ATOM     19  C   UNL     1      36.408 -18.556 -21.561  0.00  0.00    -0.000 C 
ATOM     20  C   UNL     1      35.084 -18.361 -21.955  0.00  0.00    -0.000 C 
ENDBRANCH  14  15
ENDBRANCH  11  14
ENDBRANCH   6  12
BRANCH   4  21
ATOM     21  N   UNL     1      34.848 -23.280 -14.466  0.00  0.00    -0.334 N 
ATOM     22  H   UNL     1      35.385 -22.456 -14.484  0.00  0.00    +0.147 HD
BRANCH  21  24
ATOM     23  O   UNL     1      38.001 -23.920 -12.737  0.00  0.00    -0.354 OA
ATOM     24  C   UNL     1      35.276 -24.359 -13.596  0.00  0.00    +0.074 C 
ATOM     25  C   UNL     1      36.466 -25.096 -14.213  0.00  0.00    +0.052 C 
ATOM     26  C   UNL     1      35.631 -23.804 -12.216  0.00  0.00    +0.052 C 
ATOM     27  C   UNL     1      37.761 -24.297 -14.091  0.00  0.00    +0.144 C 
ATOM     28  C   UNL     1      36.971 -23.076 -12.224  0.00  0.00    +0.144 C 
ENDBRANCH  21  24
ENDBRANCH   4  21
BRANCH   1  29
ATOM     29  C   UNL     1      28.954 -24.338 -15.373  0.00  0.00    +0.118 C 
ATOM     30  C   UNL     1      28.271 -23.022 -15.705  0.00  0.00    +0.025 C 
ENDBRANCH   1  29
TORSDOF 6
ENDMDL
MODEL 3
REMARK VINA RESULT:      -9.4      2.569      7.621
REMARK  Name = 9821178
REMARK  6 active torsions:
REMARK  status: ('A' for Active; 'I' for Inactive)
REMARK    1  A    between atoms: N_1  and  C_29
REMARK    2  A    between atoms: C_4  and  N_21
REMARK    3  A    between atoms: C_6  and  C_12
REMARK    4  A    between atoms: N_11  and  C_14
REMARK    5  A    between atoms: C_14  and  C_15
REMARK    6  A    between atoms: N_21  and  C_24
REMARK                            x       y       z     vdW  Elec       q    Type
REMARK                         _______ _______ _______ _____ _____    ______ ____
ROOT
ATOM      1  N   UNL     1      35.492 -19.186 -21.363  0.00  0.00    -0.195 N 
ATOM      2  N   UNL     1      33.459 -20.376 -20.809  0.00  0.00    -0.227 NA
ATOM      3  N   UNL     1      36.784 -19.122 -20.996  0.00  0.00    -0.175 NA
ATOM      4  C   UNL     1      35.174 -21.676 -18.879  0.00  0.00    +0.055 C 
ATOM      5  C   UNL     1      35.651 -20.677 -19.758  0.00  0.00    +0.067 C 
ATOM      6  C   UNL     1      33.809 -21.995 -19.007  0.00  0.00    +0.086 C 
ATOM      7  C   UNL     1      34.766 -20.100 -20.656  0.00  0.00    +0.153 C 
ATOM      8  C   UNL     1      36.876 -20.031 -20.019  0.00  0.00    +0.122 C 
ATOM      9  C   UNL     1      33.031 -21.337 -19.954  0.00  0.00    +0.106 C 
ENDROOT
BRANCH   6  12
ATOM     10  O   UNL     1      33.590 -24.186 -18.200  0.00  0.00    -0.270 OA
ATOM     11  N   UNL     1      32.173 -22.583 -17.304  0.00  0.00    -0.297 N 
ATOM     12  C   UNL     1      33.194 -23.008 -18.161  0.00  0.00    +0.249 C 
ATOM     13  H   UNL     1      31.911 -21.636 -17.326  0.00  0.00    +0.150 HD
BRANCH  11  14
ATOM     14  C   UNL     1      31.483 -23.464 -16.388  0.00  0.00    +0.117 C 
BRANCH  14  15
ATOM     15  C   UNL     1      30.047 -23.069 -16.205  0.00  0.00    -0.003 C 
ATOM     16  C   UNL     1      29.654 -22.425 -15.037  0.00  0.00    -0.003 C 
ATOM     17  C   UNL     1      29.123 -23.351 -17.204  0.00  0.00    -0.003 C 
ATOM     18  C   UNL     1      28.319 -22.059 -14.866  0.00  0.00    -0.000 C 
ATOM     19  C   UNL     1      27.788 -22.985 -17.033  0.00  0.00    -0.000 C 
ATOM     20  C   UNL     1      27.386 -22.338 -15.864  0.00  0.00    -0.000 C 
ENDBRANCH  14  15
ENDBRANCH  11  14
ENDBRANCH   6  12
BRANCH   4  21
ATOM     21  N   UNL     1      35.989 -22.302 -17.955  0.00  0.00    -0.334 N 
ATOM     22  H   UNL     1      36.459 -23.122 -18.229  0.00  0.00    +0.147 HD
BRANCH  21  24
ATOM     23  O   UNL     1      37.417 -23.869 -14.981  0.00  0.00    -0.354 OA
ATOM     24  C   UNL     1      36.187 -21.816 -16.603  0.00  0.00    +0.074 C 
ATOM     25  C   UNL     1      35.396 -22.672 -15.612  0.00  0.00    +0.052 C 
ATOM     26  C   UNL     1      37.678 -21.821 -16.263  0.00  0.00    +0.052 C 
ATOM     27  C   UNL     1      36.054 -24.027 -15.370  0.00  0.00    +0.144 C 
ATOM     28  C   UNL     1      38.194 -23.231 -15.993  0.00  0.00    +0.144 C 
ENDBRANCH  21  24
ENDBRANCH   4  21
BRANCH   1  29
ATOM     29  C   UNL     1      35.007 -18.325 -22.417  0.00  0.00    +0.118 C 
ATOM     30  C   UNL     1      34.988 -19.023 -23.766  0.00  0.00    +0.025 C 
ENDBRANCH   1  29
TORSDOF 6
ENDMDL
MODEL 4
REMARK VINA RESULT:      -8.9      1.801      6.659
REMARK  Name = 9821178
REMARK  6 active torsions:
REMARK  status: ('A' for Active; 'I' for Inactive)
REMARK    1  A    between atoms: N_1  and  C_29
REMARK    2  A    between atoms: C_4  and  N_21
REMARK    3  A    between atoms: C_6  and  C_12
REMARK    4  A    between atoms: N_11  and  C_14
REMARK    5  A    between atoms: C_14  and  C_15
REMARK    6  A    between atoms: N_21  and  C_24
REMARK                            x       y       z     vdW  Elec       q    Type
REMARK                         _______ _______ _______ _____ _____    ______ ____
ROOT
ATOM      1  N   UNL     1      34.304 -20.541 -20.348  0.00  0.00    -0.195 N 
ATOM      2  N   UNL     1      36.073 -21.274 -18.869  0.00  0.00    -0.227 NA
ATOM      3  N   UNL     1      32.979 -20.685 -20.525  0.00  0.00    -0.175 NA
ATOM      4  C   UNL     1      33.912 -22.691 -17.575  0.00  0.00    +0.055 C 
ATOM      5  C   UNL     1      33.706 -21.883 -18.716  0.00  0.00    +0.067 C 
ATOM      6  C   UNL     1      35.239 -22.759 -17.111  0.00  0.00    +0.086 C 
ATOM      7  C   UNL     1      34.794 -21.235 -19.280  0.00  0.00    +0.153 C 
ATOM      8  C   UNL     1      32.619 -21.503 -19.530  0.00  0.00    +0.122 C 
ATOM      9  C   UNL     1      36.239 -22.056 -17.774  0.00  0.00    +0.106 C 
ENDROOT
BRANCH   6  12
ATOM     10  O   UNL     1      35.223 -24.744 -15.862  0.00  0.00    -0.270 OA
ATOM     11  N   UNL     1      36.349 -22.932 -14.952  0.00  0.00    -0.297 N 
ATOM     12  C   UNL     1      35.584 -23.557 -15.943  0.00  0.00    +0.249 C 
ATOM     13  H   UNL     1      36.600 -21.989 -15.082  0.00  0.00    +0.150 HD
BRANCH  11  14
ATOM     14  C   UNL     1      36.791 -23.597 -13.747  0.00  0.00    +0.117 C 
BRANCH  14  15
ATOM     15  C   UNL     1      38.035 -24.404 -13.975  0.00  0.00    -0.003 C 
ATOM     16  C   UNL     1      38.426 -25.347 -13.030  0.00  0.00    -0.003 C 
ATOM     17  C   UNL     1      38.786 -24.201 -15.126  0.00  0.00    -0.003 C 
ATOM     18  C   UNL     1      39.583 -26.097 -13.241  0.00  0.00    -0.000 C 
ATOM     19  C   UNL     1      39.943 -24.952 -15.337  0.00  0.00    -0.000 C 
ATOM     20  C   UNL     1      40.341 -25.900 -14.395  0.00  0.00    -0.000 C 
ENDBRANCH  14  15
ENDBRANCH  11  14
ENDBRANCH   6  12
BRANCH   4  21
ATOM     21  N   UNL     1      32.882 -23.370 -16.951  0.00  0.00    -0.334 N 
ATOM     22  H   UNL     1      32.768 -24.327 -17.148  0.00  0.00    +0.147 HD
BRANCH  21  24
ATOM     23  O   UNL     1      30.555 -24.772 -14.510  0.00  0.00    -0.354 OA
ATOM     24  C   UNL     1      31.961 -22.747 -16.020  0.00  0.00    +0.074 C 
ATOM     25  C   UNL     1      30.525 -23.166 -16.336  0.00  0.00    +0.052 C 
ATOM     26  C   UNL     1      32.338 -23.123 -14.586  0.00  0.00    +0.052 C 
ATOM     27  C   UNL     1      30.231 -24.595 -15.887  0.00  0.00    +0.144 C 
ATOM     28  C   UNL     1      31.942 -24.557 -14.252  0.00  0.00    +0.144 C 
ENDBRANCH  21  24
ENDBRANCH   4  21
BRANCH   1  29
ATOM     29  C   UNL     1      35.058 -19.710 -21.258  0.00  0.00    +0.118 C 
ATOM     30  C   UNL     1      34.488 -18.306 -21.359  0.00  0.00    +0.025 C 
ENDBRANCH   1  29
TORSDOF 6
ENDMDL
MODEL 5
REMARK VINA RESULT:      -8.8      6.958     12.145
REMARK  Name = 9821178
REMARK  6 active torsions:
REMARK  status: ('A' for Active; 'I' for Inactive)
REMARK    1  A    between atoms: N_1  and  C_29
REMARK    2  A    between atoms: C_4  and  N_21
REMARK    3  A    between atoms: C_6  and  C_12
REMARK    4  A    between atoms: N_11  and  C_14
REMARK    5  A    between atoms: C_14  and  C_15
REMARK    6  A    between atoms: N_21  and  C_24
REMARK                            x       y       z     vdW  Elec       q    Type
REMARK                         _______ _______ _______ _____ _____    ______ ____
ROOT
ATOM      1  N   UNL     1      31.562 -11.535 -20.692  0.00  0.00    -0.195 N 
ATOM      2  N   UNL     1      32.589 -13.647 -20.112  0.00  0.00    -0.227 NA
ATOM      3  N   UNL     1      31.387 -10.728 -21.754  0.00  0.00    -0.175 NA
ATOM      4  C   UNL     1      33.320 -13.648 -22.908  0.00  0.00    +0.055 C 
ATOM      5  C   UNL     1      32.580 -12.596 -22.324  0.00  0.00    +0.067 C 
ATOM      6  C   UNL     1      33.677 -14.696 -22.037  0.00  0.00    +0.086 C 
ATOM      7  C   UNL     1      32.268 -12.668 -20.974  0.00  0.00    +0.153 C 
ATOM      8  C   UNL     1      32.009 -11.378 -22.744  0.00  0.00    +0.122 C 
ATOM      9  C   UNL     1      33.298 -14.641 -20.700  0.00  0.00    +0.106 C 
ENDROOT
BRANCH   6  12
ATOM     10  O   UNL     1      35.302 -15.698 -23.399  0.00  0.00    -0.270 OA
ATOM     11  N   UNL     1      34.169 -17.076 -21.917  0.00  0.00    -0.297 N 
ATOM     12  C   UNL     1      34.439 -15.840 -22.515  0.00  0.00    +0.249 C 
ATOM     13  H   UNL     1      33.472 -17.116 -21.223  0.00  0.00    +0.150 HD
BRANCH  11  14
ATOM     14  C   UNL     1      34.858 -18.298 -22.266  0.00  0.00    +0.117 C 
BRANCH  14  15
ATOM     15  C   UNL     1      34.578 -19.400 -21.285  0.00  0.00    -0.003 C 
ATOM     16  C   UNL     1      35.636 -20.116 -20.736  0.00  0.00    -0.003 C 
ATOM     17  C   UNL     1      33.266 -19.694 -20.936  0.00  0.00    -0.003 C 
ATOM     18  C   UNL     1      35.378 -21.139 -19.824  0.00  0.00    -0.000 C 
ATOM     19  C   UNL     1      33.007 -20.718 -20.024  0.00  0.00    -0.000 C 
ATOM     20  C   UNL     1      34.064 -21.440 -19.469  0.00  0.00    -0.000 C 
ENDBRANCH  14  15
ENDBRANCH  11  14
ENDBRANCH   6  12
BRANCH   4  21
ATOM     21  N   UNL     1      33.672 -13.656 -24.244  0.00  0.00    -0.334 N 
ATOM     22  H   UNL     1      34.575 -13.962 -24.487  0.00  0.00    +0.147 HD
BRANCH  21  24
ATOM     23  O   UNL     1      34.047 -13.633 -27.878  0.00  0.00    -0.354 OA
ATOM     24  C   UNL     1      32.780 -13.237 -25.309  0.00  0.00    +0.074 C 
ATOM     25  C   UNL     1      33.409 -12.093 -26.106  0.00  0.00    +0.052 C 
ATOM     26  C   UNL     1      32.461 -14.426 -26.217  0.00  0.00    +0.052 C 
ATOM     27  C   UNL     1      34.516 -12.581 -27.036  0.00  0.00    +0.144 C 
ATOM     28  C   UNL     1      33.631 -14.775 -27.129  0.00  0.00    +0.144 C 
ENDBRANCH  21  24
ENDBRANCH   4  21
BRANCH   1  29
ATOM     29  C   UNL     1      31.018 -11.152 -19.410  0.00  0.00    +0.118 C 
ATOM     30  C   UNL     1      31.778  -9.994 -18.786  0.00  0.00    +0.025 C 
ENDBRANCH   1  29
TORSDOF 6
ENDMDL
MODEL 6
REMARK VINA RESULT:      -8.6      2.582      5.219
REMARK  Name = 9821178
REMARK  6 active torsions:
REMARK  status: ('A' for Active; 'I' for Inactive)
REMARK    1  A    between atoms: N_1  and  C_29
REMARK    2  A    between atoms: C_4  and  N_21
REMARK    3  A    between atoms: C_6  and  C_12
REMARK    4  A    between atoms: N_11  and  C_14
REMARK    5  A    between atoms: C_14  and  C_15
REMARK    6  A    between atoms: N_21  and  C_24
REMARK                            x       y       z     vdW  Elec       q    Type
REMARK                         _______ _______ _______ _____ _____    ______ ____
ROOT
ATOM      1  N   UNL     1      31.126 -23.398 -16.248  0.00  0.00    -0.195 N 
ATOM      2  N   UNL     1      31.829 -22.189 -18.222  0.00  0.00    -0.227 NA
ATOM      3  N   UNL     1      31.650 -24.044 -15.190  0.00  0.00    -0.175 NA
ATOM      4  C   UNL     1      34.468 -22.804 -17.218  0.00  0.00    +0.055 C 
ATOM      5  C   UNL     1      33.294 -23.214 -16.548  0.00  0.00    +0.067 C 
ATOM      6  C   UNL     1      34.267 -22.076 -18.406  0.00  0.00    +0.086 C 
ATOM      7  C   UNL     1      32.063 -22.881 -17.093  0.00  0.00    +0.153 C 
ATOM      8  C   UNL     1      32.969 -23.930 -15.378  0.00  0.00    +0.122 C 
ATOM      9  C   UNL     1      32.973 -21.810 -18.842  0.00  0.00    +0.106 C 
ENDROOT
BRANCH   6  12
ATOM     10  O   UNL     1      36.439 -22.265 -19.269  0.00  0.00    -0.270 OA
ATOM     11  N   UNL     1      35.230 -20.374 -19.855  0.00  0.00    -0.297 N 
ATOM     12  C   UNL     1      35.395 -21.594 -19.190  0.00  0.00    +0.249 C 
ATOM     13  H   UNL     1      34.376 -19.897 -19.748  0.00  0.00    +0.150 HD
BRANCH  11  14
ATOM     14  C   UNL     1      36.248 -19.777 -20.690  0.00  0.00    +0.117 C 
BRANCH  14  15
ATOM     15  C   UNL     1      35.691 -18.693 -21.565  0.00  0.00    -0.003 C 
ATOM     16  C   UNL     1      35.625 -18.885 -22.941  0.00  0.00    -0.003 C 
ATOM     17  C   UNL     1      35.247 -17.506 -20.994  0.00  0.00    -0.003 C 
ATOM     18  C   UNL     1      35.108 -17.878 -23.755  0.00  0.00    -0.000 C 
ATOM     19  C   UNL     1      34.729 -16.499 -21.809  0.00  0.00    -0.000 C 
ATOM     20  C   UNL     1      34.660 -16.685 -23.189  0.00  0.00    -0.000 C 
ENDBRANCH  14  15
ENDBRANCH  11  14
ENDBRANCH   6  12
BRANCH   4  21
ATOM     21  N   UNL     1      35.734 -23.093 -16.743  0.00  0.00    -0.334 N 
ATOM     22  H   UNL     1      36.219 -23.850 -17.141  0.00  0.00    +0.147 HD
BRANCH  21  24
ATOM     23  O   UNL     1      38.154 -24.062 -14.185  0.00  0.00    -0.354 OA
ATOM     24  C   UNL     1      36.383 -22.339 -15.688  0.00  0.00    +0.074 C 
ATOM     25  C   UNL     1      36.012 -22.916 -14.320  0.00  0.00    +0.052 C 
ATOM     26  C   UNL     1      37.899 -22.355 -15.896  0.00  0.00    +0.052 C 
ATOM     27  C   UNL     1      36.745 -24.222 -14.030  0.00  0.00    +0.144 C 
ATOM     28  C   UNL     1      38.510 -23.701 -15.519  0.00  0.00    +0.144 C 
ENDBRANCH  21  24
ENDBRANCH   4  21
BRANCH   1  29
ATOM     29  C   UNL     1      29.691 -23.315 -16.392  0.00  0.00    +0.118 C 
ATOM     30  C   UNL     1      28.959 -23.863 -15.180  0.00  0.00    +0.025 C 
ENDBRANCH   1  29
TORSDOF 6
ENDMDL
MODEL 7
REMARK VINA RESULT:      -8.4      2.846      7.468
REMARK  Name = 9821178
REMARK  6 active torsions:
REMARK  status: ('A' for Active; 'I' for Inactive)
REMARK    1  A    between atoms: N_1  and  C_29
REMARK    2  A    between atoms: C_4  and  N_21
REMARK    3  A    between atoms: C_6  and  C_12
REMARK    4  A    between atoms: N_11  and  C_14
REMARK    5  A    between atoms: C_14  and  C_15
REMARK    6  A    between atoms: N_21  and  C_24
REMARK                            x       y       z     vdW  Elec       q    Type
REMARK                         _______ _______ _______ _____ _____    ______ ____
ROOT
ATOM      1  N   UNL     1      30.003 -23.523 -15.959  0.00  0.00    -0.195 N 
ATOM      2  N   UNL     1      30.838 -24.459 -13.890  0.00  0.00    -0.227 NA
ATOM      3  N   UNL     1      30.433 -22.826 -17.026  0.00  0.00    -0.175 NA
ATOM      4  C   UNL     1      33.334 -23.326 -14.805  0.00  0.00    +0.055 C 
ATOM      5  C   UNL     1      32.139 -23.214 -15.550  0.00  0.00    +0.067 C 
ATOM      6  C   UNL     1      33.228 -24.027 -13.589  0.00  0.00    +0.086 C 
ATOM      7  C   UNL     1      30.981 -23.784 -15.044  0.00  0.00    +0.153 C 
ATOM      8  C   UNL     1      31.733 -22.640 -16.772  0.00  0.00    +0.122 C 
ATOM      9  C   UNL     1      32.001 -24.550 -13.199  0.00  0.00    +0.106 C 
ENDROOT
BRANCH   6  12
ATOM     10  O   UNL     1      34.518 -23.539 -11.692  0.00  0.00    -0.270 OA
ATOM     11  N   UNL     1      35.313 -25.190 -13.115  0.00  0.00    -0.297 N 
ATOM     12  C   UNL     1      34.388 -24.213 -12.729  0.00  0.00    +0.249 C 
ATOM     13  H   UNL     1      35.147 -25.685 -13.948  0.00  0.00    +0.150 HD
BRANCH  11  14
ATOM     14  C   UNL     1      36.501 -25.508 -12.354  0.00  0.00    +0.117 C 
BRANCH  14  15
ATOM     15  C   UNL     1      37.707 -25.659 -13.234  0.00  0.00    -0.003 C 
ATOM     16  C   UNL     1      37.634 -26.460 -14.369  0.00  0.00    -0.003 C 
ATOM     17  C   UNL     1      38.885 -24.999 -12.908  0.00  0.00    -0.003 C 
ATOM     18  C   UNL     1      38.755 -26.601 -15.187  0.00  0.00    -0.000 C 
ATOM     19  C   UNL     1      40.006 -25.140 -13.726  0.00  0.00    -0.000 C 
ATOM     20  C   UNL     1      39.940 -25.941 -14.866  0.00  0.00    -0.000 C 
ENDBRANCH  14  15
ENDBRANCH  11  14
ENDBRANCH   6  12
BRANCH   4  21
ATOM     21  N   UNL     1      34.532 -22.788 -15.238  0.00  0.00    -0.334 N 
ATOM     22  H   UNL     1      34.778 -21.888 -14.926  0.00  0.00    +0.147 HD
BRANCH  21  24
ATOM     23  O   UNL     1      36.889 -21.568 -17.748  0.00  0.00    -0.354 OA
ATOM     24  C   UNL     1      35.444 -23.479 -16.129  0.00  0.00    +0.074 C 
ATOM     25  C   UNL     1      35.083 -23.189 -17.586  0.00  0.00    +0.052 C 
ATOM     26  C   UNL     1      36.883 -23.057 -15.827  0.00  0.00    +0.052 C 
ATOM     27  C   UNL     1      35.505 -21.787 -18.015  0.00  0.00    +0.144 C 
ATOM     28  C   UNL     1      37.188 -21.659 -16.355  0.00  0.00    +0.144 C 
ENDBRANCH  21  24
ENDBRANCH   4  21
BRANCH   1  29
ATOM     29  C   UNL     1      28.615 -23.913 -15.876  0.00  0.00    +0.118 C 
ATOM     30  C   UNL     1      27.678 -22.719 -15.939  0.00  0.00    +0.025 C 
ENDBRANCH   1  29
TORSDOF 6
ENDMDL
MODEL 8
REMARK VINA RESULT:      -8.4     12.088     15.661
REMARK  Name = 9821178
REMARK  6 active torsions:
REMARK  status: ('A' for Active; 'I' for Inactive)
REMARK    1  A    between atoms: N_1  and  C_29
REMARK    2  A    between atoms: C_4  and  N_21
REMARK    3  A    between atoms: C_6  and  C_12
REMARK    4  A    between atoms: N_11  and  C_14
REMARK    5  A    between atoms: C_14  and  C_15
REMARK    6  A    between atoms: N_21  and  C_24
REMARK                            x       y       z     vdW  Elec       q    Type
REMARK                         _______ _______ _______ _____ _____    ______ ____
ROOT
ATOM      1  N   UNL     1      33.171 -13.960 -24.827  0.00  0.00    -0.195 N 
ATOM      2  N   UNL     1      34.216 -12.032 -25.848  0.00  0.00    -0.227 NA
ATOM      3  N   UNL     1      32.551 -14.318 -23.688  0.00  0.00    -0.175 NA
ATOM      4  C   UNL     1      33.489 -10.768 -23.352  0.00  0.00    +0.055 C 
ATOM      5  C   UNL     1      33.195 -12.123 -23.623  0.00  0.00    +0.067 C 
ATOM      6  C   UNL     1      34.158 -10.075 -24.379  0.00  0.00    +0.086 C 
ATOM      7  C   UNL     1      33.577 -12.658 -24.844  0.00  0.00    +0.153 C 
ATOM      8  C   UNL     1      32.569 -13.197 -22.959  0.00  0.00    +0.122 C 
ATOM      9  C   UNL     1      34.484 -10.734 -25.559  0.00  0.00    +0.106 C 
ENDROOT
BRANCH   6  12
ATOM     10  O   UNL     1      35.069  -8.273 -23.185  0.00  0.00    -0.270 OA
ATOM     11  N   UNL     1      34.233  -7.823 -25.301  0.00  0.00    -0.297 N 
ATOM     12  C   UNL     1      34.517  -8.672 -24.225  0.00  0.00    +0.249 C 
ATOM     13  H   UNL     1      33.794  -8.207 -26.094  0.00  0.00    +0.150 HD
BRANCH  11  14
ATOM     14  C   UNL     1      34.551  -6.413 -25.310  0.00  0.00    +0.117 C 
BRANCH  14  15
ATOM     15  C   UNL     1      33.316  -5.560 -25.309  0.00  0.00    -0.003 C 
ATOM     16  C   UNL     1      32.367  -5.726 -24.306  0.00  0.00    -0.003 C 
ATOM     17  C   UNL     1      33.131  -4.614 -26.309  0.00  0.00    -0.003 C 
ATOM     18  C   UNL     1      31.219  -4.933 -24.305  0.00  0.00    -0.000 C 
ATOM     19  C   UNL     1      31.983  -3.822 -26.308  0.00  0.00    -0.000 C 
ATOM     20  C   UNL     1      31.027  -3.982 -25.305  0.00  0.00    -0.000 C 
ENDBRANCH  14  15
ENDBRANCH  11  14
ENDBRANCH   6  12
BRANCH   4  21
ATOM     21  N   UNL     1      33.142 -10.156 -22.162  0.00  0.00    -0.334 N 
ATOM     22  H   UNL     1      33.842 -10.028 -21.483  0.00  0.00    +0.147 HD
BRANCH  21  24
ATOM     23  O   UNL     1      31.740  -8.465 -19.244  0.00  0.00    -0.354 OA
ATOM     24  C   UNL     1      31.801  -9.695 -21.860  0.00  0.00    +0.074 C 
ATOM     25  C   UNL     1      31.261 -10.411 -20.622  0.00  0.00    +0.052 C 
ATOM     26  C   UNL     1      31.807  -8.179 -21.656  0.00  0.00    +0.052 C 
ATOM     27  C   UNL     1      31.883  -9.881 -19.333  0.00  0.00    +0.144 C 
ATOM     28  C   UNL     1      32.407  -7.789 -20.310  0.00  0.00    +0.144 C 
ENDBRANCH  21  24
ENDBRANCH   4  21
BRANCH   1  29
ATOM     29  C   UNL     1      33.347 -14.935 -25.878  0.00  0.00    +0.118 C 
ATOM     30  C   UNL     1      34.019 -16.202 -25.380  0.00  0.00    +0.025 C 
ENDBRANCH   1  29
TORSDOF 6
ENDMDL
MODEL 9
REMARK VINA RESULT:      -8.4      8.471     12.731
REMARK  Name = 9821178
REMARK  6 active torsions:
REMARK  status: ('A' for Active; 'I' for Inactive)
REMARK    1  A    between atoms: N_1  and  C_29
REMARK    2  A    between atoms: C_4  and  N_21
REMARK    3  A    between atoms: C_6  and  C_12
REMARK    4  A    between atoms: N_11  and  C_14
REMARK    5  A    between atoms: C_14  and  C_15
REMARK    6  A    between atoms: N_21  and  C_24
REMARK                            x       y       z     vdW  Elec       q    Type
REMARK                         _______ _______ _______ _____ _____    ______ ____
ROOT
ATOM      1  N   UNL     1      31.703  -9.426 -21.275  0.00  0.00    -0.195 N 
ATOM      2  N   UNL     1      32.145 -11.296 -19.805  0.00  0.00    -0.227 NA
ATOM      3  N   UNL     1      31.564  -9.152 -22.585  0.00  0.00    -0.175 NA
ATOM      4  C   UNL     1      32.249 -12.763 -22.293  0.00  0.00    +0.055 C 
ATOM      5  C   UNL     1      31.996 -11.373 -22.248  0.00  0.00    +0.067 C 
ATOM      6  C   UNL     1      32.446 -13.385 -21.046  0.00  0.00    +0.086 C 
ATOM      7  C   UNL     1      31.962 -10.740 -21.015  0.00  0.00    +0.153 C 
ATOM      8  C   UNL     1      31.744 -10.339 -23.172  0.00  0.00    +0.122 C 
ATOM      9  C   UNL     1      32.385 -12.628 -19.880  0.00  0.00    +0.106 C 
ENDROOT
BRANCH   6  12
ATOM     10  O   UNL     1      31.813 -15.639 -21.180  0.00  0.00    -0.270 OA
ATOM     11  N   UNL     1      34.022 -15.193 -20.631  0.00  0.00    -0.297 N 
ATOM     12  C   UNL     1      32.714 -14.813 -20.955  0.00  0.00    +0.249 C 
ATOM     13  H   UNL     1      34.685 -14.485 -20.465  0.00  0.00    +0.150 HD
BRANCH  11  14
ATOM     14  C   UNL     1      34.449 -16.569 -20.526  0.00  0.00    +0.117 C 
BRANCH  14  15
ATOM     15  C   UNL     1      34.657 -17.197 -21.873  0.00  0.00    -0.003 C 
ATOM     16  C   UNL     1      34.340 -18.537 -22.064  0.00  0.00    -0.003 C 
ATOM     17  C   UNL     1      35.166 -16.434 -22.917  0.00  0.00    -0.003 C 
ATOM     18  C   UNL     1      34.533 -19.121 -23.316  0.00  0.00    -0.000 C 
ATOM     19  C   UNL     1      35.360 -17.017 -24.169  0.00  0.00    -0.000 C 
ATOM     20  C   UNL     1      35.043 -18.361 -24.368  0.00  0.00    -0.000 C 
ENDBRANCH  14  15
ENDBRANCH  11  14
ENDBRANCH   6  12
BRANCH   4  21
ATOM     21  N   UNL     1      32.299 -13.470 -23.480  0.00  0.00    -0.334 N 
ATOM     22  H   UNL     1      31.451 -13.766 -23.882  0.00  0.00    +0.147 HD
BRANCH  21  24
ATOM     23  O   UNL     1      33.396 -12.966 -26.927  0.00  0.00    -0.354 OA
ATOM     24  C   UNL     1      33.535 -13.802 -24.162  0.00  0.00    +0.074 C 
ATOM     25  C   UNL     1      33.261 -14.777 -25.309  0.00  0.00    +0.052 C 
ATOM     26  C   UNL     1      34.203 -12.526 -24.677  0.00  0.00    +0.052 C 
ATOM     27  C   UNL     1      32.620 -14.087 -26.509  0.00  0.00    +0.144 C 
ATOM     28  C   UNL     1      33.494 -11.971 -25.909  0.00  0.00    +0.144 C 
ENDBRANCH  21  24
ENDBRANCH   4  21
BRANCH   1  29
ATOM     29  C   UNL     1      31.576  -8.362 -20.307  0.00  0.00    +0.118 C 
ATOM     30  C   UNL     1      32.760  -7.412 -20.337  0.00  0.00    +0.025 C 
ENDBRANCH   1  29
TORSDOF 6
ENDMDL
