MODEL 1
REMARK VINA RESULT:      -9.6      0.000      0.000
REMARK  Name = 4471188
REMARK  5 active torsions:
REMARK  status: ('A' for Active; 'I' for Inactive)
REMARK    1  A    between atoms: C_8  and  O_16
REMARK    2  A    between atoms: C_9  and  C_20
REMARK    3  A    between atoms: C_13  and  O_18
REMARK    4  A    between atoms: C_20  and  C_22
REMARK    5  A    between atoms: C_22  and  O_23
REMARK                            x       y       z     vdW  Elec       q    Type
REMARK                         _______ _______ _______ _____ _____    ______ ____
ROOT
ATOM      1  O   UNL     1      32.481 -24.993 -12.944  0.00  0.00    -0.286 OA
ATOM      2  C   UNL     1      33.138 -22.886 -16.482  0.00  0.00    +0.053 C 
ATOM      3  C   UNL     1      34.265 -23.303 -15.577  0.00  0.00    -0.012 C 
ATOM      4  C   UNL     1      34.050 -24.009 -14.388  0.00  0.00    +0.069 C 
ATOM      5  C   UNL     1      31.760 -23.280 -16.027  0.00  0.00    -0.012 C 
ATOM      6  C   UNL     1      31.535 -23.986 -14.840  0.00  0.00    +0.069 C 
ATOM      7  C   UNL     1      32.675 -24.374 -13.982  0.00  0.00    +0.201 C 
ATOM      8  C   UNL     1      35.129 -24.377 -13.576  0.00  0.00    +0.133 C 
ATOM      9  C   UNL     1      36.430 -24.040 -13.948  0.00  0.00    +0.023 C 
ATOM     10  C   UNL     1      35.580 -22.971 -15.938  0.00  0.00    -0.004 C 
ATOM     11  C   UNL     1      36.656 -23.337 -15.128  0.00  0.00    -0.001 C 
ATOM     12  C   UNL     1      30.658 -22.925 -16.822  0.00  0.00    -0.004 C 
ATOM     13  C   UNL     1      30.234 -24.332 -14.455  0.00  0.00    +0.136 C 
ATOM     14  C   UNL     1      29.362 -23.269 -16.439  0.00  0.00    +0.003 C 
ATOM     15  C   UNL     1      29.150 -23.972 -15.256  0.00  0.00    +0.037 C 
ENDROOT
BRANCH   8  16
ATOM     16  O   UNL     1      34.963 -25.066 -12.409  0.00  0.00    -0.506 OA
ATOM     17  H   UNL     1      34.453 -25.852 -12.397  0.00  0.00    +0.292 HD
ENDBRANCH   8  16
BRANCH  13  18
ATOM     18  O   UNL     1      29.954 -25.018 -13.311  0.00  0.00    -0.505 OA
ATOM     19  H   UNL     1      29.507 -25.841 -13.356  0.00  0.00    +0.292 HD
ENDBRANCH  13  18
BRANCH   9  20
ATOM     20  C   UNL     1      37.598 -24.421 -13.098  0.00  0.00    +0.139 C 
BRANCH  20  22
ATOM     21  O   UNL     1      38.353 -22.431 -11.913  0.00  0.00    -0.250 OA
ATOM     22  C   UNL     1      37.788 -23.516 -11.896  0.00  0.00    +0.318 C 
BRANCH  22  23
ATOM     23  O   UNL     1      37.250 -24.055 -10.770  0.00  0.00    -0.480 OA
ATOM     24  H   UNL     1      37.019 -23.501 -10.050  0.00  0.00    +0.295 HD
ENDBRANCH  22  23
ENDBRANCH  20  22
ENDBRANCH   9  20
TORSDOF 5
ENDMDL
MODEL 2
REMARK VINA RESULT:      -9.6      1.790      6.523
REMARK  Name = 4471188
REMARK  5 active torsions:
REMARK  status: ('A' for Active; 'I' for Inactive)
REMARK    1  A    between atoms: C_8  and  O_16
REMARK    2  A    between atoms: C_9  and  C_20
REMARK    3  A    between atoms: C_13  and  O_18
REMARK    4  A    between atoms: C_20  and  C_22
REMARK    5  A    between atoms: C_22  and  O_23
REMARK                            x       y       z     vdW  Elec       q    Type
REMARK                         _______ _______ _______ _____ _____    ______ ____
ROOT
ATOM      1  O   UNL     1      33.088 -24.678 -12.859  0.00  0.00    -0.286 OA
ATOM      2  C   UNL     1      34.601 -23.152 -16.434  0.00  0.00    +0.053 C 
ATOM      3  C   UNL     1      33.125 -23.215 -16.150  0.00  0.00    -0.012 C 
ATOM      4  C   UNL     1      32.613 -23.727 -14.953  0.00  0.00    +0.069 C 
ATOM      5  C   UNL     1      35.495 -23.675 -15.343  0.00  0.00    -0.012 C 
ATOM      6  C   UNL     1      34.991 -24.189 -14.142  0.00  0.00    +0.069 C 
ATOM      7  C   UNL     1      33.531 -24.230 -13.909  0.00  0.00    +0.201 C 
ATOM      8  C   UNL     1      31.230 -23.765 -14.732  0.00  0.00    +0.133 C 
ATOM      9  C   UNL     1      30.353 -23.293 -15.707  0.00  0.00    +0.023 C 
ATOM     10  C   UNL     1      32.229 -22.744 -17.123  0.00  0.00    -0.004 C 
ATOM     11  C   UNL     1      30.852 -22.782 -16.903  0.00  0.00    -0.001 C 
ATOM     12  C   UNL     1      36.885 -23.648 -15.536  0.00  0.00    -0.004 C 
ATOM     13  C   UNL     1      35.861 -24.665 -13.153  0.00  0.00    +0.136 C 
ATOM     14  C   UNL     1      37.752 -24.124 -14.552  0.00  0.00    +0.003 C 
ATOM     15  C   UNL     1      37.239 -24.632 -13.361  0.00  0.00    +0.037 C 
ENDROOT
BRANCH   8  16
ATOM     16  O   UNL     1      30.689 -24.256 -13.579  0.00  0.00    -0.506 OA
ATOM     17  H   UNL     1      30.103 -23.727 -13.074  0.00  0.00    +0.292 HD
ENDBRANCH   8  16
BRANCH  13  18
ATOM     18  O   UNL     1      35.428 -25.176 -11.965  0.00  0.00    -0.505 OA
ATOM     19  H   UNL     1      35.273 -24.605 -11.239  0.00  0.00    +0.292 HD
ENDBRANCH  13  18
BRANCH   9  20
ATOM     20  C   UNL     1      28.875 -23.324 -15.496  0.00  0.00    +0.139 C 
BRANCH  20  22
ATOM     21  O   UNL     1      27.762 -23.969 -17.564  0.00  0.00    -0.250 OA
ATOM     22  C   UNL     1      28.080 -23.097 -16.766  0.00  0.00    +0.318 C 
BRANCH  22  23
ATOM     23  O   UNL     1      27.750 -21.789 -16.928  0.00  0.00    -0.480 OA
ATOM     24  H   UNL     1      27.234 -21.523 -17.663  0.00  0.00    +0.295 HD
ENDBRANCH  22  23
ENDBRANCH  20  22
ENDBRANCH   9  20
TORSDOF 5
ENDMDL
MODEL 3
REMARK VINA RESULT:      -9.5      2.645      3.398
REMARK  Name = 4471188
REMARK  5 active torsions:
REMARK  status: ('A' for Active; 'I' for Inactive)
REMARK    1  A    between atoms: C_8  and  O_16
REMARK    2  A    between atoms: C_9  and  C_20
REMARK    3  A    between atoms: C_13  and  O_18
REMARK    4  A    between atoms: C_20  and  C_22
REMARK    5  A    between atoms: C_22  and  O_23
REMARK                            x       y       z     vdW  Elec       q    Type
REMARK                         _______ _______ _______ _____ _____    ______ ____
ROOT
ATOM      1  O   UNL     1      34.723 -23.270 -16.989  0.00  0.00    -0.286 OA
ATOM      2  C   UNL     1      33.043 -24.048 -13.253  0.00  0.00    +0.053 C 
ATOM      3  C   UNL     1      34.518 -24.191 -13.513  0.00  0.00    -0.012 C 
ATOM      4  C   UNL     1      35.086 -23.932 -14.765  0.00  0.00    +0.069 C 
ATOM      5  C   UNL     1      32.215 -23.606 -14.428  0.00  0.00    -0.012 C 
ATOM      6  C   UNL     1      32.775 -23.345 -15.683  0.00  0.00    +0.069 C 
ATOM      7  C   UNL     1      34.231 -23.499 -15.892  0.00  0.00    +0.201 C 
ATOM      8  C   UNL     1      36.465 -24.078 -14.963  0.00  0.00    +0.133 C 
ATOM      9  C   UNL     1      37.282 -24.485 -13.909  0.00  0.00    +0.023 C 
ATOM     10  C   UNL     1      35.353 -24.600 -12.462  0.00  0.00    -0.004 C 
ATOM     11  C   UNL     1      36.726 -24.746 -12.658  0.00  0.00    -0.001 C 
ATOM     12  C   UNL     1      30.830 -23.450 -14.259  0.00  0.00    -0.004 C 
ATOM     13  C   UNL     1      31.966 -22.934 -16.750  0.00  0.00    +0.136 C 
ATOM     14  C   UNL     1      30.024 -23.042 -15.322  0.00  0.00    +0.003 C 
ATOM     15  C   UNL     1      30.592 -22.784 -16.566  0.00  0.00    +0.037 C 
ENDROOT
BRANCH   8  16
ATOM     16  O   UNL     1      37.059 -23.836 -16.167  0.00  0.00    -0.506 OA
ATOM     17  H   UNL     1      36.687 -23.209 -16.756  0.00  0.00    +0.292 HD
ENDBRANCH   8  16
BRANCH  13  18
ATOM     18  O   UNL     1      32.455 -22.665 -17.995  0.00  0.00    -0.505 OA
ATOM     19  H   UNL     1      31.865 -22.529 -18.710  0.00  0.00    +0.292 HD
ENDBRANCH  13  18
BRANCH   9  20
ATOM     20  C   UNL     1      38.755 -24.648 -14.094  0.00  0.00    +0.139 C 
BRANCH  20  22
ATOM     21  O   UNL     1      38.583 -27.018 -14.630  0.00  0.00    -0.250 OA
ATOM     22  C   UNL     1      39.134 -25.938 -14.795  0.00  0.00    +0.318 C 
BRANCH  22  23
ATOM     23  O   UNL     1      40.177 -25.760 -15.648  0.00  0.00    -0.480 OA
ATOM     24  H   UNL     1      40.988 -26.204 -15.495  0.00  0.00    +0.295 HD
ENDBRANCH  22  23
ENDBRANCH  20  22
ENDBRANCH   9  20
TORSDOF 5
ENDMDL
MODEL 4
REMARK VINA RESULT:      -9.4     10.426     11.917
REMARK  Name = 4471188
REMARK  5 active torsions:
REMARK  status: ('A' for Active; 'I' for Inactive)
REMARK    1  A    between atoms: C_8  and  O_16
REMARK    2  A    between atoms: C_9  and  C_20
REMARK    3  A    between atoms: C_13  and  O_18
REMARK    4  A    between atoms: C_20  and  C_22
REMARK    5  A    between atoms: C_22  and  O_23
REMARK                            x       y       z     vdW  Elec       q    Type
REMARK                         _______ _______ _______ _____ _____    ______ ____
ROOT
ATOM      1  O   UNL     1      34.632 -14.808 -21.900  0.00  0.00    -0.286 OA
ATOM      2  C   UNL     1      34.024 -16.978 -25.408  0.00  0.00    +0.053 C 
ATOM      3  C   UNL     1      34.488 -17.629 -24.133  0.00  0.00    -0.012 C 
ATOM      4  C   UNL     1      34.694 -16.905 -22.954  0.00  0.00    +0.069 C 
ATOM      5  C   UNL     1      33.793 -15.494 -25.333  0.00  0.00    -0.012 C 
ATOM      6  C   UNL     1      33.997 -14.762 -24.158  0.00  0.00    +0.069 C 
ATOM      7  C   UNL     1      34.454 -15.446 -22.929  0.00  0.00    +0.201 C 
ATOM      8  C   UNL     1      35.127 -17.553 -21.790  0.00  0.00    +0.133 C 
ATOM      9  C   UNL     1      35.356 -18.928 -21.800  0.00  0.00    +0.023 C 
ATOM     10  C   UNL     1      34.723 -19.013 -24.128  0.00  0.00    -0.004 C 
ATOM     11  C   UNL     1      35.154 -19.659 -22.969  0.00  0.00    -0.001 C 
ATOM     12  C   UNL     1      33.358 -14.818 -26.484  0.00  0.00    -0.004 C 
ATOM     13  C   UNL     1      33.770 -13.380 -24.134  0.00  0.00    +0.136 C 
ATOM     14  C   UNL     1      33.132 -13.442 -26.461  0.00  0.00    +0.003 C 
ATOM     15  C   UNL     1      33.338 -12.724 -25.286  0.00  0.00    +0.037 C 
ENDROOT
BRANCH   8  16
ATOM     16  O   UNL     1      35.341 -16.884 -20.619  0.00  0.00    -0.506 OA
ATOM     17  H   UNL     1      35.851 -17.280 -19.940  0.00  0.00    +0.292 HD
ENDBRANCH   8  16
BRANCH  13  18
ATOM     18  O   UNL     1      33.951 -12.615 -23.019  0.00  0.00    -0.505 OA
ATOM     19  H   UNL     1      33.314 -12.632 -22.332  0.00  0.00    +0.292 HD
ENDBRANCH  13  18
BRANCH   9  20
ATOM     20  C   UNL     1      35.818 -19.642 -20.572  0.00  0.00    +0.139 C 
BRANCH  20  22
ATOM     21  O   UNL     1      33.647 -20.569 -19.971  0.00  0.00    -0.250 OA
ATOM     22  C   UNL     1      34.856 -20.714 -20.100  0.00  0.00    +0.318 C 
BRANCH  22  23
ATOM     23  O   UNL     1      35.495 -21.881 -19.829  0.00  0.00    -0.480 OA
ATOM     24  H   UNL     1      35.326 -22.333 -19.026  0.00  0.00    +0.295 HD
ENDBRANCH  22  23
ENDBRANCH  20  22
ENDBRANCH   9  20
TORSDOF 5
ENDMDL
MODEL 5
REMARK VINA RESULT:      -9.4      2.768      3.986
REMARK  Name = 4471188
REMARK  5 active torsions:
REMARK  status: ('A' for Active; 'I' for Inactive)
REMARK    1  A    between atoms: C_8  and  O_16
REMARK    2  A    between atoms: C_9  and  C_20
REMARK    3  A    between atoms: C_13  and  O_18
REMARK    4  A    between atoms: C_20  and  C_22
REMARK    5  A    between atoms: C_22  and  O_23
REMARK                            x       y       z     vdW  Elec       q    Type
REMARK                         _______ _______ _______ _____ _____    ______ ____
ROOT
ATOM      1  O   UNL     1      33.320 -23.593 -16.268  0.00  0.00    -0.286 OA
ATOM      2  C   UNL     1      37.099 -22.163 -17.298  0.00  0.00    +0.053 C 
ATOM      3  C   UNL     1      36.864 -22.988 -16.062  0.00  0.00    -0.012 C 
ATOM      4  C   UNL     1      35.598 -23.468 -15.711  0.00  0.00    +0.069 C 
ATOM      5  C   UNL     1      35.882 -21.890 -18.138  0.00  0.00    -0.012 C 
ATOM      6  C   UNL     1      34.612 -22.367 -17.796  0.00  0.00    +0.069 C 
ATOM      7  C   UNL     1      34.430 -23.174 -16.569  0.00  0.00    +0.201 C 
ATOM      8  C   UNL     1      35.425 -24.233 -14.550  0.00  0.00    +0.133 C 
ATOM      9  C   UNL     1      36.518 -24.519 -13.733  0.00  0.00    +0.023 C 
ATOM     10  C   UNL     1      37.954 -23.283 -15.229  0.00  0.00    -0.004 C 
ATOM     11  C   UNL     1      37.783 -24.044 -14.072  0.00  0.00    -0.001 C 
ATOM     12  C   UNL     1      36.025 -21.128 -19.308  0.00  0.00    -0.004 C 
ATOM     13  C   UNL     1      33.506 -22.088 -18.608  0.00  0.00    +0.136 C 
ATOM     14  C   UNL     1      34.924 -20.849 -20.118  0.00  0.00    +0.003 C 
ATOM     15  C   UNL     1      33.665 -21.330 -19.767  0.00  0.00    +0.037 C 
ENDROOT
BRANCH   8  16
ATOM     16  O   UNL     1      34.207 -24.721 -14.172  0.00  0.00    -0.506 OA
ATOM     17  H   UNL     1      33.815 -25.424 -14.652  0.00  0.00    +0.292 HD
ENDBRANCH   8  16
BRANCH  13  18
ATOM     18  O   UNL     1      32.245 -22.526 -18.325  0.00  0.00    -0.505 OA
ATOM     19  H   UNL     1      32.119 -23.376 -17.951  0.00  0.00    +0.292 HD
ENDBRANCH  13  18
BRANCH   9  20
ATOM     20  C   UNL     1      36.359 -25.330 -12.490  0.00  0.00    +0.139 C 
BRANCH  20  22
ATOM     21  O   UNL     1      36.830 -23.476 -10.982  0.00  0.00    -0.250 OA
ATOM     22  C   UNL     1      36.195 -24.490 -11.239  0.00  0.00    +0.318 C 
BRANCH  22  23
ATOM     23  O   UNL     1      35.243 -24.997 -10.413  0.00  0.00    -0.480 OA
ATOM     24  H   UNL     1      35.207 -25.919 -10.250  0.00  0.00    +0.295 HD
ENDBRANCH  22  23
ENDBRANCH  20  22
ENDBRANCH   9  20
TORSDOF 5
ENDMDL
MODEL 6
REMARK VINA RESULT:      -9.3     12.179     13.976
REMARK  Name = 4471188
REMARK  5 active torsions:
REMARK  status: ('A' for Active; 'I' for Inactive)
REMARK    1  A    between atoms: C_8  and  O_16
REMARK    2  A    between atoms: C_9  and  C_20
REMARK    3  A    between atoms: C_13  and  O_18
REMARK    4  A    between atoms: C_20  and  C_22
REMARK    5  A    between atoms: C_22  and  O_23
REMARK                            x       y       z     vdW  Elec       q    Type
REMARK                         _______ _______ _______ _____ _____    ______ ____
ROOT
ATOM      1  O   UNL     1      34.764 -14.790 -21.655  0.00  0.00    -0.286 OA
ATOM      2  C   UNL     1      34.047 -17.090 -25.058  0.00  0.00    +0.053 C 
ATOM      3  C   UNL     1      33.914 -15.591 -25.061  0.00  0.00    -0.012 C 
ATOM      4  C   UNL     1      34.152 -14.816 -23.922  0.00  0.00    +0.069 C 
ATOM      5  C   UNL     1      34.456 -17.703 -23.747  0.00  0.00    -0.012 C 
ATOM      6  C   UNL     1      34.697 -16.935 -22.603  0.00  0.00    +0.069 C 
ATOM      7  C   UNL     1      34.553 -15.464 -22.655  0.00  0.00    +0.201 C 
ATOM      8  C   UNL     1      34.016 -13.422 -23.971  0.00  0.00    +0.133 C 
ATOM      9  C   UNL     1      33.640 -12.799 -25.160  0.00  0.00    +0.023 C 
ATOM     10  C   UNL     1      33.535 -14.949 -26.251  0.00  0.00    -0.004 C 
ATOM     11  C   UNL     1      33.399 -13.562 -26.300  0.00  0.00    -0.001 C 
ATOM     12  C   UNL     1      34.601 -19.097 -23.669  0.00  0.00    -0.004 C 
ATOM     13  C   UNL     1      35.077 -17.549 -21.402  0.00  0.00    +0.136 C 
ATOM     14  C   UNL     1      34.979 -19.709 -22.473  0.00  0.00    +0.003 C 
ATOM     15  C   UNL     1      35.216 -18.935 -21.341  0.00  0.00    +0.037 C 
ENDROOT
BRANCH   8  16
ATOM     16  O   UNL     1      34.240 -12.629 -22.883  0.00  0.00    -0.506 OA
ATOM     17  H   UNL     1      33.800 -11.805 -22.806  0.00  0.00    +0.292 HD
ENDBRANCH   8  16
BRANCH  13  18
ATOM     18  O   UNL     1      35.324 -16.852 -20.256  0.00  0.00    -0.505 OA
ATOM     19  H   UNL     1      36.196 -16.809 -19.914  0.00  0.00    +0.292 HD
ENDBRANCH  13  18
BRANCH   9  20
ATOM     20  C   UNL     1      33.488 -11.315 -25.237  0.00  0.00    +0.139 C 
BRANCH  20  22
ATOM     21  O   UNL     1      35.490 -10.442 -26.316  0.00  0.00    -0.250 OA
ATOM     22  C   UNL     1      34.810 -10.577 -25.307  0.00  0.00    +0.318 C 
BRANCH  22  23
ATOM     23  O   UNL     1      35.168 -10.068 -24.099  0.00  0.00    -0.480 OA
ATOM     24  H   UNL     1      35.453 -10.642 -23.415  0.00  0.00    +0.295 HD
ENDBRANCH  22  23
ENDBRANCH  20  22
ENDBRANCH   9  20
TORSDOF 5
ENDMDL
MODEL 7
REMARK VINA RESULT:      -9.3      3.496      6.153
REMARK  Name = 4471188
REMARK  5 active torsions:
REMARK  status: ('A' for Active; 'I' for Inactive)
REMARK    1  A    between atoms: C_8  and  O_16
REMARK    2  A    between atoms: C_9  and  C_20
REMARK    3  A    between atoms: C_13  and  O_18
REMARK    4  A    between atoms: C_20  and  C_22
REMARK    5  A    between atoms: C_22  and  O_23
REMARK                            x       y       z     vdW  Elec       q    Type
REMARK                         _______ _______ _______ _____ _____    ______ ____
ROOT
ATOM      1  O   UNL     1      33.282 -23.904 -15.299  0.00  0.00    -0.286 OA
ATOM      2  C   UNL     1      37.246 -22.610 -15.191  0.00  0.00    +0.053 C 
ATOM      3  C   UNL     1      36.384 -22.452 -16.415  0.00  0.00    -0.012 C 
ATOM      4  C   UNL     1      35.054 -22.885 -16.456  0.00  0.00    +0.069 C 
ATOM      5  C   UNL     1      36.583 -23.265 -14.010  0.00  0.00    -0.012 C 
ATOM      6  C   UNL     1      35.254 -23.701 -14.043  0.00  0.00    +0.069 C 
ATOM      7  C   UNL     1      34.446 -23.524 -15.269  0.00  0.00    +0.201 C 
ATOM      8  C   UNL     1      34.288 -22.717 -17.616  0.00  0.00    +0.133 C 
ATOM      9  C   UNL     1      34.850 -22.116 -18.742  0.00  0.00    +0.023 C 
ATOM     10  C   UNL     1      36.935 -21.849 -17.556  0.00  0.00    -0.004 C 
ATOM     11  C   UNL     1      36.173 -21.682 -18.713  0.00  0.00    -0.001 C 
ATOM     12  C   UNL     1      37.326 -23.446 -12.833  0.00  0.00    -0.004 C 
ATOM     13  C   UNL     1      34.678 -24.306 -12.918  0.00  0.00    +0.136 C 
ATOM     14  C   UNL     1      36.753 -24.049 -11.713  0.00  0.00    +0.003 C 
ATOM     15  C   UNL     1      35.429 -24.478 -11.757  0.00  0.00    +0.037 C 
ENDROOT
BRANCH   8  16
ATOM     16  O   UNL     1      32.988 -23.125 -17.699  0.00  0.00    -0.506 OA
ATOM     17  H   UNL     1      32.597 -23.589 -16.985  0.00  0.00    +0.292 HD
ENDBRANCH   8  16
BRANCH  13  18
ATOM     18  O   UNL     1      33.388 -24.750 -12.891  0.00  0.00    -0.505 OA
ATOM     19  H   UNL     1      32.981 -24.954 -12.072  0.00  0.00    +0.292 HD
ENDBRANCH  13  18
BRANCH   9  20
ATOM     20  C   UNL     1      34.054 -21.926 -19.992  0.00  0.00    +0.139 C 
BRANCH  20  22
ATOM     21  O   UNL     1      33.817 -19.608 -20.701  0.00  0.00    -0.250 OA
ATOM     22  C   UNL     1      33.385 -20.568 -20.079  0.00  0.00    +0.318 C 
BRANCH  22  23
ATOM     23  O   UNL     1      32.224 -20.533 -19.373  0.00  0.00    -0.480 OA
ATOM     24  H   UNL     1      32.172 -20.035 -18.581  0.00  0.00    +0.295 HD
ENDBRANCH  22  23
ENDBRANCH  20  22
ENDBRANCH   9  20
TORSDOF 5
ENDMDL
MODEL 8
REMARK VINA RESULT:      -9.2      4.073      5.735
REMARK  Name = 4471188
REMARK  5 active torsions:
REMARK  status: ('A' for Active; 'I' for Inactive)
REMARK    1  A    between atoms: C_8  and  O_16
REMARK    2  A    between atoms: C_9  and  C_20
REMARK    3  A    between atoms: C_13  and  O_18
REMARK    4  A    between atoms: C_20  and  C_22
REMARK    5  A    between atoms: C_22  and  O_23
REMARK                            x       y       z     vdW  Elec       q    Type
REMARK                         _______ _______ _______ _____ _____    ______ ____
ROOT
ATOM      1  O   UNL     1      37.052 -21.584 -18.426  0.00  0.00    -0.286 OA
ATOM      2  C   UNL     1      32.911 -22.063 -18.515  0.00  0.00    +0.053 C 
ATOM      3  C   UNL     1      33.772 -22.729 -17.476  0.00  0.00    -0.012 C 
ATOM      4  C   UNL     1      35.162 -22.572 -17.443  0.00  0.00    +0.069 C 
ATOM      5  C   UNL     1      33.642 -21.213 -19.517  0.00  0.00    -0.012 C 
ATOM      6  C   UNL     1      35.031 -21.051 -19.492  0.00  0.00    +0.069 C 
ATOM      7  C   UNL     1      35.837 -21.726 -18.451  0.00  0.00    +0.201 C 
ATOM      8  C   UNL     1      35.925 -23.211 -16.457  0.00  0.00    +0.133 C 
ATOM      9  C   UNL     1      35.301 -24.011 -15.501  0.00  0.00    +0.023 C 
ATOM     10  C   UNL     1      33.159 -23.538 -16.507  0.00  0.00    -0.004 C 
ATOM     11  C   UNL     1      33.919 -24.175 -15.525  0.00  0.00    -0.001 C 
ATOM     12  C   UNL     1      32.903 -20.560 -20.516  0.00  0.00    -0.004 C 
ATOM     13  C   UNL     1      35.670 -20.249 -20.446  0.00  0.00    +0.136 C 
ATOM     14  C   UNL     1      33.539 -19.762 -21.467  0.00  0.00    +0.003 C 
ATOM     15  C   UNL     1      34.922 -19.607 -21.432  0.00  0.00    +0.037 C 
ENDROOT
BRANCH   8  16
ATOM     16  O   UNL     1      37.283 -23.085 -16.389  0.00  0.00    -0.506 OA
ATOM     17  H   UNL     1      37.834 -23.765 -16.722  0.00  0.00    +0.292 HD
ENDBRANCH   8  16
BRANCH  13  18
ATOM     18  O   UNL     1      37.020 -20.054 -20.470  0.00  0.00    -0.505 OA
ATOM     19  H   UNL     1      37.588 -20.748 -20.742  0.00  0.00    +0.292 HD
ENDBRANCH  13  18
BRANCH   9  20
ATOM     20  C   UNL     1      36.093 -24.703 -14.440  0.00  0.00    +0.139 C 
BRANCH  20  22
ATOM     21  O   UNL     1      36.333 -26.651 -15.883  0.00  0.00    -0.250 OA
ATOM     22  C   UNL     1      36.404 -26.150 -14.769  0.00  0.00    +0.318 C 
BRANCH  22  23
ATOM     23  O   UNL     1      36.777 -26.849 -13.665  0.00  0.00    -0.480 OA
ATOM     24  H   UNL     1      36.214 -27.512 -13.317  0.00  0.00    +0.295 HD
ENDBRANCH  22  23
ENDBRANCH  20  22
ENDBRANCH   9  20
TORSDOF 5
ENDMDL
MODEL 9
REMARK VINA RESULT:      -9.1      5.989      8.017
REMARK  Name = 4471188
REMARK  5 active torsions:
REMARK  status: ('A' for Active; 'I' for Inactive)
REMARK    1  A    between atoms: C_8  and  O_16
REMARK    2  A    between atoms: C_9  and  C_20
REMARK    3  A    between atoms: C_13  and  O_18
REMARK    4  A    between atoms: C_20  and  C_22
REMARK    5  A    between atoms: C_22  and  O_23
REMARK                            x       y       z     vdW  Elec       q    Type
REMARK                         _______ _______ _______ _____ _____    ______ ____
ROOT
ATOM      1  O   UNL     1      37.177 -21.355 -18.478  0.00  0.00    -0.286 OA
ATOM      2  C   UNL     1      33.074 -22.102 -18.501  0.00  0.00    +0.053 C 
ATOM      3  C   UNL     1      33.736 -21.228 -19.532  0.00  0.00    -0.012 C 
ATOM      4  C   UNL     1      35.111 -20.974 -19.528  0.00  0.00    +0.069 C 
ATOM      5  C   UNL     1      33.990 -22.688 -17.463  0.00  0.00    -0.012 C 
ATOM      6  C   UNL     1      35.367 -22.439 -17.451  0.00  0.00    +0.069 C 
ATOM      7  C   UNL     1      35.972 -21.573 -18.486  0.00  0.00    +0.201 C 
ATOM      8  C   UNL     1      35.685 -20.154 -20.509  0.00  0.00    +0.133 C 
ATOM      9  C   UNL     1      34.884 -19.584 -21.498  0.00  0.00    +0.023 C 
ATOM     10  C   UNL     1      32.943 -20.647 -20.534  0.00  0.00    -0.004 C 
ATOM     11  C   UNL     1      33.513 -19.830 -21.511  0.00  0.00    -0.001 C 
ATOM     12  C   UNL     1      33.444 -23.514 -16.468  0.00  0.00    -0.004 C 
ATOM     13  C   UNL     1      36.183 -23.007 -16.464  0.00  0.00    +0.136 C 
ATOM     14  C   UNL     1      34.256 -24.079 -15.484  0.00  0.00    +0.003 C 
ATOM     15  C   UNL     1      35.624 -23.825 -15.483  0.00  0.00    +0.037 C 
ENDROOT
BRANCH   8  16
ATOM     16  O   UNL     1      37.021 -19.881 -20.541  0.00  0.00    -0.506 OA
ATOM     17  H   UNL     1      37.485 -19.715 -19.744  0.00  0.00    +0.292 HD
ENDBRANCH   8  16
BRANCH  13  18
ATOM     18  O   UNL     1      37.530 -22.800 -16.402  0.00  0.00    -0.505 OA
ATOM     19  H   UNL     1      37.948 -22.692 -15.571  0.00  0.00    +0.292 HD
ENDBRANCH  13  18
BRANCH   9  20
ATOM     20  C   UNL     1      35.471 -18.706 -22.553  0.00  0.00    +0.139 C 
BRANCH  20  22
ATOM     21  O   UNL     1      35.024 -16.765 -21.152  0.00  0.00    -0.250 OA
ATOM     22  C   UNL     1      35.380 -17.228 -22.227  0.00  0.00    +0.318 C 
BRANCH  22  23
ATOM     23  O   UNL     1      35.744 -16.455 -23.284  0.00  0.00    -0.480 OA
ATOM     24  H   UNL     1      35.488 -15.554 -23.315  0.00  0.00    +0.295 HD
ENDBRANCH  22  23
ENDBRANCH  20  22
ENDBRANCH   9  20
TORSDOF 5
ENDMDL
