MODEL 1
REMARK VINA RESULT:     -11.6      0.000      0.000
REMARK  Name = 6323454
REMARK  1 active torsions:
REMARK  status: ('A' for Active; 'I' for Inactive)
REMARK    1  A    between atoms: C_18  and  O_22
REMARK                            x       y       z     vdW  Elec       q    Type
REMARK                         _______ _______ _______ _____ _____    ______ ____
ROOT
ATOM      1  O   UNL     1      34.376 -24.634 -13.460  0.00  0.00    -0.350 OA
ATOM      2  O   UNL     1      37.452 -22.914 -13.614  0.00  0.00    -0.445 OA
ATOM      3  O   UNL     1      37.854 -22.418 -16.331  0.00  0.00    -0.287 OA
ATOM      4  O   UNL     1      38.335 -22.861 -11.484  0.00  0.00    -0.250 OA
ATOM      5  O   UNL     1      32.710 -23.497 -17.226  0.00  0.00    -0.287 OA
ATOM      6  C   UNL     1      35.367 -23.692 -13.110  0.00  0.00    +0.171 C 
ATOM      7  C   UNL     1      36.417 -23.699 -14.193  0.00  0.00    +0.221 C 
ATOM      8  C   UNL     1      35.798 -23.220 -15.470  0.00  0.00    +0.060 C 
ATOM      9  C   UNL     1      33.629 -24.193 -14.626  0.00  0.00    +0.141 C 
ATOM     10  C   UNL     1      34.491 -23.479 -15.676  0.00  0.00    +0.046 C 
ATOM     11  C   UNL     1      36.225 -24.004 -11.910  0.00  0.00    +0.143 C 
ATOM     12  C   UNL     1      37.458 -23.203 -12.263  0.00  0.00    +0.320 C 
ATOM     13  C   UNL     1      36.648 -22.563 -16.491  0.00  0.00    +0.195 C 
ATOM     14  C   UNL     1      33.852 -23.130 -16.976  0.00  0.00    +0.197 C 
ATOM     15  C   UNL     1      32.462 -23.334 -14.127  0.00  0.00    +0.037 C 
ATOM     16  C   UNL     1      35.990 -22.085 -17.721  0.00  0.00    +0.045 C 
ATOM     17  C   UNL     1      34.643 -22.359 -17.953  0.00  0.00    +0.075 C 
ATOM     18  C   UNL     1      34.034 -21.908 -19.131  0.00  0.00    +0.137 C 
ATOM     19  C   UNL     1      36.731 -21.363 -18.664  0.00  0.00    +0.003 C 
ATOM     20  C   UNL     1      34.774 -21.185 -20.068  0.00  0.00    +0.037 C 
ATOM     21  C   UNL     1      36.120 -20.914 -19.835  0.00  0.00    +0.003 C 
ENDROOT
BRANCH  18  22
ATOM     22  O   UNL     1      32.720 -22.134 -19.418  0.00  0.00    -0.505 OA
ATOM     23  H   UNL     1      32.132 -21.412 -19.518  0.00  0.00    +0.292 HD
ENDBRANCH  18  22
TORSDOF 1
ENDMDL
MODEL 2
REMARK VINA RESULT:     -10.3      2.132      5.309
REMARK  Name = 6323454
REMARK  1 active torsions:
REMARK  status: ('A' for Active; 'I' for Inactive)
REMARK    1  A    between atoms: C_18  and  O_22
REMARK                            x       y       z     vdW  Elec       q    Type
REMARK                         _______ _______ _______ _____ _____    ______ ____
ROOT
ATOM      1  O   UNL     1      36.541 -23.868 -15.174  0.00  0.00    -0.350 OA
ATOM      2  O   UNL     1      35.170 -21.936 -17.788  0.00  0.00    -0.445 OA
ATOM      3  O   UNL     1      32.506 -22.752 -17.952  0.00  0.00    -0.287 OA
ATOM      4  O   UNL     1      36.882 -20.712 -18.730  0.00  0.00    -0.250 OA
ATOM      5  O   UNL     1      32.959 -24.993 -13.136  0.00  0.00    -0.287 OA
ATOM      6  C   UNL     1      36.269 -22.719 -15.949  0.00  0.00    +0.171 C 
ATOM      7  C   UNL     1      35.175 -23.067 -16.926  0.00  0.00    +0.221 C 
ATOM      8  C   UNL     1      33.924 -23.379 -16.162  0.00  0.00    +0.060 C 
ATOM      9  C   UNL     1      35.424 -24.179 -14.298  0.00  0.00    +0.141 C 
ATOM     10  C   UNL     1      34.051 -23.924 -14.936  0.00  0.00    +0.046 C 
ATOM     11  C   UNL     1      37.341 -22.261 -16.906  0.00  0.00    +0.143 C 
ATOM     12  C   UNL     1      36.484 -21.532 -17.917  0.00  0.00    +0.320 C 
ATOM     13  C   UNL     1      32.605 -23.160 -16.802  0.00  0.00    +0.195 C 
ATOM     14  C   UNL     1      32.844 -24.361 -14.180  0.00  0.00    +0.197 C 
ATOM     15  C   UNL     1      35.630 -23.401 -12.994  0.00  0.00    +0.037 C 
ATOM     16  C   UNL     1      31.403 -23.455 -16.002  0.00  0.00    +0.045 C 
ATOM     17  C   UNL     1      31.519 -24.034 -14.739  0.00  0.00    +0.075 C 
ATOM     18  C   UNL     1      30.367 -24.319 -13.995  0.00  0.00    +0.137 C 
ATOM     19  C   UNL     1      30.137 -23.163 -16.525  0.00  0.00    +0.003 C 
ATOM     20  C   UNL     1      29.107 -24.023 -14.517  0.00  0.00    +0.037 C 
ATOM     21  C   UNL     1      28.992 -23.447 -15.779  0.00  0.00    +0.003 C 
ENDROOT
BRANCH  18  22
ATOM     22  O   UNL     1      30.409 -24.877 -12.752  0.00  0.00    -0.505 OA
ATOM     23  H   UNL     1      31.103 -24.654 -12.162  0.00  0.00    +0.292 HD
ENDBRANCH  18  22
TORSDOF 1
ENDMDL
MODEL 3
REMARK VINA RESULT:     -10.1      1.840      6.112
REMARK  Name = 6323454
REMARK  1 active torsions:
REMARK  status: ('A' for Active; 'I' for Inactive)
REMARK    1  A    between atoms: C_18  and  O_22
REMARK                            x       y       z     vdW  Elec       q    Type
REMARK                         _______ _______ _______ _____ _____    ______ ____
ROOT
ATOM      1  O   UNL     1      37.151 -22.337 -17.963  0.00  0.00    -0.350 OA
ATOM      2  O   UNL     1      34.176 -21.218 -19.495  0.00  0.00    -0.445 OA
ATOM      3  O   UNL     1      32.152 -22.720 -18.297  0.00  0.00    -0.287 OA
ATOM      4  O   UNL     1      34.759 -19.730 -21.158  0.00  0.00    -0.250 OA
ATOM      5  O   UNL     1      35.539 -24.069 -14.407  0.00  0.00    -0.287 OA
ATOM      6  C   UNL     1      36.208 -21.420 -18.478  0.00  0.00    +0.171 C 
ATOM      7  C   UNL     1      34.937 -22.176 -18.770  0.00  0.00    +0.221 C 
ATOM      8  C   UNL     1      34.376 -22.696 -17.482  0.00  0.00    +0.060 C 
ATOM      9  C   UNL     1      36.754 -22.806 -16.647  0.00  0.00    +0.141 C 
ATOM     10  C   UNL     1      35.240 -23.012 -16.497  0.00  0.00    +0.046 C 
ATOM     11  C   UNL     1      36.485 -20.834 -19.840  0.00  0.00    +0.143 C 
ATOM     12  C   UNL     1      35.073 -20.504 -20.266  0.00  0.00    +0.320 C 
ATOM     13  C   UNL     1      32.916 -22.923 -17.362  0.00  0.00    +0.195 C 
ATOM     14  C   UNL     1      34.747 -23.642 -15.239  0.00  0.00    +0.197 C 
ATOM     15  C   UNL     1      37.328 -21.828 -15.617  0.00  0.00    +0.037 C 
ATOM     16  C   UNL     1      32.407 -23.410 -16.067  0.00  0.00    +0.045 C 
ATOM     17  C   UNL     1      33.290 -23.756 -15.045  0.00  0.00    +0.075 C 
ATOM     18  C   UNL     1      32.792 -24.228 -13.824  0.00  0.00    +0.137 C 
ATOM     19  C   UNL     1      31.026 -23.536 -15.872  0.00  0.00    +0.003 C 
ATOM     20  C   UNL     1      31.415 -24.349 -13.631  0.00  0.00    +0.037 C 
ATOM     21  C   UNL     1      30.534 -24.005 -14.653  0.00  0.00    +0.003 C 
ENDROOT
BRANCH  18  22
ATOM     22  O   UNL     1      33.599 -24.576 -12.782  0.00  0.00    -0.505 OA
ATOM     23  H   UNL     1      34.406 -24.121 -12.643  0.00  0.00    +0.292 HD
ENDBRANCH  18  22
TORSDOF 1
ENDMDL
MODEL 4
REMARK VINA RESULT:     -10.1      2.002      5.734
REMARK  Name = 6323454
REMARK  1 active torsions:
REMARK  status: ('A' for Active; 'I' for Inactive)
REMARK    1  A    between atoms: C_18  and  O_22
REMARK                            x       y       z     vdW  Elec       q    Type
REMARK                         _______ _______ _______ _____ _____    ______ ____
ROOT
ATOM      1  O   UNL     1      32.091 -22.996 -14.982  0.00  0.00    -0.350 OA
ATOM      2  O   UNL     1      34.341 -22.878 -17.696  0.00  0.00    -0.445 OA
ATOM      3  O   UNL     1      36.869 -23.099 -16.534  0.00  0.00    -0.287 OA
ATOM      4  O   UNL     1      33.117 -22.463 -19.606  0.00  0.00    -0.250 OA
ATOM      5  O   UNL     1      34.584 -24.837 -12.042  0.00  0.00    -0.287 OA
ATOM      6  C   UNL     1      32.619 -23.290 -16.258  0.00  0.00    +0.171 C 
ATOM      7  C   UNL     1      34.022 -22.742 -16.316  0.00  0.00    +0.221 C 
ATOM      8  C   UNL     1      34.869 -23.474 -15.321  0.00  0.00    +0.060 C 
ATOM      9  C   UNL     1      32.771 -23.762 -13.951  0.00  0.00    +0.141 C 
ATOM     10  C   UNL     1      34.276 -23.929 -14.199  0.00  0.00    +0.046 C 
ATOM     11  C   UNL     1      32.009 -22.577 -17.439  0.00  0.00    +0.143 C 
ATOM     12  C   UNL     1      33.178 -22.625 -18.397  0.00  0.00    +0.320 C 
ATOM     13  C   UNL     1      36.328 -23.599 -15.555  0.00  0.00    +0.195 C 
ATOM     14  C   UNL     1      35.091 -24.560 -13.122  0.00  0.00    +0.197 C 
ATOM     15  C   UNL     1      32.037 -25.100 -13.811  0.00  0.00    +0.037 C 
ATOM     16  C   UNL     1      37.116 -24.350 -14.562  0.00  0.00    +0.045 C 
ATOM     17  C   UNL     1      36.518 -24.813 -13.390  0.00  0.00    +0.075 C 
ATOM     18  C   UNL     1      37.283 -25.515 -12.450  0.00  0.00    +0.137 C 
ATOM     19  C   UNL     1      38.476 -24.586 -14.795  0.00  0.00    +0.003 C 
ATOM     20  C   UNL     1      38.637 -25.753 -12.686  0.00  0.00    +0.037 C 
ATOM     21  C   UNL     1      39.233 -25.289 -13.857  0.00  0.00    +0.003 C 
ENDROOT
BRANCH  18  22
ATOM     22  O   UNL     1      36.761 -26.002 -11.288  0.00  0.00    -0.505 OA
ATOM     23  H   UNL     1      37.331 -26.322 -10.616  0.00  0.00    +0.292 HD
ENDBRANCH  18  22
TORSDOF 1
ENDMDL
MODEL 5
REMARK VINA RESULT:      -9.7     10.590     13.954
REMARK  Name = 6323454
REMARK  1 active torsions:
REMARK  status: ('A' for Active; 'I' for Inactive)
REMARK    1  A    between atoms: C_18  and  O_22
REMARK                            x       y       z     vdW  Elec       q    Type
REMARK                         _______ _______ _______ _____ _____    ______ ____
ROOT
ATOM      1  O   UNL     1      32.701  -9.055 -23.826  0.00  0.00    -0.350 OA
ATOM      2  O   UNL     1      32.094  -9.436 -20.372  0.00  0.00    -0.445 OA
ATOM      3  O   UNL     1      31.619 -12.165 -20.031  0.00  0.00    -0.287 OA
ATOM      4  O   UNL     1      32.071  -7.333 -19.426  0.00  0.00    -0.250 OA
ATOM      5  O   UNL     1      33.742 -13.073 -24.836  0.00  0.00    -0.287 OA
ATOM      6  C   UNL     1      32.890  -8.883 -22.437  0.00  0.00    +0.171 C 
ATOM      7  C   UNL     1      32.001  -9.870 -21.723  0.00  0.00    +0.221 C 
ATOM      8  C   UNL     1      32.458 -11.259 -22.052  0.00  0.00    +0.060 C 
ATOM      9  C   UNL     1      33.233 -10.334 -24.267  0.00  0.00    +0.141 C 
ATOM     10  C   UNL     1      33.014 -11.472 -23.261  0.00  0.00    +0.046 C 
ATOM     11  C   UNL     1      32.397  -7.595 -21.826  0.00  0.00    +0.143 C 
ATOM     12  C   UNL     1      32.173  -8.058 -20.404  0.00  0.00    +0.320 C 
ATOM     13  C   UNL     1      32.210 -12.356 -21.086  0.00  0.00    +0.195 C 
ATOM     14  C   UNL     1      33.379 -12.853 -23.687  0.00  0.00    +0.197 C 
ATOM     15  C   UNL     1      34.709 -10.123 -24.619  0.00  0.00    +0.037 C 
ATOM     16  C   UNL     1      32.700 -13.700 -21.442  0.00  0.00    +0.045 C 
ATOM     17  C   UNL     1      33.263 -13.938 -22.695  0.00  0.00    +0.075 C 
ATOM     18  C   UNL     1      33.715 -15.223 -23.022  0.00  0.00    +0.137 C 
ATOM     19  C   UNL     1      32.586 -14.743 -20.516  0.00  0.00    +0.003 C 
ATOM     20  C   UNL     1      33.603 -16.261 -22.096  0.00  0.00    +0.037 C 
ATOM     21  C   UNL     1      33.038 -16.021 -20.846  0.00  0.00    +0.003 C 
ENDROOT
BRANCH  18  22
ATOM     22  O   UNL     1      34.281 -15.522 -24.226  0.00  0.00    -0.505 OA
ATOM     23  H   UNL     1      34.725 -16.340 -24.344  0.00  0.00    +0.292 HD
ENDBRANCH  18  22
TORSDOF 1
ENDMDL
MODEL 6
REMARK VINA RESULT:      -9.6      8.554     11.964
REMARK  Name = 6323454
REMARK  1 active torsions:
REMARK  status: ('A' for Active; 'I' for Inactive)
REMARK    1  A    between atoms: C_18  and  O_22
REMARK                            x       y       z     vdW  Elec       q    Type
REMARK                         _______ _______ _______ _____ _____    ______ ____
ROOT
ATOM      1  O   UNL     1      31.792 -11.428 -23.134  0.00  0.00    -0.350 OA
ATOM      2  O   UNL     1      32.014 -12.463 -19.769  0.00  0.00    -0.445 OA
ATOM      3  O   UNL     1      32.548 -15.199 -19.901  0.00  0.00    -0.287 OA
ATOM      4  O   UNL     1      31.471 -10.657 -18.441  0.00  0.00    -0.250 OA
ATOM      5  O   UNL     1      33.899 -14.626 -25.026  0.00  0.00    -0.287 OA
ATOM      6  C   UNL     1      32.172 -11.388 -21.775  0.00  0.00    +0.171 C 
ATOM      7  C   UNL     1      31.816 -12.715 -21.155  0.00  0.00    +0.221 C 
ATOM      8  C   UNL     1      32.637 -13.788 -21.801  0.00  0.00    +0.060 C 
ATOM      9  C   UNL     1      32.625 -12.357 -23.879  0.00  0.00    +0.141 C 
ATOM     10  C   UNL     1      32.992 -13.622 -23.091  0.00  0.00    +0.046 C 
ATOM     11  C   UNL     1      31.404 -10.459 -20.869  0.00  0.00    +0.143 C 
ATOM     12  C   UNL     1      31.621 -11.158 -19.545  0.00  0.00    +0.320 C 
ATOM     13  C   UNL     1      32.957 -15.020 -21.041  0.00  0.00    +0.195 C 
ATOM     14  C   UNL     1      33.708 -14.708 -23.818  0.00  0.00    +0.197 C 
ATOM     15  C   UNL     1      33.851 -11.583 -24.372  0.00  0.00    +0.037 C 
ATOM     16  C   UNL     1      33.790 -16.036 -21.709  0.00  0.00    +0.045 C 
ATOM     17  C   UNL     1      34.151 -15.885 -23.047  0.00  0.00    +0.075 C 
ATOM     18  C   UNL     1      34.934 -16.864 -23.672  0.00  0.00    +0.137 C 
ATOM     19  C   UNL     1      34.207 -17.165 -20.995  0.00  0.00    +0.003 C 
ATOM     20  C   UNL     1      35.351 -17.987 -22.957  0.00  0.00    +0.037 C 
ATOM     21  C   UNL     1      34.988 -18.137 -21.621  0.00  0.00    +0.003 C 
ENDROOT
BRANCH  18  22
ATOM     22  O   UNL     1      35.328 -16.775 -24.974  0.00  0.00    -0.505 OA
ATOM     23  H   UNL     1      34.745 -16.420 -25.617  0.00  0.00    +0.292 HD
ENDBRANCH  18  22
TORSDOF 1
ENDMDL
MODEL 7
REMARK VINA RESULT:      -9.6      7.671     11.144
REMARK  Name = 6323454
REMARK  1 active torsions:
REMARK  status: ('A' for Active; 'I' for Inactive)
REMARK    1  A    between atoms: C_18  and  O_22
REMARK                            x       y       z     vdW  Elec       q    Type
REMARK                         _______ _______ _______ _____ _____    ______ ____
ROOT
ATOM      1  O   UNL     1      35.266 -17.162 -23.841  0.00  0.00    -0.350 OA
ATOM      2  O   UNL     1      33.486 -17.784 -20.859  0.00  0.00    -0.445 OA
ATOM      3  O   UNL     1      32.927 -15.253 -19.824  0.00  0.00    -0.287 OA
ATOM      4  O   UNL     1      33.461 -20.064 -20.519  0.00  0.00    -0.250 OA
ATOM      5  O   UNL     1      34.082 -13.123 -24.573  0.00  0.00    -0.287 OA
ATOM      6  C   UNL     1      34.313 -17.756 -22.985  0.00  0.00    +0.171 C 
ATOM      7  C   UNL     1      34.278 -16.960 -21.705  0.00  0.00    +0.221 C 
ATOM      8  C   UNL     1      33.785 -15.578 -22.008  0.00  0.00    +0.060 C 
ATOM      9  C   UNL     1      34.815 -15.857 -24.294  0.00  0.00    +0.141 C 
ATOM     10  C   UNL     1      34.063 -15.058 -23.220  0.00  0.00    +0.046 C 
ATOM     11  C   UNL     1      34.634 -19.123 -22.435  0.00  0.00    +0.143 C 
ATOM     12  C   UNL     1      33.803 -19.091 -21.173  0.00  0.00    +0.320 C 
ATOM     13  C   UNL     1      33.090 -14.804 -20.952  0.00  0.00    +0.195 C 
ATOM     14  C   UNL     1      33.699 -13.647 -23.534  0.00  0.00    +0.197 C 
ATOM     15  C   UNL     1      33.989 -16.072 -25.566  0.00  0.00    +0.037 C 
ATOM     16  C   UNL     1      32.600 -13.459 -21.304  0.00  0.00    +0.045 C 
ATOM     17  C   UNL     1      32.894 -12.903 -22.548  0.00  0.00    +0.075 C 
ATOM     18  C   UNL     1      32.430 -11.620 -22.865  0.00  0.00    +0.137 C 
ATOM     19  C   UNL     1      31.845 -12.735 -20.374  0.00  0.00    +0.003 C 
ATOM     20  C   UNL     1      31.674 -10.901 -21.938  0.00  0.00    +0.037 C 
ATOM     21  C   UNL     1      31.383 -11.457 -20.694  0.00  0.00    +0.003 C 
ENDROOT
BRANCH  18  22
ATOM     22  O   UNL     1      32.675 -11.021 -24.065  0.00  0.00    -0.505 OA
ATOM     23  H   UNL     1      32.758 -11.541 -24.840  0.00  0.00    +0.292 HD
ENDBRANCH  18  22
TORSDOF 1
ENDMDL
MODEL 8
REMARK VINA RESULT:      -9.6      1.786      4.495
REMARK  Name = 6323454
REMARK  1 active torsions:
REMARK  status: ('A' for Active; 'I' for Inactive)
REMARK    1  A    between atoms: C_18  and  O_22
REMARK                            x       y       z     vdW  Elec       q    Type
REMARK                         _______ _______ _______ _____ _____    ______ ____
ROOT
ATOM      1  O   UNL     1      33.080 -24.132 -13.060  0.00  0.00    -0.350 OA
ATOM      2  O   UNL     1      30.718 -24.407 -15.665  0.00  0.00    -0.445 OA
ATOM      3  O   UNL     1      31.665 -22.706 -17.665  0.00  0.00    -0.287 OA
ATOM      4  O   UNL     1      28.993 -25.739 -14.912  0.00  0.00    -0.250 OA
ATOM      5  O   UNL     1      36.418 -22.614 -15.252  0.00  0.00    -0.287 OA
ATOM      6  C   UNL     1      32.201 -24.760 -13.968  0.00  0.00    +0.171 C 
ATOM      7  C   UNL     1      31.764 -23.730 -14.978  0.00  0.00    +0.221 C 
ATOM      8  C   UNL     1      32.958 -23.290 -15.768  0.00  0.00    +0.060 C 
ATOM      9  C   UNL     1      34.331 -23.777 -13.709  0.00  0.00    +0.141 C 
ATOM     10  C   UNL     1      34.158 -23.293 -15.155  0.00  0.00    +0.046 C 
ATOM     11  C   UNL     1      30.857 -25.198 -13.440  0.00  0.00    +0.143 C 
ATOM     12  C   UNL     1      30.059 -25.174 -14.724  0.00  0.00    +0.320 C 
ATOM     13  C   UNL     1      32.774 -22.791 -17.152  0.00  0.00    +0.195 C 
ATOM     14  C   UNL     1      35.360 -22.755 -15.854  0.00  0.00    +0.197 C 
ATOM     15  C   UNL     1      35.269 -24.983 -13.591  0.00  0.00    +0.037 C 
ATOM     16  C   UNL     1      33.981 -22.394 -17.900  0.00  0.00    +0.045 C 
ATOM     17  C   UNL     1      35.226 -22.377 -17.273  0.00  0.00    +0.075 C 
ATOM     18  C   UNL     1      36.362 -21.987 -17.993  0.00  0.00    +0.137 C 
ATOM     19  C   UNL     1      33.868 -22.020 -19.244  0.00  0.00    +0.003 C 
ATOM     20  C   UNL     1      36.248 -21.617 -19.334  0.00  0.00    +0.037 C 
ATOM     21  C   UNL     1      35.003 -21.634 -19.958  0.00  0.00    +0.003 C 
ENDROOT
BRANCH  18  22
ATOM     22  O   UNL     1      37.610 -21.955 -17.444  0.00  0.00    -0.505 OA
ATOM     23  H   UNL     1      38.136 -22.730 -17.432  0.00  0.00    +0.292 HD
ENDBRANCH  18  22
TORSDOF 1
ENDMDL
MODEL 9
REMARK VINA RESULT:      -9.2     11.362     14.313
REMARK  Name = 6323454
REMARK  1 active torsions:
REMARK  status: ('A' for Active; 'I' for Inactive)
REMARK    1  A    between atoms: C_18  and  O_22
REMARK                            x       y       z     vdW  Elec       q    Type
REMARK                         _______ _______ _______ _____ _____    ______ ____
ROOT
ATOM      1  O   UNL     1      31.679 -13.518 -21.643  0.00  0.00    -0.350 OA
ATOM      2  O   UNL     1      34.519 -13.745 -23.723  0.00  0.00    -0.445 OA
ATOM      3  O   UNL     1      34.629 -11.289 -25.045  0.00  0.00    -0.287 OA
ATOM      4  O   UNL     1      35.349 -15.889 -23.548  0.00  0.00    -0.250 OA
ATOM      5  O   UNL     1      31.244  -9.273 -21.454  0.00  0.00    -0.287 OA
ATOM      6  C   UNL     1      33.008 -13.813 -22.015  0.00  0.00    +0.171 C 
ATOM      7  C   UNL     1      33.265 -13.180 -23.359  0.00  0.00    +0.221 C 
ATOM      8  C   UNL     1      33.176 -11.691 -23.218  0.00  0.00    +0.060 C 
ATOM      9  C   UNL     1      31.520 -12.102 -21.360  0.00  0.00    +0.141 C 
ATOM     10  C   UNL     1      32.334 -11.193 -22.291  0.00  0.00    +0.046 C 
ATOM     11  C   UNL     1      33.336 -15.250 -22.334  0.00  0.00    +0.143 C 
ATOM     12  C   UNL     1      34.518 -15.044 -23.254  0.00  0.00    +0.320 C 
ATOM     13  C   UNL     1      33.940 -10.823 -24.146  0.00  0.00    +0.195 C 
ATOM     14  C   UNL     1      32.117  -9.722 -22.187  0.00  0.00    +0.197 C 
ATOM     15  C   UNL     1      31.851 -11.888 -19.879  0.00  0.00    +0.037 C 
ATOM     16  C   UNL     1      33.841  -9.365 -23.953  0.00  0.00    +0.045 C 
ATOM     17  C   UNL     1      32.963  -8.836 -23.008  0.00  0.00    +0.075 C 
ATOM     18  C   UNL     1      32.872  -7.448 -22.843  0.00  0.00    +0.137 C 
ATOM     19  C   UNL     1      34.628  -8.511 -24.734  0.00  0.00    +0.003 C 
ATOM     20  C   UNL     1      33.659  -6.598 -23.621  0.00  0.00    +0.037 C 
ATOM     21  C   UNL     1      34.535  -7.129 -24.565  0.00  0.00    +0.003 C 
ENDROOT
BRANCH  18  22
ATOM     22  O   UNL     1      32.040  -6.865 -21.934  0.00  0.00    -0.505 OA
ATOM     23  H   UNL     1      32.071  -5.938 -21.798  0.00  0.00    +0.292 HD
ENDBRANCH  18  22
TORSDOF 1
ENDMDL
