MODEL 1
REMARK VINA RESULT:      -9.3      0.000      0.000
REMARK  Name = 5288991
REMARK  9 active torsions:
REMARK  status: ('A' for Active; 'I' for Inactive)
REMARK    1  A    between atoms: C_2  and  O_16
REMARK    2  A    between atoms: C_3  and  O_18
REMARK    3  A    between atoms: C_4  and  C_20
REMARK    4  A    between atoms: C_5  and  N_6
REMARK    5  A    between atoms: C_9  and  C_13
REMARK    6  A    between atoms: C_13  and  O_14
REMARK    7  A    between atoms: C_20  and  O_21
REMARK    8  A    between atoms: O_21  and  P_22
REMARK    9  A    between atoms: P_22  and  O_25
REMARK                            x       y       z     vdW  Elec       q    Type
REMARK                         _______ _______ _______ _____ _____    ______ ____
ROOT
ATOM      1  O   UNL     1      36.684 -23.339 -14.054  0.00  0.00    -0.333 OA
ATOM      2  C   UNL     1      37.056 -24.945 -12.339  0.00  0.00    +0.171 C 
ATOM      3  C   UNL     1      35.578 -24.913 -12.673  0.00  0.00    +0.187 C 
ATOM      4  C   UNL     1      37.678 -24.259 -13.552  0.00  0.00    +0.176 C 
ATOM      5  C   UNL     1      35.450 -23.559 -13.347  0.00  0.00    +0.223 C 
ENDROOT
BRANCH   5   6
ATOM      6  N   UNL     1      34.272 -23.536 -14.251  0.00  0.00    -0.279 N 
ATOM      7  C   UNL     1      34.445 -23.223 -15.548  0.00  0.00    +0.126 C 
ATOM      8  C   UNL     1      33.057 -23.830 -13.754  0.00  0.00    +0.063 C 
ATOM      9  C   UNL     1      33.363 -23.195 -16.416  0.00  0.00    +0.073 C 
ATOM     10  C   UNL     1      31.939 -23.817 -14.576  0.00  0.00    +0.016 C 
ATOM     11  C   UNL     1      32.098 -23.496 -15.920  0.00  0.00    +0.005 C 
BRANCH   9  13
ATOM     12  O   UNL     1      32.656 -22.509 -18.596  0.00  0.00    -0.245 OA
ATOM     13  C   UNL     1      33.549 -22.858 -17.818  0.00  0.00    +0.336 C 
BRANCH  13  14
ATOM     14  O   UNL     1      34.849 -22.963 -18.211  0.00  0.00    -0.477 OA
ATOM     15  H   UNL     1      35.373 -23.680 -17.912  0.00  0.00    +0.295 HD
ENDBRANCH  13  14
ENDBRANCH   9  13
ENDBRANCH   5   6
BRANCH   2  16
ATOM     16  O   UNL     1      37.300 -24.143 -11.183  0.00  0.00    -0.379 OA
ATOM     17  H   UNL     1      37.988 -23.489 -11.383  0.00  0.00    +0.211 HD
ENDBRANCH   2  16
BRANCH   3  18
ATOM     18  O   UNL     1      34.751 -25.017 -11.533  0.00  0.00    -0.378 OA
ATOM     19  H   UNL     1      34.057 -24.341 -11.574  0.00  0.00    +0.211 HD
ENDBRANCH   3  18
BRANCH   4  20
ATOM     20  C   UNL     1      38.037 -25.234 -14.665  0.00  0.00    +0.186 C 
BRANCH  20  21
ATOM     21  O   UNL     1      39.018 -26.134 -14.182  0.00  0.00    -0.269 OA
BRANCH  21  22
ATOM     22  P   UNL     1      40.592 -25.879 -14.544  0.00  0.00    +0.503 P 
ATOM     23  O   UNL     1      41.393 -27.068 -14.059  0.00  0.00    -0.116 OA
ATOM     24  O   UNL     1      40.988 -24.474 -14.146  0.00  0.00    -0.225 OA
BRANCH  22  25
ATOM     25  O   UNL     1      40.510 -25.954 -16.175  0.00  0.00    -0.301 OA
ATOM     26  H   UNL     1      39.692 -26.405 -16.437  0.00  0.00    +0.222 HD
ENDBRANCH  22  25
ENDBRANCH  21  22
ENDBRANCH  20  21
ENDBRANCH   4  20
TORSDOF 9
ENDMDL
MODEL 2
REMARK VINA RESULT:      -9.2      4.959      7.323
REMARK  Name = 5288991
REMARK  9 active torsions:
REMARK  status: ('A' for Active; 'I' for Inactive)
REMARK    1  A    between atoms: C_2  and  O_16
REMARK    2  A    between atoms: C_3  and  O_18
REMARK    3  A    between atoms: C_4  and  C_20
REMARK    4  A    between atoms: C_5  and  N_6
REMARK    5  A    between atoms: C_9  and  C_13
REMARK    6  A    between atoms: C_13  and  O_14
REMARK    7  A    between atoms: C_20  and  O_21
REMARK    8  A    between atoms: O_21  and  P_22
REMARK    9  A    between atoms: P_22  and  O_25
REMARK                            x       y       z     vdW  Elec       q    Type
REMARK                         _______ _______ _______ _____ _____    ______ ____
ROOT
ATOM      1  O   UNL     1      31.826 -25.462 -14.814  0.00  0.00    -0.333 OA
ATOM      2  C   UNL     1      30.294 -24.197 -13.505  0.00  0.00    +0.171 C 
ATOM      3  C   UNL     1      31.535 -23.364 -13.755  0.00  0.00    +0.187 C 
ATOM      4  C   UNL     1      30.412 -25.284 -14.569  0.00  0.00    +0.176 C 
ATOM      5  C   UNL     1      32.550 -24.434 -14.114  0.00  0.00    +0.223 C 
ENDROOT
BRANCH   5   6
ATOM      6  N   UNL     1      33.646 -23.860 -14.935  0.00  0.00    -0.279 N 
ATOM      7  C   UNL     1      33.403 -23.531 -16.217  0.00  0.00    +0.126 C 
ATOM      8  C   UNL     1      34.857 -23.677 -14.380  0.00  0.00    +0.063 C 
ATOM      9  C   UNL     1      34.408 -22.991 -17.008  0.00  0.00    +0.073 C 
ATOM     10  C   UNL     1      35.899 -23.142 -15.123  0.00  0.00    +0.016 C 
ATOM     11  C   UNL     1      35.668 -22.796 -16.450  0.00  0.00    +0.005 C 
BRANCH   9  13
ATOM     12  O   UNL     1      34.994 -22.579 -19.290  0.00  0.00    -0.245 OA
ATOM     13  C   UNL     1      34.146 -22.636 -18.393  0.00  0.00    +0.336 C 
BRANCH  13  14
ATOM     14  O   UNL     1      32.832 -22.364 -18.623  0.00  0.00    -0.477 OA
ATOM     15  H   UNL     1      32.337 -22.903 -19.208  0.00  0.00    +0.295 HD
ENDBRANCH  13  14
ENDBRANCH   9  13
ENDBRANCH   5   6
BRANCH   2  16
ATOM     16  O   UNL     1      30.380 -24.806 -12.216  0.00  0.00    -0.379 OA
ATOM     17  H   UNL     1      30.929 -25.603 -12.272  0.00  0.00    +0.211 HD
ENDBRANCH   2  16
BRANCH   3  18
ATOM     18  O   UNL     1      31.934 -22.614 -12.626  0.00  0.00    -0.378 OA
ATOM     19  H   UNL     1      32.814 -22.236 -12.784  0.00  0.00    +0.211 HD
ENDBRANCH   3  18
BRANCH   4  20
ATOM     20  C   UNL     1      29.741 -24.904 -15.883  0.00  0.00    +0.186 C 
BRANCH  20  21
ATOM     21  O   UNL     1      28.585 -24.138 -15.597  0.00  0.00    -0.269 OA
BRANCH  21  22
ATOM     22  P   UNL     1      28.152 -22.928 -16.608  0.00  0.00    +0.503 P 
ATOM     23  O   UNL     1      27.488 -21.839 -15.795  0.00  0.00    -0.116 OA
ATOM     24  O   UNL     1      27.463 -23.502 -17.828  0.00  0.00    -0.225 OA
BRANCH  22  25
ATOM     25  O   UNL     1      29.635 -22.399 -17.049  0.00  0.00    -0.301 OA
ATOM     26  H   UNL     1      29.735 -22.483 -18.011  0.00  0.00    +0.222 HD
ENDBRANCH  22  25
ENDBRANCH  21  22
ENDBRANCH  20  21
ENDBRANCH   4  20
TORSDOF 9
ENDMDL
MODEL 3
REMARK VINA RESULT:      -9.2      1.540      2.183
REMARK  Name = 5288991
REMARK  9 active torsions:
REMARK  status: ('A' for Active; 'I' for Inactive)
REMARK    1  A    between atoms: C_2  and  O_16
REMARK    2  A    between atoms: C_3  and  O_18
REMARK    3  A    between atoms: C_4  and  C_20
REMARK    4  A    between atoms: C_5  and  N_6
REMARK    5  A    between atoms: C_9  and  C_13
REMARK    6  A    between atoms: C_13  and  O_14
REMARK    7  A    between atoms: C_20  and  O_21
REMARK    8  A    between atoms: O_21  and  P_22
REMARK    9  A    between atoms: P_22  and  O_25
REMARK                            x       y       z     vdW  Elec       q    Type
REMARK                         _______ _______ _______ _____ _____    ______ ____
ROOT
ATOM      1  O   UNL     1      37.990 -23.598 -13.260  0.00  0.00    -0.333 OA
ATOM      2  C   UNL     1      36.569 -24.744 -11.736  0.00  0.00    +0.171 C 
ATOM      3  C   UNL     1      35.731 -24.193 -12.872  0.00  0.00    +0.187 C 
ATOM      4  C   UNL     1      37.978 -24.692 -12.316  0.00  0.00    +0.176 C 
ATOM      5  C   UNL     1      36.644 -23.114 -13.425  0.00  0.00    +0.223 C 
ENDROOT
BRANCH   5   6
ATOM      6  N   UNL     1      36.318 -22.832 -14.846  0.00  0.00    -0.279 N 
ATOM      7  C   UNL     1      35.114 -23.192 -15.327  0.00  0.00    +0.126 C 
ATOM      8  C   UNL     1      37.232 -22.222 -15.621  0.00  0.00    +0.063 C 
ATOM      9  C   UNL     1      34.781 -22.939 -16.651  0.00  0.00    +0.073 C 
ATOM     10  C   UNL     1      36.954 -21.945 -16.952  0.00  0.00    +0.016 C 
ATOM     11  C   UNL     1      35.714 -22.309 -17.468  0.00  0.00    +0.005 C 
BRANCH   9  13
ATOM     12  O   UNL     1      32.405 -23.210 -16.573  0.00  0.00    -0.245 OA
ATOM     13  C   UNL     1      33.480 -23.327 -17.171  0.00  0.00    +0.336 C 
BRANCH  13  14
ATOM     14  O   UNL     1      33.555 -23.850 -18.426  0.00  0.00    -0.477 OA
ATOM     15  H   UNL     1      34.362 -23.814 -18.902  0.00  0.00    +0.295 HD
ENDBRANCH  13  14
ENDBRANCH   9  13
ENDBRANCH   5   6
BRANCH   2  16
ATOM     16  O   UNL     1      36.499 -23.856 -10.618  0.00  0.00    -0.379 OA
ATOM     17  H   UNL     1      35.584 -23.558 -10.500  0.00  0.00    +0.211 HD
ENDBRANCH   2  16
BRANCH   3  18
ATOM     18  O   UNL     1      34.492 -23.667 -12.442  0.00  0.00    -0.378 OA
ATOM     19  H   UNL     1      33.911 -23.542 -13.208  0.00  0.00    +0.211 HD
ENDBRANCH   3  18
BRANCH   4  20
ATOM     20  C   UNL     1      38.365 -25.968 -13.052  0.00  0.00    +0.186 C 
BRANCH  20  21
ATOM     21  O   UNL     1      38.847 -25.621 -14.338  0.00  0.00    -0.269 OA
BRANCH  21  22
ATOM     22  P   UNL     1      40.456 -25.654 -14.629  0.00  0.00    +0.503 P 
ATOM     23  O   UNL     1      41.035 -26.889 -13.974  0.00  0.00    -0.116 OA
ATOM     24  O   UNL     1      41.054 -24.291 -14.356  0.00  0.00    -0.225 OA
BRANCH  22  25
ATOM     25  O   UNL     1      40.434 -25.900 -16.245  0.00  0.00    -0.301 OA
ATOM     26  H   UNL     1      41.233 -26.381 -16.509  0.00  0.00    +0.222 HD
ENDBRANCH  22  25
ENDBRANCH  21  22
ENDBRANCH  20  21
ENDBRANCH   4  20
TORSDOF 9
ENDMDL
MODEL 4
REMARK VINA RESULT:      -9.1      1.514      2.372
REMARK  Name = 5288991
REMARK  9 active torsions:
REMARK  status: ('A' for Active; 'I' for Inactive)
REMARK    1  A    between atoms: C_2  and  O_16
REMARK    2  A    between atoms: C_3  and  O_18
REMARK    3  A    between atoms: C_4  and  C_20
REMARK    4  A    between atoms: C_5  and  N_6
REMARK    5  A    between atoms: C_9  and  C_13
REMARK    6  A    between atoms: C_13  and  O_14
REMARK    7  A    between atoms: C_20  and  O_21
REMARK    8  A    between atoms: O_21  and  P_22
REMARK    9  A    between atoms: P_22  and  O_25
REMARK                            x       y       z     vdW  Elec       q    Type
REMARK                         _______ _______ _______ _____ _____    ______ ____
ROOT
ATOM      1  O   UNL     1      36.685 -23.350 -14.038  0.00  0.00    -0.333 OA
ATOM      2  C   UNL     1      37.064 -24.964 -12.332  0.00  0.00    +0.171 C 
ATOM      3  C   UNL     1      35.588 -24.949 -12.677  0.00  0.00    +0.187 C 
ATOM      4  C   UNL     1      37.687 -24.262 -13.535  0.00  0.00    +0.176 C 
ATOM      5  C   UNL     1      35.448 -23.591 -13.341  0.00  0.00    +0.223 C 
ENDROOT
BRANCH   5   6
ATOM      6  N   UNL     1      34.276 -23.575 -14.254  0.00  0.00    -0.279 N 
ATOM      7  C   UNL     1      33.053 -23.837 -13.758  0.00  0.00    +0.126 C 
ATOM      8  C   UNL     1      34.462 -23.298 -15.557  0.00  0.00    +0.063 C 
ATOM      9  C   UNL     1      31.940 -23.828 -14.587  0.00  0.00    +0.073 C 
ATOM     10  C   UNL     1      33.386 -23.276 -16.432  0.00  0.00    +0.016 C 
ATOM     11  C   UNL     1      32.114 -23.544 -15.938  0.00  0.00    +0.005 C 
BRANCH   9  13
ATOM     12  O   UNL     1      29.548 -23.848 -14.609  0.00  0.00    -0.245 OA
ATOM     13  C   UNL     1      30.619 -24.111 -14.051  0.00  0.00    +0.336 C 
BRANCH  13  14
ATOM     14  O   UNL     1      30.669 -24.717 -12.833  0.00  0.00    -0.477 OA
ATOM     15  H   UNL     1      30.783 -24.202 -12.058  0.00  0.00    +0.295 HD
ENDBRANCH  13  14
ENDBRANCH   9  13
ENDBRANCH   5   6
BRANCH   2  16
ATOM     16  O   UNL     1      37.290 -24.168 -11.168  0.00  0.00    -0.379 OA
ATOM     17  H   UNL     1      36.773 -24.525 -10.428  0.00  0.00    +0.211 HD
ENDBRANCH   2  16
BRANCH   3  18
ATOM     18  O   UNL     1      34.754 -25.071 -11.544  0.00  0.00    -0.378 OA
ATOM     19  H   UNL     1      34.417 -25.979 -11.487  0.00  0.00    +0.211 HD
ENDBRANCH   3  18
BRANCH   4  20
ATOM     20  C   UNL     1      38.066 -25.223 -14.653  0.00  0.00    +0.186 C 
BRANCH  20  21
ATOM     21  O   UNL     1      39.024 -26.140 -14.158  0.00  0.00    -0.269 OA
BRANCH  21  22
ATOM     22  P   UNL     1      40.606 -25.920 -14.512  0.00  0.00    +0.503 P 
ATOM     23  O   UNL     1      41.377 -27.129 -14.028  0.00  0.00    -0.116 OA
ATOM     24  O   UNL     1      41.033 -24.526 -14.107  0.00  0.00    -0.225 OA
BRANCH  22  25
ATOM     25  O   UNL     1      40.529 -25.988 -16.144  0.00  0.00    -0.301 OA
ATOM     26  H   UNL     1      41.343 -25.617 -16.521  0.00  0.00    +0.222 HD
ENDBRANCH  22  25
ENDBRANCH  21  22
ENDBRANCH  20  21
ENDBRANCH   4  20
TORSDOF 9
ENDMDL
MODEL 5
REMARK VINA RESULT:      -9.1      3.990      7.620
REMARK  Name = 5288991
REMARK  9 active torsions:
REMARK  status: ('A' for Active; 'I' for Inactive)
REMARK    1  A    between atoms: C_2  and  O_16
REMARK    2  A    between atoms: C_3  and  O_18
REMARK    3  A    between atoms: C_4  and  C_20
REMARK    4  A    between atoms: C_5  and  N_6
REMARK    5  A    between atoms: C_9  and  C_13
REMARK    6  A    between atoms: C_13  and  O_14
REMARK    7  A    between atoms: C_20  and  O_21
REMARK    8  A    between atoms: O_21  and  P_22
REMARK    9  A    between atoms: P_22  and  O_25
REMARK                            x       y       z     vdW  Elec       q    Type
REMARK                         _______ _______ _______ _____ _____    ______ ____
ROOT
ATOM      1  O   UNL     1      31.880 -25.535 -14.567  0.00  0.00    -0.333 OA
ATOM      2  C   UNL     1      30.431 -24.010 -13.456  0.00  0.00    +0.171 C 
ATOM      3  C   UNL     1      31.805 -23.384 -13.578  0.00  0.00    +0.187 C 
ATOM      4  C   UNL     1      30.493 -25.136 -14.484  0.00  0.00    +0.176 C 
ATOM      5  C   UNL     1      32.675 -24.607 -13.806  0.00  0.00    +0.223 C 
ENDROOT
BRANCH   5   6
ATOM      6  N   UNL     1      33.928 -24.232 -14.508  0.00  0.00    -0.279 N 
ATOM      7  C   UNL     1      35.035 -24.974 -14.320  0.00  0.00    +0.126 C 
ATOM      8  C   UNL     1      33.931 -23.159 -15.320  0.00  0.00    +0.063 C 
ATOM      9  C   UNL     1      36.220 -24.648 -14.965  0.00  0.00    +0.073 C 
ATOM     10  C   UNL     1      35.087 -22.786 -15.990  0.00  0.00    +0.016 C 
ATOM     11  C   UNL     1      36.241 -23.541 -15.808  0.00  0.00    +0.005 C 
BRANCH   9  13
ATOM     12  O   UNL     1      38.233 -25.298 -13.848  0.00  0.00    -0.245 OA
ATOM     13  C   UNL     1      37.415 -25.450 -14.762  0.00  0.00    +0.336 C 
BRANCH  13  14
ATOM     14  O   UNL     1      37.557 -26.422 -15.705  0.00  0.00    -0.477 OA
ATOM     15  H   UNL     1      37.704 -26.188 -16.601  0.00  0.00    +0.295 HD
ENDBRANCH  13  14
ENDBRANCH   9  13
ENDBRANCH   5   6
BRANCH   2  16
ATOM     16  O   UNL     1      30.282 -24.583 -12.156  0.00  0.00    -0.379 OA
ATOM     17  H   UNL     1      30.974 -24.238 -11.570  0.00  0.00    +0.211 HD
ENDBRANCH   2  16
BRANCH   3  18
ATOM     18  O   UNL     1      32.191 -22.668 -12.423  0.00  0.00    -0.378 OA
ATOM     19  H   UNL     1      31.632 -21.881 -12.328  0.00  0.00    +0.211 HD
ENDBRANCH   3  18
BRANCH   4  20
ATOM     20  C   UNL     1      30.034 -24.701 -15.869  0.00  0.00    +0.186 C 
BRANCH  20  21
ATOM     21  O   UNL     1      28.694 -24.252 -15.782  0.00  0.00    -0.269 OA
BRANCH  21  22
ATOM     22  P   UNL     1      28.234 -22.928 -16.625  0.00  0.00    +0.503 P 
ATOM     23  O   UNL     1      27.664 -21.917 -15.654  0.00  0.00    -0.116 OA
ATOM     24  O   UNL     1      27.444 -23.347 -17.846  0.00  0.00    -0.225 OA
BRANCH  22  25
ATOM     25  O   UNL     1      29.700 -22.393 -17.112  0.00  0.00    -0.301 OA
ATOM     26  H   UNL     1      29.681 -21.426 -17.191  0.00  0.00    +0.222 HD
ENDBRANCH  22  25
ENDBRANCH  21  22
ENDBRANCH  20  21
ENDBRANCH   4  20
TORSDOF 9
ENDMDL
MODEL 6
REMARK VINA RESULT:      -9.0      2.553      4.228
REMARK  Name = 5288991
REMARK  9 active torsions:
REMARK  status: ('A' for Active; 'I' for Inactive)
REMARK    1  A    between atoms: C_2  and  O_16
REMARK    2  A    between atoms: C_3  and  O_18
REMARK    3  A    between atoms: C_4  and  C_20
REMARK    4  A    between atoms: C_5  and  N_6
REMARK    5  A    between atoms: C_9  and  C_13
REMARK    6  A    between atoms: C_13  and  O_14
REMARK    7  A    between atoms: C_20  and  O_21
REMARK    8  A    between atoms: O_21  and  P_22
REMARK    9  A    between atoms: P_22  and  O_25
REMARK                            x       y       z     vdW  Elec       q    Type
REMARK                         _______ _______ _______ _____ _____    ______ ____
ROOT
ATOM      1  O   UNL     1      35.982 -25.253 -15.473  0.00  0.00    -0.333 OA
ATOM      2  C   UNL     1      37.688 -23.832 -14.618  0.00  0.00    +0.171 C 
ATOM      3  C   UNL     1      36.530 -22.980 -15.097  0.00  0.00    +0.187 C 
ATOM      4  C   UNL     1      37.048 -25.212 -14.498  0.00  0.00    +0.176 C 
ATOM      5  C   UNL     1      35.817 -23.937 -16.034  0.00  0.00    +0.223 C 
ENDROOT
BRANCH   5   6
ATOM      6  N   UNL     1      34.388 -23.561 -16.176  0.00  0.00    -0.279 N 
ATOM      7  C   UNL     1      33.604 -23.535 -15.082  0.00  0.00    +0.126 C 
ATOM      8  C   UNL     1      33.907 -23.254 -17.393  0.00  0.00    +0.063 C 
ATOM      9  C   UNL     1      32.264 -23.186 -15.184  0.00  0.00    +0.073 C 
ATOM     10  C   UNL     1      32.575 -22.898 -17.556  0.00  0.00    +0.016 C 
ATOM     11  C   UNL     1      31.749 -22.864 -16.437  0.00  0.00    +0.005 C 
BRANCH   9  13
ATOM     12  O   UNL     1      30.183 -23.209 -14.006  0.00  0.00    -0.245 OA
ATOM     13  C   UNL     1      31.417 -23.157 -14.004  0.00  0.00    +0.336 C 
BRANCH  13  14
ATOM     14  O   UNL     1      32.134 -23.065 -12.850  0.00  0.00    -0.477 OA
ATOM     15  H   UNL     1      32.950 -22.604 -12.840  0.00  0.00    +0.295 HD
ENDBRANCH  13  14
ENDBRANCH   9  13
ENDBRANCH   5   6
BRANCH   2  16
ATOM     16  O   UNL     1      38.695 -23.880 -15.630  0.00  0.00    -0.379 OA
ATOM     17  H   UNL     1      38.746 -24.778 -15.992  0.00  0.00    +0.211 HD
ENDBRANCH   2  16
BRANCH   3  18
ATOM     18  O   UNL     1      36.946 -21.803 -15.759  0.00  0.00    -0.378 OA
ATOM     19  H   UNL     1      37.714 -21.429 -15.301  0.00  0.00    +0.211 HD
ENDBRANCH   3  18
BRANCH   4  20
ATOM     20  C   UNL     1      36.451 -25.472 -13.121  0.00  0.00    +0.186 C 
BRANCH  20  21
ATOM     21  O   UNL     1      37.203 -24.757 -12.158  0.00  0.00    -0.269 OA
BRANCH  21  22
ATOM     22  P   UNL     1      36.458 -23.644 -11.220  0.00  0.00    +0.503 P 
ATOM     23  O   UNL     1      37.162 -22.317 -11.400  0.00  0.00    -0.116 OA
ATOM     24  O   UNL     1      36.234 -24.210  -9.834  0.00  0.00    -0.225 OA
BRANCH  22  25
ATOM     25  O   UNL     1      35.017 -23.563 -11.988  0.00  0.00    -0.301 OA
ATOM     26  H   UNL     1      34.854 -22.650 -12.272  0.00  0.00    +0.222 HD
ENDBRANCH  22  25
ENDBRANCH  21  22
ENDBRANCH  20  21
ENDBRANCH   4  20
TORSDOF 9
ENDMDL
MODEL 7
REMARK VINA RESULT:      -8.5      2.444      6.412
REMARK  Name = 5288991
REMARK  9 active torsions:
REMARK  status: ('A' for Active; 'I' for Inactive)
REMARK    1  A    between atoms: C_2  and  O_16
REMARK    2  A    between atoms: C_3  and  O_18
REMARK    3  A    between atoms: C_4  and  C_20
REMARK    4  A    between atoms: C_5  and  N_6
REMARK    5  A    between atoms: C_9  and  C_13
REMARK    6  A    between atoms: C_13  and  O_14
REMARK    7  A    between atoms: C_20  and  O_21
REMARK    8  A    between atoms: O_21  and  P_22
REMARK    9  A    between atoms: P_22  and  O_25
REMARK                            x       y       z     vdW  Elec       q    Type
REMARK                         _______ _______ _______ _____ _____    ______ ____
ROOT
ATOM      1  O   UNL     1      35.360 -24.947 -15.534  0.00  0.00    -0.333 OA
ATOM      2  C   UNL     1      33.429 -24.273 -14.318  0.00  0.00    +0.171 C 
ATOM      3  C   UNL     1      34.607 -24.352 -13.369  0.00  0.00    +0.187 C 
ATOM      4  C   UNL     1      34.112 -24.231 -15.682  0.00  0.00    +0.176 C 
ATOM      5  C   UNL     1      35.557 -25.250 -14.140  0.00  0.00    +0.223 C 
ENDROOT
BRANCH   5   6
ATOM      6  N   UNL     1      36.959 -25.019 -13.708  0.00  0.00    -0.279 N 
ATOM      7  C   UNL     1      37.960 -25.622 -14.375  0.00  0.00    +0.126 C 
ATOM      8  C   UNL     1      37.199 -24.210 -12.661  0.00  0.00    +0.063 C 
ATOM      9  C   UNL     1      39.280 -25.423 -13.995  0.00  0.00    +0.073 C 
ATOM     10  C   UNL     1      38.499 -23.975 -12.235  0.00  0.00    +0.016 C 
ATOM     11  C   UNL     1      39.547 -24.590 -12.912  0.00  0.00    +0.005 C 
BRANCH   9  13
ATOM     12  O   UNL     1      41.252 -26.761 -14.203  0.00  0.00    -0.245 OA
ATOM     13  C   UNL     1      40.361 -26.074 -14.715  0.00  0.00    +0.336 C 
BRANCH  13  14
ATOM     14  O   UNL     1      40.302 -25.852 -16.057  0.00  0.00    -0.477 OA
ATOM     15  H   UNL     1      39.493 -25.966 -16.516  0.00  0.00    +0.295 HD
ENDBRANCH  13  14
ENDBRANCH   9  13
ENDBRANCH   5   6
BRANCH   2  16
ATOM     16  O   UNL     1      32.660 -25.474 -14.226  0.00  0.00    -0.379 OA
ATOM     17  H   UNL     1      31.781 -25.267 -13.872  0.00  0.00    +0.211 HD
ENDBRANCH   2  16
BRANCH   3  18
ATOM     18  O   UNL     1      34.268 -24.900 -12.111  0.00  0.00    -0.378 OA
ATOM     19  H   UNL     1      35.065 -25.249 -11.684  0.00  0.00    +0.211 HD
ENDBRANCH   3  18
BRANCH   4  20
ATOM     20  C   UNL     1      34.423 -22.815 -16.147  0.00  0.00    +0.186 C 
BRANCH  20  21
ATOM     21  O   UNL     1      34.917 -22.871 -17.472  0.00  0.00    -0.269 OA
BRANCH  21  22
ATOM     22  P   UNL     1      33.878 -22.718 -18.726  0.00  0.00    +0.503 P 
ATOM     23  O   UNL     1      32.512 -22.372 -18.174  0.00  0.00    -0.116 OA
ATOM     24  O   UNL     1      34.047 -23.883 -19.677  0.00  0.00    -0.225 OA
BRANCH  22  25
ATOM     25  O   UNL     1      34.496 -21.378 -19.429  0.00  0.00    -0.301 OA
ATOM     26  H   UNL     1      34.456 -20.638 -18.803  0.00  0.00    +0.222 HD
ENDBRANCH  22  25
ENDBRANCH  21  22
ENDBRANCH  20  21
ENDBRANCH   4  20
TORSDOF 9
ENDMDL
MODEL 8
REMARK VINA RESULT:      -8.4      8.331     12.335
REMARK  Name = 5288991
REMARK  9 active torsions:
REMARK  status: ('A' for Active; 'I' for Inactive)
REMARK    1  A    between atoms: C_2  and  O_16
REMARK    2  A    between atoms: C_3  and  O_18
REMARK    3  A    between atoms: C_4  and  C_20
REMARK    4  A    between atoms: C_5  and  N_6
REMARK    5  A    between atoms: C_9  and  C_13
REMARK    6  A    between atoms: C_13  and  O_14
REMARK    7  A    between atoms: C_20  and  O_21
REMARK    8  A    between atoms: O_21  and  P_22
REMARK    9  A    between atoms: P_22  and  O_25
REMARK                            x       y       z     vdW  Elec       q    Type
REMARK                         _______ _______ _______ _____ _____    ______ ____
ROOT
ATOM      1  O   UNL     1      35.727 -16.701 -22.624  0.00  0.00    -0.333 OA
ATOM      2  C   UNL     1      34.367 -16.901 -24.566  0.00  0.00    +0.171 C 
ATOM      3  C   UNL     1      34.461 -18.253 -23.888  0.00  0.00    +0.187 C 
ATOM      4  C   UNL     1      34.817 -15.951 -23.460  0.00  0.00    +0.176 C 
ATOM      5  C   UNL     1      35.707 -18.080 -23.039  0.00  0.00    +0.223 C 
ENDROOT
BRANCH   5   6
ATOM      6  N   UNL     1      35.686 -19.014 -21.885  0.00  0.00    -0.279 N 
ATOM      7  C   UNL     1      34.513 -19.539 -21.486  0.00  0.00    +0.126 C 
ATOM      8  C   UNL     1      36.840 -19.317 -21.264  0.00  0.00    +0.063 C 
ATOM      9  C   UNL     1      34.464 -20.416 -20.411  0.00  0.00    +0.073 C 
ATOM     10  C   UNL     1      36.851 -20.187 -20.184  0.00  0.00    +0.016 C 
ATOM     11  C   UNL     1      35.649 -20.741 -19.756  0.00  0.00    +0.005 C 
BRANCH   9  13
ATOM     12  O   UNL     1      33.009 -22.168 -19.680  0.00  0.00    -0.245 OA
ATOM     13  C   UNL     1      33.198 -20.984 -19.980  0.00  0.00    +0.336 C 
BRANCH  13  14
ATOM     14  O   UNL     1      32.201 -20.059 -19.931  0.00  0.00    -0.477 OA
ATOM     15  H   UNL     1      31.839 -19.718 -20.726  0.00  0.00    +0.295 HD
ENDBRANCH  13  14
ENDBRANCH   9  13
ENDBRANCH   5   6
BRANCH   2  16
ATOM     16  O   UNL     1      35.309 -16.839 -25.637  0.00  0.00    -0.379 OA
ATOM     17  H   UNL     1      35.977 -16.164 -25.440  0.00  0.00    +0.211 HD
ENDBRANCH   2  16
BRANCH   3  18
ATOM     18  O   UNL     1      34.589 -19.323 -24.802  0.00  0.00    -0.378 OA
ATOM     19  H   UNL     1      35.254 -19.099 -25.471  0.00  0.00    +0.211 HD
ENDBRANCH   3  18
BRANCH   4  20
ATOM     20  C   UNL     1      33.665 -15.458 -22.595  0.00  0.00    +0.186 C 
BRANCH  20  21
ATOM     21  O   UNL     1      33.805 -14.062 -22.406  0.00  0.00    -0.269 OA
BRANCH  21  22
ATOM     22  P   UNL     1      33.074 -13.032 -23.445  0.00  0.00    +0.503 P 
ATOM     23  O   UNL     1      32.173 -12.111 -22.652  0.00  0.00    -0.116 OA
ATOM     24  O   UNL     1      32.532 -13.800 -24.631  0.00  0.00    -0.225 OA
BRANCH  22  25
ATOM     25  O   UNL     1      34.375 -12.171 -23.934  0.00  0.00    -0.301 OA
ATOM     26  H   UNL     1      34.281 -11.251 -23.642  0.00  0.00    +0.222 HD
ENDBRANCH  22  25
ENDBRANCH  21  22
ENDBRANCH  20  21
ENDBRANCH   4  20
TORSDOF 9
ENDMDL
MODEL 9
REMARK VINA RESULT:      -8.2      9.718     13.709
REMARK  Name = 5288991
REMARK  9 active torsions:
REMARK  status: ('A' for Active; 'I' for Inactive)
REMARK    1  A    between atoms: C_2  and  O_16
REMARK    2  A    between atoms: C_3  and  O_18
REMARK    3  A    between atoms: C_4  and  C_20
REMARK    4  A    between atoms: C_5  and  N_6
REMARK    5  A    between atoms: C_9  and  C_13
REMARK    6  A    between atoms: C_13  and  O_14
REMARK    7  A    between atoms: C_20  and  O_21
REMARK    8  A    between atoms: O_21  and  P_22
REMARK    9  A    between atoms: P_22  and  O_25
REMARK                            x       y       z     vdW  Elec       q    Type
REMARK                         _______ _______ _______ _____ _____    ______ ____
ROOT
ATOM      1  O   UNL     1      34.442 -14.204 -23.882  0.00  0.00    -0.333 OA
ATOM      2  C   UNL     1      32.871 -13.577 -25.554  0.00  0.00    +0.171 C 
ATOM      3  C   UNL     1      33.096 -15.074 -25.626  0.00  0.00    +0.187 C 
ATOM      4  C   UNL     1      33.411 -13.232 -24.170  0.00  0.00    +0.176 C 
ATOM      5  C   UNL     1      34.427 -15.213 -24.908  0.00  0.00    +0.223 C 
ENDROOT
BRANCH   5   6
ATOM      6  N   UNL     1      34.579 -16.582 -24.353  0.00  0.00    -0.279 N 
ATOM      7  C   UNL     1      34.946 -16.732 -23.067  0.00  0.00    +0.126 C 
ATOM      8  C   UNL     1      34.345 -17.643 -25.146  0.00  0.00    +0.063 C 
ATOM      9  C   UNL     1      35.095 -18.000 -22.521  0.00  0.00    +0.073 C 
ATOM     10  C   UNL     1      34.478 -18.933 -24.654  0.00  0.00    +0.016 C 
ATOM     11  C   UNL     1      34.857 -19.109 -23.327  0.00  0.00    +0.005 C 
BRANCH   9  13
ATOM     12  O   UNL     1      35.909 -19.209 -20.624  0.00  0.00    -0.245 OA
ATOM     13  C   UNL     1      35.491 -18.162 -21.132  0.00  0.00    +0.336 C 
BRANCH  13  14
ATOM     14  O   UNL     1      35.358 -17.014 -20.413  0.00  0.00    -0.477 OA
ATOM     15  H   UNL     1      36.090 -16.437 -20.310  0.00  0.00    +0.295 HD
ENDBRANCH  13  14
ENDBRANCH   9  13
ENDBRANCH   5   6
BRANCH   2  16
ATOM     16  O   UNL     1      33.676 -12.926 -26.538  0.00  0.00    -0.379 OA
ATOM     17  H   UNL     1      34.454 -12.535 -26.110  0.00  0.00    +0.211 HD
ENDBRANCH   2  16
BRANCH   3  18
ATOM     18  O   UNL     1      33.157 -15.562 -26.950  0.00  0.00    -0.378 OA
ATOM     19  H   UNL     1      33.309 -14.824 -27.560  0.00  0.00    +0.211 HD
ENDBRANCH   3  18
BRANCH   4  20
ATOM     20  C   UNL     1      32.351 -13.318 -23.080  0.00  0.00    +0.186 C 
BRANCH  20  21
ATOM     21  O   UNL     1      32.530 -14.528 -22.368  0.00  0.00    -0.269 OA
BRANCH  21  22
ATOM     22  P   UNL     1      32.820 -14.478 -20.759  0.00  0.00    +0.503 P 
ATOM     23  O   UNL     1      32.423 -15.810 -20.160  0.00  0.00    -0.116 OA
ATOM     24  O   UNL     1      32.281 -13.188 -20.181  0.00  0.00    -0.225 OA
BRANCH  22  25
ATOM     25  O   UNL     1      34.452 -14.397 -20.779  0.00  0.00    -0.301 OA
ATOM     26  H   UNL     1      34.814 -15.014 -20.124  0.00  0.00    +0.222 HD
ENDBRANCH  22  25
ENDBRANCH  21  22
ENDBRANCH  20  21
ENDBRANCH   4  20
TORSDOF 9
ENDMDL
