MODEL 1
REMARK VINA RESULT:      -7.2      0.000      0.000
REMARK  Name = 25200582
REMARK  4 active torsions:
REMARK  status: ('A' for Active; 'I' for Inactive)
REMARK    1  A    between atoms: CA_1  and  C_2
REMARK    2  A    between atoms: CA_1  and  N_10
REMARK    3  A    between atoms: CA_1  and  C_16
REMARK    4  A    between atoms: C_7  and  O_8
REMARK                            x       y       z     vdW  Elec       q    Type
REMARK                         _______ _______ _______ _____ _____    ______ ____
ROOT
ATOM      1  CA  UNL     1      35.706 -18.097 -21.747  0.00  0.00    +0.064 C 
ENDROOT
BRANCH   1   2
ATOM      2  C   UNL     1      34.976 -19.200 -21.057  0.00  0.00    -0.032 C 
ATOM      3  C   UNL     1      33.582 -19.232 -21.074  0.00  0.00    -0.003 C 
ATOM      4  C   UNL     1      35.690 -20.200 -20.395  0.00  0.00    -0.003 C 
ATOM      5  C   UNL     1      32.900 -20.264 -20.428  0.00  0.00    +0.036 C 
ATOM      6  C   UNL     1      35.008 -21.231 -19.749  0.00  0.00    +0.036 C 
ATOM      7  C   UNL     1      33.613 -21.263 -19.766  0.00  0.00    +0.134 C 
BRANCH   7   8
ATOM      8  O   UNL     1      32.947 -22.270 -19.137  0.00  0.00    -0.506 OA
ATOM      9  H   UNL     1      32.017 -22.340 -19.220  0.00  0.00    +0.292 HD
ENDBRANCH   7   8
ENDBRANCH   1   2
BRANCH   1  10
ATOM     10  N   UNL     1      35.899 -18.343 -23.221  0.00  0.00    +0.391 N 
ATOM     11  H1  UNL     1      34.989 -18.443 -23.670  0.00  0.00    -0.088 HD
ATOM     12  H2  UNL     1      36.440 -19.198 -23.354  0.00  0.00    -0.088 HD
ATOM     13  H3  UNL     1      36.398 -17.557 -23.635  0.00  0.00    -0.088 HD
ENDBRANCH   1  10
BRANCH   1  16
ATOM     14  O   UNL     1      35.117 -16.350 -20.238  0.00  0.00    -0.248 OA
ATOM     15  OXT UNL     1      34.439 -16.214 -22.415  0.00  0.00    -0.248 OA
ATOM     16  C   UNL     1      35.020 -16.756 -21.430  0.00  0.00    +0.349 C 
ENDBRANCH   1  16
TORSDOF 4
ENDMDL
MODEL 2
REMARK VINA RESULT:      -6.8      1.804      2.507
REMARK  Name = 25200582
REMARK  4 active torsions:
REMARK  status: ('A' for Active; 'I' for Inactive)
REMARK    1  A    between atoms: CA_1  and  C_2
REMARK    2  A    between atoms: CA_1  and  N_10
REMARK    3  A    between atoms: CA_1  and  C_16
REMARK    4  A    between atoms: C_7  and  O_8
REMARK                            x       y       z     vdW  Elec       q    Type
REMARK                         _______ _______ _______ _____ _____    ______ ____
ROOT
ATOM      1  CA  UNL     1      34.562 -18.468 -21.506  0.00  0.00    +0.064 C 
ENDROOT
BRANCH   1   2
ATOM      2  C   UNL     1      34.477 -19.737 -20.728  0.00  0.00    -0.032 C 
ATOM      3  C   UNL     1      35.641 -20.420 -20.377  0.00  0.00    -0.003 C 
ATOM      4  C   UNL     1      33.231 -20.240 -20.350  0.00  0.00    -0.003 C 
ATOM      5  C   UNL     1      35.560 -21.608 -19.649  0.00  0.00    +0.036 C 
ATOM      6  C   UNL     1      33.151 -21.427 -19.622  0.00  0.00    +0.036 C 
ATOM      7  C   UNL     1      34.315 -22.111 -19.272  0.00  0.00    +0.134 C 
BRANCH   7   8
ATOM      8  O   UNL     1      34.238 -23.269 -18.561  0.00  0.00    -0.506 OA
ATOM      9  H   UNL     1      34.307 -24.094 -18.999  0.00  0.00    +0.292 HD
ENDBRANCH   7   8
ENDBRANCH   1   2
BRANCH   1  10
ATOM     10  N   UNL     1      35.202 -17.341 -20.737  0.00  0.00    +0.391 N 
ATOM     11  H1  UNL     1      35.692 -17.718 -19.926  0.00  0.00    -0.088 HD
ATOM     12  H2  UNL     1      34.480 -16.690 -20.426  0.00  0.00    -0.088 HD
ATOM     13  H3  UNL     1      35.864 -16.852 -21.338  0.00  0.00    -0.088 HD
ENDBRANCH   1  10
BRANCH   1  16
ATOM     14  O   UNL     1      34.561 -19.436 -23.683  0.00  0.00    -0.248 OA
ATOM     15  OXT UNL     1      36.384 -18.241 -22.999  0.00  0.00    -0.248 OA
ATOM     16  C   UNL     1      35.232 -18.747 -22.864  0.00  0.00    +0.349 C 
ENDBRANCH   1  16
TORSDOF 4
ENDMDL
MODEL 3
REMARK VINA RESULT:      -6.8      1.804      2.131
REMARK  Name = 25200582
REMARK  4 active torsions:
REMARK  status: ('A' for Active; 'I' for Inactive)
REMARK    1  A    between atoms: CA_1  and  C_2
REMARK    2  A    between atoms: CA_1  and  N_10
REMARK    3  A    between atoms: CA_1  and  C_16
REMARK    4  A    between atoms: C_7  and  O_8
REMARK                            x       y       z     vdW  Elec       q    Type
REMARK                         _______ _______ _______ _____ _____    ______ ____
ROOT
ATOM      1  CA  UNL     1      34.561 -18.467 -21.505  0.00  0.00    +0.064 C 
ENDROOT
BRANCH   1   2
ATOM      2  C   UNL     1      34.477 -19.736 -20.726  0.00  0.00    -0.032 C 
ATOM      3  C   UNL     1      33.234 -20.242 -20.349  0.00  0.00    -0.003 C 
ATOM      4  C   UNL     1      35.644 -20.418 -20.378  0.00  0.00    -0.003 C 
ATOM      5  C   UNL     1      33.156 -21.429 -19.620  0.00  0.00    +0.036 C 
ATOM      6  C   UNL     1      35.566 -21.605 -19.649  0.00  0.00    +0.036 C 
ATOM      7  C   UNL     1      34.322 -22.111 -19.271  0.00  0.00    +0.134 C 
BRANCH   7   8
ATOM      8  O   UNL     1      34.245 -23.270 -18.561  0.00  0.00    -0.506 OA
ATOM      9  H   UNL     1      34.849 -23.964 -18.732  0.00  0.00    +0.292 HD
ENDBRANCH   7   8
ENDBRANCH   1   2
BRANCH   1  10
ATOM     10  N   UNL     1      35.202 -17.339 -20.737  0.00  0.00    +0.391 N 
ATOM     11  H1  UNL     1      35.179 -16.489 -21.300  0.00  0.00    -0.088 HD
ATOM     12  H2  UNL     1      36.170 -17.581 -20.524  0.00  0.00    -0.088 HD
ATOM     13  H3  UNL     1      34.691 -17.186 -19.868  0.00  0.00    -0.088 HD
ENDBRANCH   1  10
BRANCH   1  16
ATOM     14  O   UNL     1      34.556 -19.434 -23.681  0.00  0.00    -0.248 OA
ATOM     15  OXT UNL     1      36.381 -18.240 -23.000  0.00  0.00    -0.248 OA
ATOM     16  C   UNL     1      35.228 -18.745 -22.864  0.00  0.00    +0.349 C 
ENDBRANCH   1  16
TORSDOF 4
ENDMDL
MODEL 4
REMARK VINA RESULT:      -6.5      2.615      4.794
REMARK  Name = 25200582
REMARK  4 active torsions:
REMARK  status: ('A' for Active; 'I' for Inactive)
REMARK    1  A    between atoms: CA_1  and  C_2
REMARK    2  A    between atoms: CA_1  and  N_10
REMARK    3  A    between atoms: CA_1  and  C_16
REMARK    4  A    between atoms: C_7  and  O_8
REMARK                            x       y       z     vdW  Elec       q    Type
REMARK                         _______ _______ _______ _____ _____    ______ ____
ROOT
ATOM      1  CA  UNL     1      34.451 -19.302 -20.859  0.00  0.00    +0.064 C 
ENDROOT
BRANCH   1   2
ATOM      2  C   UNL     1      34.566 -18.607 -22.173  0.00  0.00    -0.032 C 
ATOM      3  C   UNL     1      34.621 -19.349 -23.353  0.00  0.00    -0.003 C 
ATOM      4  C   UNL     1      34.618 -17.213 -22.222  0.00  0.00    -0.003 C 
ATOM      5  C   UNL     1      34.729 -18.698 -24.581  0.00  0.00    +0.036 C 
ATOM      6  C   UNL     1      34.726 -16.562 -23.451  0.00  0.00    +0.036 C 
ATOM      7  C   UNL     1      34.781 -17.305 -24.631  0.00  0.00    +0.134 C 
BRANCH   7   8
ATOM      8  O   UNL     1      34.886 -16.670 -25.830  0.00  0.00    -0.506 OA
ATOM      9  H   UNL     1      35.424 -15.909 -25.912  0.00  0.00    +0.292 HD
ENDBRANCH   7   8
ENDBRANCH   1   2
BRANCH   1  10
ATOM     10  N   UNL     1      33.237 -20.189 -20.760  0.00  0.00    +0.391 N 
ATOM     11  H1  UNL     1      32.396 -19.633 -20.912  0.00  0.00    -0.088 HD
ATOM     12  H2  UNL     1      33.201 -20.613 -19.832  0.00  0.00    -0.088 HD
ATOM     13  H3  UNL     1      33.293 -20.922 -21.466  0.00  0.00    -0.088 HD
ENDBRANCH   1  10
BRANCH   1  16
ATOM     14  O   UNL     1      36.796 -19.296 -20.441  0.00  0.00    -0.248 OA
ATOM     15  OXT UNL     1      35.671 -21.284 -20.433  0.00  0.00    -0.248 OA
ATOM     16  C   UNL     1      35.773 -20.028 -20.548  0.00  0.00    +0.349 C 
ENDBRANCH   1  16
TORSDOF 4
ENDMDL
MODEL 5
REMARK VINA RESULT:      -6.4      1.943      4.656
REMARK  Name = 25200582
REMARK  4 active torsions:
REMARK  status: ('A' for Active; 'I' for Inactive)
REMARK    1  A    between atoms: CA_1  and  C_2
REMARK    2  A    between atoms: CA_1  and  N_10
REMARK    3  A    between atoms: CA_1  and  C_16
REMARK    4  A    between atoms: C_7  and  O_8
REMARK                            x       y       z     vdW  Elec       q    Type
REMARK                         _______ _______ _______ _____ _____    ______ ____
ROOT
ATOM      1  CA  UNL     1      34.641 -20.545 -20.720  0.00  0.00    +0.064 C 
ENDROOT
BRANCH   1   2
ATOM      2  C   UNL     1      34.846 -19.314 -21.537  0.00  0.00    -0.032 C 
ATOM      3  C   UNL     1      34.984 -18.075 -20.911  0.00  0.00    -0.003 C 
ATOM      4  C   UNL     1      34.901 -19.402 -22.929  0.00  0.00    -0.003 C 
ATOM      5  C   UNL     1      35.175 -16.925 -21.675  0.00  0.00    +0.036 C 
ATOM      6  C   UNL     1      35.093 -18.252 -23.693  0.00  0.00    +0.036 C 
ATOM      7  C   UNL     1      35.230 -17.013 -23.067  0.00  0.00    +0.134 C 
BRANCH   7   8
ATOM      8  O   UNL     1      35.418 -15.889 -23.812  0.00  0.00    -0.506 OA
ATOM      9  H   UNL     1      35.978 -15.208 -23.498  0.00  0.00    +0.292 HD
ENDBRANCH   7   8
ENDBRANCH   1   2
BRANCH   1  10
ATOM     10  N   UNL     1      35.635 -20.685 -19.596  0.00  0.00    +0.391 N 
ATOM     11  H1  UNL     1      35.747 -21.671 -19.362  0.00  0.00    -0.088 HD
ATOM     12  H2  UNL     1      35.296 -20.177 -18.779  0.00  0.00    -0.088 HD
ATOM     13  H3  UNL     1      36.533 -20.300 -19.886  0.00  0.00    -0.088 HD
ENDBRANCH   1  10
BRANCH   1  16
ATOM     14  O   UNL     1      32.333 -20.023 -20.994  0.00  0.00    -0.248 OA
ATOM     15  OXT UNL     1      32.986 -21.260 -19.188  0.00  0.00    -0.248 OA
ATOM     16  C   UNL     1      33.174 -20.612 -20.259  0.00  0.00    +0.349 C 
ENDBRANCH   1  16
TORSDOF 4
ENDMDL
MODEL 6
REMARK VINA RESULT:      -6.4      9.415     10.463
REMARK  Name = 25200582
REMARK  4 active torsions:
REMARK  status: ('A' for Active; 'I' for Inactive)
REMARK    1  A    between atoms: CA_1  and  C_2
REMARK    2  A    between atoms: CA_1  and  N_10
REMARK    3  A    between atoms: CA_1  and  C_16
REMARK    4  A    between atoms: C_7  and  O_8
REMARK                            x       y       z     vdW  Elec       q    Type
REMARK                         _______ _______ _______ _____ _____    ______ ____
ROOT
ATOM      1  CA  UNL     1      36.176 -23.853 -12.601  0.00  0.00    +0.064 C 
ENDROOT
BRANCH   1   2
ATOM      2  C   UNL     1      37.304 -24.349 -13.441  0.00  0.00    -0.032 C 
ATOM      3  C   UNL     1      37.537 -23.791 -14.698  0.00  0.00    -0.003 C 
ATOM      4  C   UNL     1      38.128 -25.372 -12.967  0.00  0.00    -0.003 C 
ATOM      5  C   UNL     1      38.592 -24.256 -15.482  0.00  0.00    +0.036 C 
ATOM      6  C   UNL     1      39.183 -25.837 -13.752  0.00  0.00    +0.036 C 
ATOM      7  C   UNL     1      39.415 -25.279 -15.010  0.00  0.00    +0.134 C 
BRANCH   7   8
ATOM      8  O   UNL     1      40.446 -25.731 -15.776  0.00  0.00    -0.506 OA
ATOM      9  H   UNL     1      41.220 -26.066 -15.369  0.00  0.00    +0.292 HD
ENDBRANCH   7   8
ENDBRANCH   1   2
BRANCH   1  10
ATOM     10  N   UNL     1      35.025 -24.822 -12.519  0.00  0.00    +0.391 N 
ATOM     11  H1  UNL     1      34.212 -24.423 -12.989  0.00  0.00    -0.088 HD
ATOM     12  H2  UNL     1      34.800 -24.999 -11.540  0.00  0.00    -0.088 HD
ATOM     13  H3  UNL     1      35.284 -25.698 -12.972  0.00  0.00    -0.088 HD
ENDBRANCH   1  10
BRANCH   1  16
ATOM     14  O   UNL     1      36.357 -24.123 -10.242  0.00  0.00    -0.248 OA
ATOM     15  OXT UNL     1      37.468 -22.401 -11.251  0.00  0.00    -0.248 OA
ATOM     16  C   UNL     1      36.716 -23.419 -11.226  0.00  0.00    +0.349 C 
ENDBRANCH   1  16
TORSDOF 4
ENDMDL
MODEL 7
REMARK VINA RESULT:      -6.2      2.998      5.319
REMARK  Name = 25200582
REMARK  4 active torsions:
REMARK  status: ('A' for Active; 'I' for Inactive)
REMARK    1  A    between atoms: CA_1  and  C_2
REMARK    2  A    between atoms: CA_1  and  N_10
REMARK    3  A    between atoms: CA_1  and  C_16
REMARK    4  A    between atoms: C_7  and  O_8
REMARK                            x       y       z     vdW  Elec       q    Type
REMARK                         _______ _______ _______ _____ _____    ______ ____
ROOT
ATOM      1  CA  UNL     1      35.236 -17.451 -21.471  0.00  0.00    +0.064 C 
ENDROOT
BRANCH   1   2
ATOM      2  C   UNL     1      34.787 -16.979 -22.812  0.00  0.00    -0.032 C 
ATOM      3  C   UNL     1      35.001 -17.773 -23.939  0.00  0.00    -0.003 C 
ATOM      4  C   UNL     1      34.150 -15.744 -22.940  0.00  0.00    -0.003 C 
ATOM      5  C   UNL     1      34.580 -17.332 -25.193  0.00  0.00    +0.036 C 
ATOM      6  C   UNL     1      33.729 -15.303 -24.194  0.00  0.00    +0.036 C 
ATOM      7  C   UNL     1      33.944 -16.097 -25.321  0.00  0.00    +0.134 C 
BRANCH   7   8
ATOM      8  O   UNL     1      33.533 -15.667 -26.546  0.00  0.00    -0.506 OA
ATOM      9  H   UNL     1      32.940 -14.946 -26.614  0.00  0.00    +0.292 HD
ENDBRANCH   7   8
ENDBRANCH   1   2
BRANCH   1  10
ATOM     10  N   UNL     1      34.956 -16.462 -20.369  0.00  0.00    +0.391 N 
ATOM     11  H1  UNL     1      35.580 -16.644 -19.583  0.00  0.00    -0.088 HD
ATOM     12  H2  UNL     1      33.987 -16.559 -20.064  0.00  0.00    -0.088 HD
ATOM     13  H3  UNL     1      35.110 -15.515 -20.713  0.00  0.00    -0.088 HD
ENDBRANCH   1  10
BRANCH   1  16
ATOM     14  O   UNL     1      33.415 -18.910 -20.993  0.00  0.00    -0.248 OA
ATOM     15  OXT UNL     1      35.511 -19.789 -21.232  0.00  0.00    -0.248 OA
ATOM     16  C   UNL     1      34.659 -18.853 -21.203  0.00  0.00    +0.349 C 
ENDBRANCH   1  16
TORSDOF 4
ENDMDL
MODEL 8
REMARK VINA RESULT:      -6.1      8.218      9.136
REMARK  Name = 25200582
REMARK  4 active torsions:
REMARK  status: ('A' for Active; 'I' for Inactive)
REMARK    1  A    between atoms: CA_1  and  C_2
REMARK    2  A    between atoms: CA_1  and  N_10
REMARK    3  A    between atoms: CA_1  and  C_16
REMARK    4  A    between atoms: C_7  and  O_8
REMARK                            x       y       z     vdW  Elec       q    Type
REMARK                         _______ _______ _______ _____ _____    ______ ____
ROOT
ATOM      1  CA  UNL     1      28.864 -23.297 -16.481  0.00  0.00    +0.064 C 
ENDROOT
BRANCH   1   2
ATOM      2  C   UNL     1      29.999 -23.707 -15.604  0.00  0.00    -0.032 C 
ATOM      3  C   UNL     1      31.249 -23.106 -15.754  0.00  0.00    -0.003 C 
ATOM      4  C   UNL     1      29.809 -24.690 -14.633  0.00  0.00    -0.003 C 
ATOM      5  C   UNL     1      32.310 -23.490 -14.934  0.00  0.00    +0.036 C 
ATOM      6  C   UNL     1      30.870 -25.074 -13.813  0.00  0.00    +0.036 C 
ATOM      7  C   UNL     1      32.120 -24.474 -13.963  0.00  0.00    +0.134 C 
BRANCH   7   8
ATOM      8  O   UNL     1      33.156 -24.847 -13.163  0.00  0.00    -0.506 OA
ATOM      9  H   UNL     1      33.126 -24.668 -12.244  0.00  0.00    +0.292 HD
ENDBRANCH   7   8
ENDBRANCH   1   2
BRANCH   1  10
ATOM     10  N   UNL     1      28.176 -24.461 -17.146  0.00  0.00    +0.391 N 
ATOM     11  H1  UNL     1      28.583 -24.614 -18.068  0.00  0.00    -0.088 HD
ATOM     12  H2  UNL     1      27.181 -24.256 -17.243  0.00  0.00    -0.088 HD
ATOM     13  H3  UNL     1      28.297 -25.298 -16.577  0.00  0.00    -0.088 HD
ENDBRANCH   1  10
BRANCH   1  16
ATOM     14  O   UNL     1      28.451 -21.597 -14.863  0.00  0.00    -0.248 OA
ATOM     15  OXT UNL     1      26.683 -22.540 -15.961  0.00  0.00    -0.248 OA
ATOM     16  C   UNL     1      27.909 -22.387 -15.686  0.00  0.00    +0.349 C 
ENDBRANCH   1  16
TORSDOF 4
ENDMDL
MODEL 9
REMARK VINA RESULT:      -6.1      5.141      7.263
REMARK  Name = 25200582
REMARK  4 active torsions:
REMARK  status: ('A' for Active; 'I' for Inactive)
REMARK    1  A    between atoms: CA_1  and  C_2
REMARK    2  A    between atoms: CA_1  and  N_10
REMARK    3  A    between atoms: CA_1  and  C_16
REMARK    4  A    between atoms: C_7  and  O_8
REMARK                            x       y       z     vdW  Elec       q    Type
REMARK                         _______ _______ _______ _____ _____    ______ ____
ROOT
ATOM      1  CA  UNL     1      36.063 -23.020 -14.995  0.00  0.00    +0.064 C 
ENDROOT
BRANCH   1   2
ATOM      2  C   UNL     1      35.278 -22.842 -16.250  0.00  0.00    -0.032 C 
ATOM      3  C   UNL     1      35.867 -22.245 -17.364  0.00  0.00    -0.003 C 
ATOM      4  C   UNL     1      33.952 -23.276 -16.310  0.00  0.00    -0.003 C 
ATOM      5  C   UNL     1      35.132 -22.080 -18.538  0.00  0.00    +0.036 C 
ATOM      6  C   UNL     1      33.217 -23.110 -17.483  0.00  0.00    +0.036 C 
ATOM      7  C   UNL     1      33.807 -22.512 -18.597  0.00  0.00    +0.134 C 
BRANCH   7   8
ATOM      8  O   UNL     1      33.091 -22.351 -19.744  0.00  0.00    -0.506 OA
ATOM      9  H   UNL     1      33.255 -22.906 -20.480  0.00  0.00    +0.292 HD
ENDBRANCH   7   8
ENDBRANCH   1   2
BRANCH   1  10
ATOM     10  N   UNL     1      35.199 -23.200 -13.773  0.00  0.00    +0.391 N 
ATOM     11  H1  UNL     1      34.739 -22.318 -13.549  0.00  0.00    -0.088 HD
ATOM     12  H2  UNL     1      35.780 -23.490 -12.986  0.00  0.00    -0.088 HD
ATOM     13  H3  UNL     1      34.495 -23.915 -13.956  0.00  0.00    -0.088 HD
ENDBRANCH   1  10
BRANCH   1  16
ATOM     14  O   UNL     1      36.624 -25.289 -15.454  0.00  0.00    -0.248 OA
ATOM     15  OXT UNL     1      38.301 -23.784 -15.075  0.00  0.00    -0.248 OA
ATOM     16  C   UNL     1      37.094 -24.146 -15.193  0.00  0.00    +0.349 C 
ENDBRANCH   1  16
TORSDOF 4
ENDMDL
