MODEL 1
REMARK VINA RESULT:      -9.2      0.000      0.000
REMARK  Name = 448043
REMARK  2 active torsions:
REMARK  status: ('A' for Active; 'I' for Inactive)
REMARK    1  A    between atoms: S_1  and  C_5
REMARK    2  A    between atoms: S_1  and  N_15
REMARK                            x       y       z     vdW  Elec       q    Type
REMARK                         _______ _______ _______ _____ _____    ______ ____
ROOT
ATOM      1  S   UNL     1      35.133 -18.498 -22.905  0.00  0.00    +0.063 S 
ATOM      2  O   UNL     1      34.240 -18.862 -23.988  0.00  0.00    -0.153 OA
ATOM      3  O   UNL     1      36.566 -18.428 -23.122  0.00  0.00    -0.153 OA
ENDROOT
BRANCH   1   5
ATOM      4  N   UNL     1      33.221 -13.675 -24.573  0.00  0.00    -0.243 NA
ATOM      5  C   UNL     1      34.606 -16.931 -22.282  0.00  0.00    +0.122 C 
ATOM      6  C   UNL     1      34.149 -15.863 -23.062  0.00  0.00    +0.018 C 
ATOM      7  C   UNL     1      34.679 -16.831 -20.895  0.00  0.00    +0.020 C 
ATOM      8  C   UNL     1      33.760 -14.668 -22.420  0.00  0.00    +0.020 C 
ATOM      9  C   UNL     1      34.065 -15.939 -24.457  0.00  0.00    -0.001 C 
ATOM     10  C   UNL     1      34.294 -15.650 -20.264  0.00  0.00    +0.001 C 
ATOM     11  C   UNL     1      33.836 -14.571 -21.020  0.00  0.00    +0.002 C 
ATOM     12  C   UNL     1      33.309 -13.621 -23.225  0.00  0.00    +0.099 C 
ATOM     13  C   UNL     1      33.602 -14.834 -25.154  0.00  0.00    +0.095 C 
ATOM     14  C   UNL     1      34.433 -17.112 -25.304  0.00  0.00    +0.033 C 
ENDBRANCH   1   5
BRANCH   1  15
ATOM     15  N   UNL     1      34.814 -19.497 -21.541  0.00  0.00    -0.159 NA
ATOM     16  N   UNL     1      34.853 -21.499 -19.125  0.00  0.00    +0.385 N 
ATOM     17  C   UNL     1      35.957 -20.354 -21.079  0.00  0.00    +0.058 C 
ATOM     18  C   UNL     1      33.442 -20.065 -21.482  0.00  0.00    +0.093 C 
ATOM     19  C   UNL     1      35.558 -21.670 -20.395  0.00  0.00    -0.064 C 
ATOM     20  C   UNL     1      32.953 -20.136 -20.040  0.00  0.00    -0.004 C 
ATOM     21  C   UNL     1      33.407 -21.389 -19.295  0.00  0.00    -0.080 C 
ATOM     22  C   UNL     1      36.852 -19.505 -20.170  0.00  0.00    +0.017 C 
ATOM     23  H   UNL     1      35.194 -20.650 -18.673  0.00  0.00    -0.084 HD
ATOM     24  H   UNL     1      35.035 -22.326 -18.558  0.00  0.00    -0.084 HD
ENDBRANCH   1  15
TORSDOF 2
ENDMDL
MODEL 2
REMARK VINA RESULT:      -8.6      1.307      6.217
REMARK  Name = 448043
REMARK  2 active torsions:
REMARK  status: ('A' for Active; 'I' for Inactive)
REMARK    1  A    between atoms: S_1  and  C_5
REMARK    2  A    between atoms: S_1  and  N_15
REMARK                            x       y       z     vdW  Elec       q    Type
REMARK                         _______ _______ _______ _____ _____    ______ ____
ROOT
ATOM      1  S   UNL     1      35.582 -18.314 -22.236  0.00  0.00    +0.063 S 
ATOM      2  O   UNL     1      36.752 -17.991 -21.444  0.00  0.00    -0.153 OA
ATOM      3  O   UNL     1      35.722 -18.910 -23.551  0.00  0.00    -0.153 OA
ENDROOT
BRANCH   1   5
ATOM      4  N   UNL     1      35.886 -22.249 -18.478  0.00  0.00    -0.243 NA
ATOM      5  C   UNL     1      34.559 -19.381 -21.269  0.00  0.00    +0.122 C 
ATOM      6  C   UNL     1      35.021 -20.327 -20.346  0.00  0.00    +0.018 C 
ATOM      7  C   UNL     1      33.197 -19.204 -21.497  0.00  0.00    +0.020 C 
ATOM      8  C   UNL     1      34.081 -21.110 -19.644  0.00  0.00    +0.020 C 
ATOM      9  C   UNL     1      36.385 -20.523 -20.099  0.00  0.00    -0.001 C 
ATOM     10  C   UNL     1      32.271 -19.978 -20.801  0.00  0.00    +0.001 C 
ATOM     11  C   UNL     1      32.708 -20.928 -19.878  0.00  0.00    +0.002 C 
ATOM     12  C   UNL     1      34.573 -22.045 -18.732  0.00  0.00    +0.099 C 
ATOM     13  C   UNL     1      36.757 -21.482 -19.169  0.00  0.00    +0.095 C 
ATOM     14  C   UNL     1      37.517 -19.795 -20.744  0.00  0.00    +0.033 C 
ENDBRANCH   1   5
BRANCH   1  15
ATOM     15  N   UNL     1      34.566 -16.929 -22.347  0.00  0.00    -0.159 NA
ATOM     16  N   UNL     1      33.037 -14.296 -23.104  0.00  0.00    +0.385 N 
ATOM     17  C   UNL     1      34.788 -16.053 -23.546  0.00  0.00    +0.058 C 
ATOM     18  C   UNL     1      34.247 -16.276 -21.050  0.00  0.00    +0.093 C 
ATOM     19  C   UNL     1      34.453 -14.567 -23.347  0.00  0.00    -0.064 C 
ATOM     20  C   UNL     1      32.821 -15.738 -21.060  0.00  0.00    -0.004 C 
ATOM     21  C   UNL     1      32.688 -14.353 -21.687  0.00  0.00    -0.080 C 
ATOM     22  C   UNL     1      34.001 -16.646 -24.720  0.00  0.00    +0.017 C 
ATOM     23  H   UNL     1      32.480 -14.990 -23.605  0.00  0.00    -0.084 HD
ATOM     24  H   UNL     1      32.843 -13.351 -23.431  0.00  0.00    -0.084 HD
ENDBRANCH   1  15
TORSDOF 2
ENDMDL
MODEL 3
REMARK VINA RESULT:      -8.5      6.371      9.065
REMARK  Name = 448043
REMARK  2 active torsions:
REMARK  status: ('A' for Active; 'I' for Inactive)
REMARK    1  A    between atoms: S_1  and  C_5
REMARK    2  A    between atoms: S_1  and  N_15
REMARK                            x       y       z     vdW  Elec       q    Type
REMARK                         _______ _______ _______ _____ _____    ______ ____
ROOT
ATOM      1  S   UNL     1      34.754 -23.964 -15.160  0.00  0.00    +0.063 S 
ATOM      2  O   UNL     1      33.729 -23.164 -14.520  0.00  0.00    -0.153 OA
ATOM      3  O   UNL     1      34.416 -25.218 -15.807  0.00  0.00    -0.153 OA
ENDROOT
BRANCH   1   5
ATOM      4  N   UNL     1      33.847 -21.422 -19.895  0.00  0.00    -0.243 NA
ATOM      5  C   UNL     1      35.560 -22.943 -16.356  0.00  0.00    +0.122 C 
ATOM      6  C   UNL     1      34.972 -22.448 -17.526  0.00  0.00    +0.018 C 
ATOM      7  C   UNL     1      36.883 -22.650 -16.036  0.00  0.00    +0.020 C 
ATOM      8  C   UNL     1      35.743 -21.642 -18.388  0.00  0.00    +0.020 C 
ATOM      9  C   UNL     1      33.644 -22.728 -17.869  0.00  0.00    -0.001 C 
ATOM     10  C   UNL     1      37.642 -21.852 -16.890  0.00  0.00    +0.001 C 
ATOM     11  C   UNL     1      37.078 -21.348 -18.061  0.00  0.00    +0.002 C 
ATOM     12  C   UNL     1      35.128 -21.163 -19.546  0.00  0.00    +0.099 C 
ATOM     13  C   UNL     1      33.139 -22.198 -19.046  0.00  0.00    +0.095 C 
ATOM     14  C   UNL     1      32.683 -23.560 -17.087  0.00  0.00    +0.033 C 
ENDBRANCH   1   5
BRANCH   1  15
ATOM     15  N   UNL     1      36.047 -24.227 -14.056  0.00  0.00    -0.159 NA
ATOM     16  N   UNL     1      38.366 -25.323 -12.249  0.00  0.00    +0.385 N 
ATOM     17  C   UNL     1      36.545 -25.640 -13.960  0.00  0.00    +0.058 C 
ATOM     18  C   UNL     1      35.987 -23.418 -12.811  0.00  0.00    +0.093 C 
ATOM     19  C   UNL     1      37.141 -26.037 -12.601  0.00  0.00    -0.064 C 
ATOM     20  C   UNL     1      37.388 -23.013 -12.368  0.00  0.00    -0.004 C 
ATOM     21  C   UNL     1      38.104 -24.075 -11.537  0.00  0.00    -0.080 C 
ATOM     22  C   UNL     1      37.550 -25.869 -15.095  0.00  0.00    +0.017 C 
ATOM     23  H   UNL     1      38.878 -25.109 -13.105  0.00  0.00    -0.084 HD
ATOM     24  H   UNL     1      38.906 -25.924 -11.628  0.00  0.00    -0.084 HD
ENDBRANCH   1  15
TORSDOF 2
ENDMDL
MODEL 4
REMARK VINA RESULT:      -8.3      5.707      9.884
REMARK  Name = 448043
REMARK  2 active torsions:
REMARK  status: ('A' for Active; 'I' for Inactive)
REMARK    1  A    between atoms: S_1  and  C_5
REMARK    2  A    between atoms: S_1  and  N_15
REMARK                            x       y       z     vdW  Elec       q    Type
REMARK                         _______ _______ _______ _____ _____    ______ ____
ROOT
ATOM      1  S   UNL     1      31.740 -10.067 -21.841  0.00  0.00    +0.063 S 
ATOM      2  O   UNL     1      30.376 -10.556 -21.866  0.00  0.00    -0.153 OA
ATOM      3  O   UNL     1      32.495 -10.047 -20.602  0.00  0.00    -0.153 OA
ENDROOT
BRANCH   1   5
ATOM      4  N   UNL     1      33.377 -15.158 -22.891  0.00  0.00    -0.243 NA
ATOM      5  C   UNL     1      32.666 -11.005 -23.018  0.00  0.00    +0.122 C 
ATOM      6  C   UNL     1      32.890 -12.385 -22.957  0.00  0.00    +0.018 C 
ATOM      7  C   UNL     1      33.179 -10.238 -24.061  0.00  0.00    +0.020 C 
ATOM      8  C   UNL     1      33.651 -12.997 -23.974  0.00  0.00    +0.020 C 
ATOM      9  C   UNL     1      32.384 -13.177 -21.919  0.00  0.00    -0.001 C 
ATOM     10  C   UNL     1      33.930 -10.846 -25.064  0.00  0.00    +0.001 C 
ATOM     11  C   UNL     1      34.167 -12.220 -25.024  0.00  0.00    +0.002 C 
ATOM     12  C   UNL     1      33.857 -14.376 -23.885  0.00  0.00    +0.099 C 
ATOM     13  C   UNL     1      32.654 -14.538 -21.934  0.00  0.00    +0.095 C 
ATOM     14  C   UNL     1      31.566 -12.708 -20.763  0.00  0.00    +0.033 C 
ENDBRANCH   1   5
BRANCH   1  15
ATOM     15  N   UNL     1      31.803  -8.509 -22.569  0.00  0.00    -0.159 NA
ATOM     16  N   UNL     1      32.274  -5.514 -23.375  0.00  0.00    +0.385 N 
ATOM     17  C   UNL     1      32.558  -7.462 -21.802  0.00  0.00    +0.058 C 
ATOM     18  C   UNL     1      30.568  -8.100 -23.288  0.00  0.00    +0.093 C 
ATOM     19  C   UNL     1      32.080  -6.018 -22.016  0.00  0.00    -0.064 C 
ATOM     20  C   UNL     1      30.917  -7.284 -24.528  0.00  0.00    -0.004 C 
ATOM     21  C   UNL     1      31.140  -5.800 -24.248  0.00  0.00    -0.080 C 
ATOM     22  C   UNL     1      34.047  -7.609 -22.136  0.00  0.00    +0.017 C 
ATOM     23  H   UNL     1      33.108  -5.950 -23.769  0.00  0.00    -0.084 HD
ATOM     24  H   UNL     1      32.371  -4.501 -23.317  0.00  0.00    -0.084 HD
ENDBRANCH   1  15
TORSDOF 2
ENDMDL
MODEL 5
REMARK VINA RESULT:      -7.9      8.593     10.523
REMARK  Name = 448043
REMARK  2 active torsions:
REMARK  status: ('A' for Active; 'I' for Inactive)
REMARK    1  A    between atoms: S_1  and  C_5
REMARK    2  A    between atoms: S_1  and  N_15
REMARK                            x       y       z     vdW  Elec       q    Type
REMARK                         _______ _______ _______ _____ _____    ______ ____
ROOT
ATOM      1  S   UNL     1      32.063 -24.067 -14.009  0.00  0.00    +0.063 S 
ATOM      2  O   UNL     1      32.242 -25.495 -13.831  0.00  0.00    -0.153 OA
ATOM      3  O   UNL     1      32.229 -23.157 -12.892  0.00  0.00    -0.153 OA
ENDROOT
BRANCH   1   5
ATOM      4  N   UNL     1      37.328 -23.016 -14.947  0.00  0.00    -0.243 NA
ATOM      5  C   UNL     1      33.160 -23.548 -15.293  0.00  0.00    +0.122 C 
ATOM      6  C   UNL     1      34.543 -23.378 -15.156  0.00  0.00    +0.018 C 
ATOM      7  C   UNL     1      32.523 -23.311 -16.508  0.00  0.00    +0.020 C 
ATOM      8  C   UNL     1      35.291 -22.957 -16.275  0.00  0.00    +0.020 C 
ATOM      9  C   UNL     1      35.207 -23.610 -13.946  0.00  0.00    -0.001 C 
ATOM     10  C   UNL     1      33.265 -22.896 -17.611  0.00  0.00    +0.001 C 
ATOM     11  C   UNL     1      34.644 -22.719 -17.499  0.00  0.00    +0.002 C 
ATOM     12  C   UNL     1      36.668 -22.797 -16.107  0.00  0.00    +0.099 C 
ATOM     13  C   UNL     1      36.579 -23.417 -13.896  0.00  0.00    +0.095 C 
ATOM     14  C   UNL     1      34.584 -24.053 -12.664  0.00  0.00    +0.033 C 
ENDBRANCH   1   5
BRANCH   1  15
ATOM     15  N   UNL     1      30.544 -23.771 -14.762  0.00  0.00    -0.159 NA
ATOM     16  N   UNL     1      27.850 -23.833 -16.369  0.00  0.00    +0.385 N 
ATOM     17  C   UNL     1      30.015 -24.883 -15.620  0.00  0.00    +0.058 C 
ATOM     18  C   UNL     1      30.326 -22.371 -15.212  0.00  0.00    +0.093 C 
ATOM     19  C   UNL     1      29.113 -24.444 -16.783  0.00  0.00    -0.064 C 
ATOM     20  C   UNL     1      28.867 -21.972 -15.025  0.00  0.00    -0.004 C 
ATOM     21  C   UNL     1      27.960 -22.390 -16.179  0.00  0.00    -0.080 C 
ATOM     22  C   UNL     1      29.298 -25.887 -14.710  0.00  0.00    +0.017 C 
ATOM     23  H   UNL     1      27.556 -24.257 -15.488  0.00  0.00    -0.084 HD
ATOM     24  H   UNL     1      27.171 -23.996 -17.110  0.00  0.00    -0.084 HD
ENDBRANCH   1  15
TORSDOF 2
ENDMDL
MODEL 6
REMARK VINA RESULT:      -7.8      5.868      9.840
REMARK  Name = 448043
REMARK  2 active torsions:
REMARK  status: ('A' for Active; 'I' for Inactive)
REMARK    1  A    between atoms: S_1  and  C_5
REMARK    2  A    between atoms: S_1  and  N_15
REMARK                            x       y       z     vdW  Elec       q    Type
REMARK                         _______ _______ _______ _____ _____    ______ ____
ROOT
ATOM      1  S   UNL     1      33.151  -9.498 -23.626  0.00  0.00    +0.063 S 
ATOM      2  O   UNL     1      34.599  -9.489 -23.544  0.00  0.00    -0.153 OA
ATOM      3  O   UNL     1      32.486  -9.619 -24.910  0.00  0.00    -0.153 OA
ENDROOT
BRANCH   1   5
ATOM      4  N   UNL     1      33.229 -14.927 -23.163  0.00  0.00    -0.243 NA
ATOM      5  C   UNL     1      32.565 -10.803 -22.592  0.00  0.00    +0.122 C 
ATOM      6  C   UNL     1      32.798 -12.168 -22.800  0.00  0.00    +0.018 C 
ATOM      7  C   UNL     1      31.822 -10.358 -21.501  0.00  0.00    +0.020 C 
ATOM      8  C   UNL     1      32.264 -13.098 -21.884  0.00  0.00    +0.020 C 
ATOM      9  C   UNL     1      33.542 -12.640 -23.887  0.00  0.00    -0.001 C 
ATOM     10  C   UNL     1      31.296 -11.280 -20.598  0.00  0.00    +0.001 C 
ATOM     11  C   UNL     1      31.514 -12.644 -20.785  0.00  0.00    +0.002 C 
ATOM     12  C   UNL     1      32.513 -14.451 -22.119  0.00  0.00    +0.099 C 
ATOM     13  C   UNL     1      33.725 -14.008 -24.020  0.00  0.00    +0.095 C 
ATOM     14  C   UNL     1      34.178 -11.811 -24.953  0.00  0.00    +0.033 C 
ENDBRANCH   1   5
BRANCH   1  15
ATOM     15  N   UNL     1      32.523  -8.132 -22.788  0.00  0.00    -0.159 NA
ATOM     16  N   UNL     1      31.178  -5.457 -21.851  0.00  0.00    +0.385 N 
ATOM     17  C   UNL     1      31.840  -7.102 -23.641  0.00  0.00    +0.058 C 
ATOM     18  C   UNL     1      33.346  -7.663 -21.643  0.00  0.00    +0.093 C 
ATOM     19  C   UNL     1      31.898  -5.663 -23.107  0.00  0.00    -0.064 C 
ATOM     20  C   UNL     1      32.452  -7.158 -20.515  0.00  0.00    -0.004 C 
ATOM     21  C   UNL     1      32.012  -5.707 -20.679  0.00  0.00    -0.080 C 
ATOM     22  C   UNL     1      30.392  -7.553 -23.864  0.00  0.00    +0.017 C 
ATOM     23  H   UNL     1      30.379  -6.091 -21.824  0.00  0.00    -0.084 HD
ATOM     24  H   UNL     1      30.886  -4.481 -21.820  0.00  0.00    -0.084 HD
ENDBRANCH   1  15
TORSDOF 2
ENDMDL
MODEL 7
REMARK VINA RESULT:      -7.8      1.542      3.183
REMARK  Name = 448043
REMARK  2 active torsions:
REMARK  status: ('A' for Active; 'I' for Inactive)
REMARK    1  A    between atoms: S_1  and  C_5
REMARK    2  A    between atoms: S_1  and  N_15
REMARK                            x       y       z     vdW  Elec       q    Type
REMARK                         _______ _______ _______ _____ _____    ______ ____
ROOT
ATOM      1  S   UNL     1      34.258 -17.186 -21.020  0.00  0.00    +0.063 S 
ATOM      2  O   UNL     1      35.318 -16.350 -20.492  0.00  0.00    -0.153 OA
ATOM      3  O   UNL     1      32.881 -16.979 -20.611  0.00  0.00    -0.153 OA
ENDROOT
BRANCH   1   5
ATOM      4  N   UNL     1      33.069 -13.792 -25.115  0.00  0.00    -0.243 NA
ATOM      5  C   UNL     1      34.317 -17.074 -22.782  0.00  0.00    +0.122 C 
ATOM      6  C   UNL     1      33.897 -15.973 -23.537  0.00  0.00    +0.018 C 
ATOM      7  C   UNL     1      34.837 -18.211 -23.395  0.00  0.00    +0.020 C 
ATOM      8  C   UNL     1      34.006 -16.030 -24.943  0.00  0.00    +0.020 C 
ATOM      9  C   UNL     1      33.372 -14.819 -22.945  0.00  0.00    -0.001 C 
ATOM     10  C   UNL     1      34.944 -18.263 -24.782  0.00  0.00    +0.001 C 
ATOM     11  C   UNL     1      34.532 -17.179 -25.556  0.00  0.00    +0.002 C 
ATOM     12  C   UNL     1      33.579 -14.916 -25.668  0.00  0.00    +0.099 C 
ATOM     13  C   UNL     1      32.979 -13.774 -23.767  0.00  0.00    +0.095 C 
ATOM     14  C   UNL     1      33.179 -14.581 -21.485  0.00  0.00    +0.033 C 
ENDBRANCH   1   5
BRANCH   1  15
ATOM     15  N   UNL     1      34.673 -18.841 -20.801  0.00  0.00    -0.159 NA
ATOM     16  N   UNL     1      34.814 -21.917 -20.197  0.00  0.00    +0.385 N 
ATOM     17  C   UNL     1      33.585 -19.718 -20.250  0.00  0.00    +0.058 C 
ATOM     18  C   UNL     1      36.068 -19.087 -20.351  0.00  0.00    +0.093 C 
ATOM     19  C   UNL     1      34.064 -20.924 -19.429  0.00  0.00    -0.064 C 
ATOM     20  C   UNL     1      36.618 -20.359 -20.986  0.00  0.00    -0.004 C 
ATOM     21  C   UNL     1      36.246 -21.635 -20.235  0.00  0.00    -0.080 C 
ATOM     22  C   UNL     1      32.694 -20.161 -21.417  0.00  0.00    +0.017 C 
ATOM     23  H   UNL     1      34.457 -21.928 -21.153  0.00  0.00    -0.084 HD
ATOM     24  H   UNL     1      34.689 -22.819 -19.739  0.00  0.00    -0.084 HD
ENDBRANCH   1  15
TORSDOF 2
ENDMDL
MODEL 8
REMARK VINA RESULT:      -7.6      3.323      7.176
REMARK  Name = 448043
REMARK  2 active torsions:
REMARK  status: ('A' for Active; 'I' for Inactive)
REMARK    1  A    between atoms: S_1  and  C_5
REMARK    2  A    between atoms: S_1  and  N_15
REMARK                            x       y       z     vdW  Elec       q    Type
REMARK                         _______ _______ _______ _____ _____    ______ ____
ROOT
ATOM      1  S   UNL     1      33.297 -14.115 -21.737  0.00  0.00    +0.063 S 
ATOM      2  O   UNL     1      32.184 -14.756 -21.066  0.00  0.00    -0.153 OA
ATOM      3  O   UNL     1      34.623 -14.132 -21.148  0.00  0.00    -0.153 OA
ENDROOT
BRANCH   1   5
ATOM      4  N   UNL     1      35.199 -18.503 -24.349  0.00  0.00    -0.243 NA
ATOM      5  C   UNL     1      33.420 -14.813 -23.354  0.00  0.00    +0.122 C 
ATOM      6  C   UNL     1      34.015 -16.042 -23.663  0.00  0.00    +0.018 C 
ATOM      7  C   UNL     1      32.853 -14.018 -24.348  0.00  0.00    +0.020 C 
ATOM      8  C   UNL     1      34.037 -16.470 -25.007  0.00  0.00    +0.020 C 
ATOM      9  C   UNL     1      34.590 -16.859 -22.682  0.00  0.00    -0.001 C 
ATOM     10  C   UNL     1      32.876 -14.445 -25.674  0.00  0.00    +0.001 C 
ATOM     11  C   UNL     1      33.465 -15.665 -26.005  0.00  0.00    +0.002 C 
ATOM     12  C   UNL     1      34.638 -17.700 -25.282  0.00  0.00    +0.099 C 
ATOM     13  C   UNL     1      35.160 -18.061 -23.074  0.00  0.00    +0.095 C 
ATOM     14  C   UNL     1      34.663 -16.571 -21.220  0.00  0.00    +0.033 C 
ENDBRANCH   1   5
BRANCH   1  15
ATOM     15  N   UNL     1      32.871 -12.495 -22.130  0.00  0.00    -0.159 NA
ATOM     16  N   UNL     1      31.560  -9.668 -22.499  0.00  0.00    +0.385 N 
ATOM     17  C   UNL     1      31.546 -12.024 -21.605  0.00  0.00    +0.058 C 
ATOM     18  C   UNL     1      33.292 -12.043 -23.482  0.00  0.00    +0.093 C 
ATOM     19  C   UNL     1      30.850 -10.945 -22.448  0.00  0.00    -0.064 C 
ATOM     20  C   UNL     1      33.699 -10.574 -23.452  0.00  0.00    -0.004 C 
ATOM     21  C   UNL     1      32.528  -9.606 -23.591  0.00  0.00    -0.080 C 
ATOM     22  C   UNL     1      31.746 -11.554 -20.159  0.00  0.00    +0.017 C 
ATOM     23  H   UNL     1      32.055  -9.534 -21.616  0.00  0.00    -0.084 HD
ATOM     24  H   UNL     1      30.869  -8.937 -22.657  0.00  0.00    -0.084 HD
ENDBRANCH   1  15
TORSDOF 2
ENDMDL
MODEL 9
REMARK VINA RESULT:      -7.3      8.630     10.376
REMARK  Name = 448043
REMARK  2 active torsions:
REMARK  status: ('A' for Active; 'I' for Inactive)
REMARK    1  A    between atoms: S_1  and  C_5
REMARK    2  A    between atoms: S_1  and  N_15
REMARK                            x       y       z     vdW  Elec       q    Type
REMARK                         _______ _______ _______ _____ _____    ______ ____
ROOT
ATOM      1  S   UNL     1      33.550 -24.216 -13.461  0.00  0.00    +0.063 S 
ATOM      2  O   UNL     1      33.435 -23.111 -12.529  0.00  0.00    -0.153 OA
ATOM      3  O   UNL     1      32.844 -25.461 -13.221  0.00  0.00    -0.153 OA
ENDROOT
BRANCH   1   5
ATOM      4  N   UNL     1      29.151 -22.657 -16.275  0.00  0.00    -0.243 NA
ATOM      5  C   UNL     1      33.068 -23.624 -15.054  0.00  0.00    +0.122 C 
ATOM      6  C   UNL     1      31.760 -23.308 -15.439  0.00  0.00    +0.018 C 
ATOM      7  C   UNL     1      34.133 -23.484 -15.941  0.00  0.00    +0.020 C 
ATOM      8  C   UNL     1      31.529 -22.844 -16.750  0.00  0.00    +0.020 C 
ATOM      9  C   UNL     1      30.674 -23.439 -14.565  0.00  0.00    -0.001 C 
ATOM     10  C   UNL     1      33.901 -23.025 -17.236  0.00  0.00    +0.001 C 
ATOM     11  C   UNL     1      32.606 -22.705 -17.642  0.00  0.00    +0.002 C 
ATOM     12  C   UNL     1      30.213 -22.538 -17.103  0.00  0.00    +0.099 C 
ATOM     13  C   UNL     1      29.410 -23.105 -15.027  0.00  0.00    +0.095 C 
ATOM     14  C   UNL     1      30.725 -23.914 -13.152  0.00  0.00    +0.033 C 
ENDBRANCH   1   5
BRANCH   1  15
ATOM     15  N   UNL     1      35.213 -24.553 -13.746  0.00  0.00    -0.159 NA
ATOM     16  N   UNL     1      38.333 -24.550 -14.078  0.00  0.00    +0.385 N 
ATOM     17  C   UNL     1      36.159 -23.410 -13.510  0.00  0.00    +0.058 C 
ATOM     18  C   UNL     1      35.485 -25.466 -14.887  0.00  0.00    +0.093 C 
ATOM     19  C   UNL     1      37.438 -23.429 -14.360  0.00  0.00    -0.064 C 
ATOM     20  C   UNL     1      36.675 -26.367 -14.578  0.00  0.00    -0.004 C 
ATOM     21  C   UNL     1      38.028 -25.730 -14.881  0.00  0.00    -0.080 C 
ATOM     22  C   UNL     1      36.488 -23.366 -12.013  0.00  0.00    +0.017 C 
ATOM     23  H   UNL     1      38.248 -24.796 -13.091  0.00  0.00    -0.084 HD
ATOM     24  H   UNL     1      39.280 -24.254 -14.311  0.00  0.00    -0.084 HD
ENDBRANCH   1  15
TORSDOF 2
ENDMDL
