MODEL 1
REMARK VINA RESULT:     -11.2      0.000      0.000
REMARK  Name = 5326925
REMARK  6 active torsions:
REMARK  status: ('A' for Active; 'I' for Inactive)
REMARK    1  A    between atoms: C_5  and  O_9
REMARK    2  A    between atoms: C_6  and  O_22
REMARK    3  A    between atoms: O_9  and  C_10
REMARK    4  A    between atoms: C_13  and  C_18
REMARK    5  A    between atoms: O_22  and  C_23
REMARK    6  A    between atoms: C_28  and  C_31
REMARK                            x       y       z     vdW  Elec       q    Type
REMARK                         _______ _______ _______ _____ _____    ______ ____
ROOT
ATOM      1  O   UNL     1      34.920 -15.424 -20.560  0.00  0.00    -0.346 OA
ATOM      2  O   UNL     1      33.612 -15.637 -23.317  0.00  0.00    -0.346 OA
ATOM      3  C   UNL     1      33.075 -15.832 -21.998  0.00  0.00    +0.188 C 
ATOM      4  C   UNL     1      34.166 -16.488 -21.173  0.00  0.00    +0.188 C 
ATOM      5  C   UNL     1      32.869 -14.520 -21.280  0.00  0.00    +0.225 C 
ATOM      6  C   UNL     1      35.003 -17.201 -22.205  0.00  0.00    +0.225 C 
ATOM      7  C   UNL     1      34.274 -14.174 -20.841  0.00  0.00    +0.188 C 
ATOM      8  C   UNL     1      34.889 -16.290 -23.411  0.00  0.00    +0.188 C 
ENDROOT
BRANCH   5   9
ATOM      9  O   UNL     1      32.304 -13.517 -22.093  0.00  0.00    -0.474 OA
BRANCH   9  10
ATOM     10  C   UNL     1      32.062 -12.296 -21.507  0.00  0.00    +0.139 C 
ATOM     11  C   UNL     1      32.186 -11.139 -22.263  0.00  0.00    +0.040 C 
ATOM     12  C   UNL     1      31.698 -12.240 -20.169  0.00  0.00    +0.037 C 
ATOM     13  C   UNL     1      31.942  -9.900 -21.669  0.00  0.00    +0.034 C 
ATOM     14  C   UNL     1      31.454 -11.002 -19.575  0.00  0.00    +0.003 C 
ATOM     15  C   UNL     1      31.576  -9.832 -20.324  0.00  0.00    +0.003 C 
BRANCH  13  18
ATOM     16  N   UNL     1      32.962  -7.674 -22.084  0.00  0.00    -0.343 N 
ATOM     17  N   UNL     1      31.328  -8.510 -23.530  0.00  0.00    -0.285 NA
ATOM     18  C   UNL     1      32.070  -8.681 -22.451  0.00  0.00    +0.117 C 
ATOM     19  H   UNL     1      33.032  -6.857 -22.628  0.00  0.00    +0.144 HD
ATOM     20  H   UNL     1      33.522  -7.782 -21.281  0.00  0.00    +0.144 HD
ATOM     21  H   UNL     1      31.413  -7.685 -24.061  0.00  0.00    +0.188 HD
ENDBRANCH  13  18
ENDBRANCH   9  10
ENDBRANCH   5   9
BRANCH   6  22
ATOM     22  O   UNL     1      34.411 -18.455 -22.523  0.00  0.00    -0.474 OA
BRANCH  22  23
ATOM     23  C   UNL     1      34.421 -19.408 -21.539  0.00  0.00    +0.139 C 
ATOM     24  C   UNL     1      33.220 -19.857 -21.003  0.00  0.00    +0.037 C 
ATOM     25  C   UNL     1      35.633 -19.919 -21.087  0.00  0.00    +0.037 C 
ATOM     26  C   UNL     1      33.229 -20.828 -20.002  0.00  0.00    +0.006 C 
ATOM     27  C   UNL     1      35.643 -20.891 -20.087  0.00  0.00    +0.006 C 
ATOM     28  C   UNL     1      34.441 -21.345 -19.545  0.00  0.00    +0.031 C 
BRANCH  28  31
ATOM     29  N   UNL     1      33.366 -23.214 -18.310  0.00  0.00    -0.343 N 
ATOM     30  N   UNL     1      35.502 -22.478 -17.710  0.00  0.00    -0.285 NA
ATOM     31  C   UNL     1      34.451 -22.359 -18.501  0.00  0.00    +0.117 C 
ATOM     32  H   UNL     1      33.394 -23.893 -17.598  0.00  0.00    +0.144 HD
ATOM     33  H   UNL     1      32.573 -23.138 -18.887  0.00  0.00    +0.144 HD
ATOM     34  H   UNL     1      35.510 -23.164 -17.003  0.00  0.00    +0.188 HD
ENDBRANCH  28  31
ENDBRANCH  22  23
ENDBRANCH   6  22
TORSDOF 6
ENDMDL
MODEL 2
REMARK VINA RESULT:     -11.0      0.983      1.422
REMARK  Name = 5326925
REMARK  6 active torsions:
REMARK  status: ('A' for Active; 'I' for Inactive)
REMARK    1  A    between atoms: C_5  and  O_9
REMARK    2  A    between atoms: C_6  and  O_22
REMARK    3  A    between atoms: O_9  and  C_10
REMARK    4  A    between atoms: C_13  and  C_18
REMARK    5  A    between atoms: O_22  and  C_23
REMARK    6  A    between atoms: C_28  and  C_31
REMARK                            x       y       z     vdW  Elec       q    Type
REMARK                         _______ _______ _______ _____ _____    ______ ____
ROOT
ATOM      1  O   UNL     1      34.870 -15.559 -20.605  0.00  0.00    -0.346 OA
ATOM      2  O   UNL     1      34.221 -16.075 -23.549  0.00  0.00    -0.346 OA
ATOM      3  C   UNL     1      33.369 -15.986 -22.394  0.00  0.00    +0.188 C 
ATOM      4  C   UNL     1      34.126 -16.616 -21.241  0.00  0.00    +0.188 C 
ATOM      5  C   UNL     1      33.204 -14.558 -21.933  0.00  0.00    +0.225 C 
ATOM      6  C   UNL     1      35.062 -17.582 -21.923  0.00  0.00    +0.225 C 
ATOM      7  C   UNL     1      34.504 -14.307 -21.203  0.00  0.00    +0.188 C 
ATOM      8  C   UNL     1      35.370 -16.877 -23.229  0.00  0.00    +0.188 C 
ENDROOT
BRANCH   5   9
ATOM      9  O   UNL     1      33.002 -13.645 -22.988  0.00  0.00    -0.474 OA
BRANCH   9  10
ATOM     10  C   UNL     1      32.571 -12.382 -22.653  0.00  0.00    +0.139 C 
ATOM     11  C   UNL     1      33.131 -11.280 -23.284  0.00  0.00    +0.040 C 
ATOM     12  C   UNL     1      31.586 -12.230 -21.688  0.00  0.00    +0.037 C 
ATOM     13  C   UNL     1      32.696  -9.999 -22.943  0.00  0.00    +0.034 C 
ATOM     14  C   UNL     1      31.150 -10.950 -21.348  0.00  0.00    +0.003 C 
ATOM     15  C   UNL     1      31.704  -9.834 -21.975  0.00  0.00    +0.003 C 
BRANCH  13  18
ATOM     16  N   UNL     1      34.591  -8.844 -24.058  0.00  0.00    -0.343 N 
ATOM     17  N   UNL     1      32.551  -7.745 -23.760  0.00  0.00    -0.285 NA
ATOM     18  C   UNL     1      33.275  -8.836 -23.597  0.00  0.00    +0.117 C 
ATOM     19  H   UNL     1      34.963  -8.046 -24.498  0.00  0.00    +0.144 HD
ATOM     20  H   UNL     1      35.147  -9.649 -23.944  0.00  0.00    +0.144 HD
ATOM     21  H   UNL     1      32.941  -6.956 -24.202  0.00  0.00    +0.188 HD
ENDBRANCH  13  18
ENDBRANCH   9  10
ENDBRANCH   5   9
BRANCH   6  22
ATOM     22  O   UNL     1      34.376 -18.795 -22.211  0.00  0.00    -0.474 OA
BRANCH  22  23
ATOM     23  C   UNL     1      34.328 -19.728 -21.209  0.00  0.00    +0.139 C 
ATOM     24  C   UNL     1      35.509 -20.275 -20.720  0.00  0.00    +0.037 C 
ATOM     25  C   UNL     1      33.099 -20.118 -20.689  0.00  0.00    +0.037 C 
ATOM     26  C   UNL     1      35.461 -21.224 -19.699  0.00  0.00    +0.006 C 
ATOM     27  C   UNL     1      33.050 -21.066 -19.667  0.00  0.00    +0.006 C 
ATOM     28  C   UNL     1      34.231 -21.619 -19.173  0.00  0.00    +0.031 C 
BRANCH  28  31
ATOM     29  N   UNL     1      33.028 -23.354 -17.865  0.00  0.00    -0.343 N 
ATOM     30  N   UNL     1      35.239 -22.807 -17.344  0.00  0.00    -0.285 NA
ATOM     31  C   UNL     1      34.180 -22.608 -18.107  0.00  0.00    +0.117 C 
ATOM     32  H   UNL     1      33.015 -24.018 -17.139  0.00  0.00    +0.144 HD
ATOM     33  H   UNL     1      32.227 -23.218 -18.421  0.00  0.00    +0.144 HD
ATOM     34  H   UNL     1      35.207 -23.476 -16.622  0.00  0.00    +0.188 HD
ENDBRANCH  28  31
ENDBRANCH  22  23
ENDBRANCH   6  22
TORSDOF 6
ENDMDL
MODEL 3
REMARK VINA RESULT:     -10.9      1.817     10.249
REMARK  Name = 5326925
REMARK  6 active torsions:
REMARK  status: ('A' for Active; 'I' for Inactive)
REMARK    1  A    between atoms: C_5  and  O_9
REMARK    2  A    between atoms: C_6  and  O_22
REMARK    3  A    between atoms: O_9  and  C_10
REMARK    4  A    between atoms: C_13  and  C_18
REMARK    5  A    between atoms: O_22  and  C_23
REMARK    6  A    between atoms: C_28  and  C_31
REMARK                            x       y       z     vdW  Elec       q    Type
REMARK                         _______ _______ _______ _____ _____    ______ ____
ROOT
ATOM      1  O   UNL     1      32.973 -14.622 -21.187  0.00  0.00    -0.346 OA
ATOM      2  O   UNL     1      33.782 -15.535 -23.992  0.00  0.00    -0.346 OA
ATOM      3  C   UNL     1      34.572 -15.256 -22.824  0.00  0.00    +0.188 C 
ATOM      4  C   UNL     1      33.921 -14.077 -22.126  0.00  0.00    +0.188 C 
ATOM      5  C   UNL     1      34.450 -16.352 -21.793  0.00  0.00    +0.225 C 
ATOM      6  C   UNL     1      33.205 -13.361 -23.243  0.00  0.00    +0.225 C 
ATOM      7  C   UNL     1      33.108 -16.050 -21.165  0.00  0.00    +0.188 C 
ATOM      8  C   UNL     1      32.800 -14.499 -24.159  0.00  0.00    +0.188 C 
ENDROOT
BRANCH   5   9
ATOM      9  O   UNL     1      34.500 -17.649 -22.342  0.00  0.00    -0.474 OA
BRANCH   9  10
ATOM     10  C   UNL     1      35.082 -18.634 -21.578  0.00  0.00    +0.139 C 
ATOM     11  C   UNL     1      34.282 -19.594 -20.975  0.00  0.00    +0.040 C 
ATOM     12  C   UNL     1      36.461 -18.650 -21.420  0.00  0.00    +0.037 C 
ATOM     13  C   UNL     1      34.872 -20.591 -20.198  0.00  0.00    +0.034 C 
ATOM     14  C   UNL     1      37.051 -19.647 -20.645  0.00  0.00    +0.003 C 
ATOM     15  C   UNL     1      36.258 -20.618 -20.034  0.00  0.00    +0.003 C 
BRANCH  13  18
ATOM     16  N   UNL     1      32.702 -21.361 -19.267  0.00  0.00    -0.343 N 
ATOM     17  N   UNL     1      34.563 -22.775 -19.246  0.00  0.00    -0.285 NA
ATOM     18  C   UNL     1      34.044 -21.602 -19.561  0.00  0.00    +0.117 C 
ATOM     19  H   UNL     1      32.160 -22.060 -18.835  0.00  0.00    +0.144 HD
ATOM     20  H   UNL     1      32.298 -20.492 -19.492  0.00  0.00    +0.144 HD
ATOM     21  H   UNL     1      34.004 -23.461 -18.814  0.00  0.00    +0.188 HD
ENDBRANCH  13  18
ENDBRANCH   9  10
ENDBRANCH   5   9
BRANCH   6  22
ATOM     22  O   UNL     1      34.116 -12.519 -23.938  0.00  0.00    -0.474 OA
BRANCH  22  23
ATOM     23  C   UNL     1      33.889 -11.170 -23.862  0.00  0.00    +0.139 C 
ATOM     24  C   UNL     1      34.845 -10.283 -24.342  0.00  0.00    +0.037 C 
ATOM     25  C   UNL     1      32.704 -10.701 -23.307  0.00  0.00    +0.037 C 
ATOM     26  C   UNL     1      34.614  -8.909 -24.266  0.00  0.00    +0.006 C 
ATOM     27  C   UNL     1      32.472  -9.328 -23.231  0.00  0.00    +0.006 C 
ATOM     28  C   UNL     1      33.427  -8.433 -23.710  0.00  0.00    +0.031 C 
BRANCH  28  31
ATOM     29  N   UNL     1      32.653  -6.417 -22.483  0.00  0.00    -0.343 N 
ATOM     30  N   UNL     1      33.466  -6.228 -24.665  0.00  0.00    -0.285 NA
ATOM     31  C   UNL     1      33.185  -7.000 -23.631  0.00  0.00    +0.117 C 
ATOM     32  H   UNL     1      32.498  -5.446 -22.451  0.00  0.00    +0.144 HD
ATOM     33  H   UNL     1      32.434  -6.977 -21.703  0.00  0.00    +0.144 HD
ATOM     34  H   UNL     1      33.303  -5.258 -24.614  0.00  0.00    +0.188 HD
ENDBRANCH  28  31
ENDBRANCH  22  23
ENDBRANCH   6  22
TORSDOF 6
ENDMDL
MODEL 4
REMARK VINA RESULT:     -10.8      1.602      2.253
REMARK  Name = 5326925
REMARK  6 active torsions:
REMARK  status: ('A' for Active; 'I' for Inactive)
REMARK    1  A    between atoms: C_5  and  O_9
REMARK    2  A    between atoms: C_6  and  O_22
REMARK    3  A    between atoms: O_9  and  C_10
REMARK    4  A    between atoms: C_13  and  C_18
REMARK    5  A    between atoms: O_22  and  C_23
REMARK    6  A    between atoms: C_28  and  C_31
REMARK                            x       y       z     vdW  Elec       q    Type
REMARK                         _______ _______ _______ _____ _____    ______ ____
ROOT
ATOM      1  O   UNL     1      34.928 -15.895 -20.723  0.00  0.00    -0.346 OA
ATOM      2  O   UNL     1      34.903 -16.852 -23.628  0.00  0.00    -0.346 OA
ATOM      3  C   UNL     1      33.828 -16.568 -22.716  0.00  0.00    +0.188 C 
ATOM      4  C   UNL     1      34.285 -17.025 -21.344  0.00  0.00    +0.188 C 
ATOM      5  C   UNL     1      33.642 -15.083 -22.519  0.00  0.00    +0.225 C 
ATOM      6  C   UNL     1      35.294 -18.102 -21.652  0.00  0.00    +0.225 C 
ATOM      7  C   UNL     1      34.766 -14.746 -21.565  0.00  0.00    +0.188 C 
ATOM      8  C   UNL     1      35.913 -17.615 -22.947  0.00  0.00    +0.188 C 
ENDROOT
BRANCH   5   9
ATOM      9  O   UNL     1      33.720 -14.342 -23.715  0.00  0.00    -0.474 OA
BRANCH   9  10
ATOM     10  C   UNL     1      33.458 -12.993 -23.639  0.00  0.00    +0.139 C 
ATOM     11  C   UNL     1      32.594 -12.520 -22.662  0.00  0.00    +0.040 C 
ATOM     12  C   UNL     1      34.061 -12.128 -24.542  0.00  0.00    +0.037 C 
ATOM     13  C   UNL     1      32.327 -11.153 -22.586  0.00  0.00    +0.034 C 
ATOM     14  C   UNL     1      33.795 -10.762 -24.465  0.00  0.00    +0.003 C 
ATOM     15  C   UNL     1      32.928 -10.273 -23.488  0.00  0.00    +0.003 C 
BRANCH  13  18
ATOM     16  N   UNL     1      30.323 -11.386 -21.137  0.00  0.00    -0.343 N 
ATOM     17  N   UNL     1      31.635  -9.455 -21.033  0.00  0.00    -0.285 NA
ATOM     18  C   UNL     1      31.422 -10.644 -21.567  0.00  0.00    +0.117 C 
ATOM     19  H   UNL     1      29.723 -11.022 -20.447  0.00  0.00    +0.144 HD
ATOM     20  H   UNL     1      30.146 -12.274 -21.526  0.00  0.00    +0.144 HD
ATOM     21  H   UNL     1      31.023  -9.109 -20.343  0.00  0.00    +0.188 HD
ENDBRANCH  13  18
ENDBRANCH   9  10
ENDBRANCH   5   9
BRANCH   6  22
ATOM     22  O   UNL     1      34.624 -19.332 -21.902  0.00  0.00    -0.474 OA
BRANCH  22  23
ATOM     23  C   UNL     1      34.509 -20.196 -20.845  0.00  0.00    +0.139 C 
ATOM     24  C   UNL     1      33.250 -20.515 -20.350  0.00  0.00    +0.037 C 
ATOM     25  C   UNL     1      35.653 -20.748 -20.278  0.00  0.00    +0.037 C 
ATOM     26  C   UNL     1      33.132 -21.396 -19.274  0.00  0.00    +0.006 C 
ATOM     27  C   UNL     1      35.535 -21.629 -19.204  0.00  0.00    +0.006 C 
ATOM     28  C   UNL     1      34.275 -21.953 -18.702  0.00  0.00    +0.031 C 
BRANCH  28  31
ATOM     29  N   UNL     1      32.928 -23.447 -17.245  0.00  0.00    -0.343 N 
ATOM     30  N   UNL     1      35.216 -23.171 -16.857  0.00  0.00    -0.285 NA
ATOM     31  C   UNL     1      34.152 -22.872 -17.581  0.00  0.00    +0.117 C 
ATOM     32  H   UNL     1      32.867 -24.066 -16.483  0.00  0.00    +0.144 HD
ATOM     33  H   UNL     1      32.123 -23.233 -17.771  0.00  0.00    +0.144 HD
ATOM     34  H   UNL     1      35.135 -23.794 -16.098  0.00  0.00    +0.188 HD
ENDBRANCH  28  31
ENDBRANCH  22  23
ENDBRANCH   6  22
TORSDOF 6
ENDMDL
MODEL 5
REMARK VINA RESULT:     -10.5      1.890      2.813
REMARK  Name = 5326925
REMARK  6 active torsions:
REMARK  status: ('A' for Active; 'I' for Inactive)
REMARK    1  A    between atoms: C_5  and  O_9
REMARK    2  A    between atoms: C_6  and  O_22
REMARK    3  A    between atoms: O_9  and  C_10
REMARK    4  A    between atoms: C_13  and  C_18
REMARK    5  A    between atoms: O_22  and  C_23
REMARK    6  A    between atoms: C_28  and  C_31
REMARK                            x       y       z     vdW  Elec       q    Type
REMARK                         _______ _______ _______ _____ _____    ______ ____
ROOT
ATOM      1  O   UNL     1      33.455 -15.272 -24.861  0.00  0.00    -0.346 OA
ATOM      2  O   UNL     1      33.336 -14.439 -21.921  0.00  0.00    -0.346 OA
ATOM      3  C   UNL     1      34.299 -14.148 -22.948  0.00  0.00    +0.188 C 
ATOM      4  C   UNL     1      34.422 -15.396 -23.800  0.00  0.00    +0.188 C 
ATOM      5  C   UNL     1      33.773 -13.132 -23.933  0.00  0.00    +0.225 C 
ATOM      6  C   UNL     1      34.029 -16.504 -22.856  0.00  0.00    +0.225 C 
ATOM      7  C   UNL     1      32.856 -13.971 -24.795  0.00  0.00    +0.188 C 
ATOM      8  C   UNL     1      32.996 -15.835 -21.972  0.00  0.00    +0.188 C 
ENDROOT
BRANCH   5   9
ATOM      9  O   UNL     1      33.094 -12.057 -23.325  0.00  0.00    -0.474 OA
BRANCH   9  10
ATOM     10  C   UNL     1      33.563 -10.790 -23.584  0.00  0.00    +0.139 C 
ATOM     11  C   UNL     1      32.958  -9.699 -22.976  0.00  0.00    +0.040 C 
ATOM     12  C   UNL     1      34.633 -10.622 -24.453  0.00  0.00    +0.037 C 
ATOM     13  C   UNL     1      33.433  -8.414 -23.240  0.00  0.00    +0.034 C 
ATOM     14  C   UNL     1      35.108  -9.338 -24.716  0.00  0.00    +0.003 C 
ATOM     15  C   UNL     1      34.508  -8.234 -24.111  0.00  0.00    +0.003 C 
BRANCH  13  18
ATOM     16  N   UNL     1      32.527  -7.250 -21.242  0.00  0.00    -0.343 N 
ATOM     17  N   UNL     1      32.490  -6.207 -23.333  0.00  0.00    -0.285 NA
ATOM     18  C   UNL     1      32.807  -7.264 -22.608  0.00  0.00    +0.117 C 
ATOM     19  H   UNL     1      32.102  -6.460 -20.835  0.00  0.00    +0.144 HD
ATOM     20  H   UNL     1      32.753  -8.030 -20.686  0.00  0.00    +0.144 HD
ATOM     21  H   UNL     1      32.066  -5.426 -22.907  0.00  0.00    +0.188 HD
ENDBRANCH  13  18
ENDBRANCH   9  10
ENDBRANCH   5   9
BRANCH   6  22
ATOM     22  O   UNL     1      35.144 -16.873 -22.054  0.00  0.00    -0.474 OA
BRANCH  22  23
ATOM     23  C   UNL     1      35.075 -18.086 -21.422  0.00  0.00    +0.139 C 
ATOM     24  C   UNL     1      33.835 -18.666 -21.181  0.00  0.00    +0.037 C 
ATOM     25  C   UNL     1      36.245 -18.726 -21.029  0.00  0.00    +0.037 C 
ATOM     26  C   UNL     1      33.764 -19.903 -20.538  0.00  0.00    +0.006 C 
ATOM     27  C   UNL     1      36.174 -19.963 -20.388  0.00  0.00    +0.006 C 
ATOM     28  C   UNL     1      34.934 -20.551 -20.142  0.00  0.00    +0.031 C 
BRANCH  28  31
ATOM     29  N   UNL     1      33.786 -22.704 -19.680  0.00  0.00    -0.343 N 
ATOM     30  N   UNL     1      35.822 -22.208 -18.647  0.00  0.00    -0.285 NA
ATOM     31  C   UNL     1      34.860 -21.841 -19.473  0.00  0.00    +0.117 C 
ATOM     32  H   UNL     1      33.756 -23.572 -19.217  0.00  0.00    +0.144 HD
ATOM     33  H   UNL     1      33.057 -22.446 -20.290  0.00  0.00    +0.144 HD
ATOM     34  H   UNL     1      35.774 -23.081 -18.192  0.00  0.00    +0.188 HD
ENDBRANCH  28  31
ENDBRANCH  22  23
ENDBRANCH   6  22
TORSDOF 6
ENDMDL
MODEL 6
REMARK VINA RESULT:     -10.4      1.166      9.951
REMARK  Name = 5326925
REMARK  6 active torsions:
REMARK  status: ('A' for Active; 'I' for Inactive)
REMARK    1  A    between atoms: C_5  and  O_9
REMARK    2  A    between atoms: C_6  and  O_22
REMARK    3  A    between atoms: O_9  and  C_10
REMARK    4  A    between atoms: C_13  and  C_18
REMARK    5  A    between atoms: O_22  and  C_23
REMARK    6  A    between atoms: C_28  and  C_31
REMARK                            x       y       z     vdW  Elec       q    Type
REMARK                         _______ _______ _______ _____ _____    ______ ____
ROOT
ATOM      1  O   UNL     1      34.866 -14.934 -20.420  0.00  0.00    -0.346 OA
ATOM      2  O   UNL     1      32.248 -16.177 -21.401  0.00  0.00    -0.346 OA
ATOM      3  C   UNL     1      33.395 -15.694 -22.122  0.00  0.00    +0.188 C 
ATOM      4  C   UNL     1      33.896 -14.470 -21.380  0.00  0.00    +0.188 C 
ATOM      5  C   UNL     1      34.564 -16.643 -22.011  0.00  0.00    +0.225 C 
ATOM      6  C   UNL     1      32.664 -13.958 -20.678  0.00  0.00    +0.225 C 
ATOM      7  C   UNL     1      35.092 -16.335 -20.628  0.00  0.00    +0.188 C 
ATOM      8  C   UNL     1      31.902 -15.232 -20.374  0.00  0.00    +0.188 C 
ENDROOT
BRANCH   5   9
ATOM      9  O   UNL     1      34.204 -17.998 -22.153  0.00  0.00    -0.474 OA
BRANCH   9  10
ATOM     10  C   UNL     1      34.915 -18.918 -21.418  0.00  0.00    +0.139 C 
ATOM     11  C   UNL     1      34.237 -19.916 -20.732  0.00  0.00    +0.040 C 
ATOM     12  C   UNL     1      36.300 -18.833 -21.372  0.00  0.00    +0.037 C 
ATOM     13  C   UNL     1      34.958 -20.848 -19.985  0.00  0.00    +0.034 C 
ATOM     14  C   UNL     1      37.020 -19.764 -20.626  0.00  0.00    +0.003 C 
ATOM     15  C   UNL     1      36.351 -20.772 -19.932  0.00  0.00    +0.003 C 
BRANCH  13  18
ATOM     16  N   UNL     1      32.931 -22.214 -19.546  0.00  0.00    -0.343 N 
ATOM     17  N   UNL     1      34.883 -22.570 -18.312  0.00  0.00    -0.285 NA
ATOM     18  C   UNL     1      34.259 -21.898 -19.261  0.00  0.00    +0.117 C 
ATOM     19  H   UNL     1      32.477 -22.928 -19.044  0.00  0.00    +0.144 HD
ATOM     20  H   UNL     1      32.448 -21.721 -20.249  0.00  0.00    +0.144 HD
ATOM     21  H   UNL     1      34.411 -23.282 -17.820  0.00  0.00    +0.188 HD
ENDBRANCH  13  18
ENDBRANCH   9  10
ENDBRANCH   5   9
BRANCH   6  22
ATOM     22  O   UNL     1      31.892 -13.168 -21.575  0.00  0.00    -0.474 OA
BRANCH  22  23
ATOM     23  C   UNL     1      31.932 -11.811 -21.391  0.00  0.00    +0.139 C 
ATOM     24  C   UNL     1      31.723 -11.281 -20.124  0.00  0.00    +0.037 C 
ATOM     25  C   UNL     1      32.184 -10.976 -22.475  0.00  0.00    +0.037 C 
ATOM     26  C   UNL     1      31.765  -9.899 -19.936  0.00  0.00    +0.006 C 
ATOM     27  C   UNL     1      32.227  -9.595 -22.288  0.00  0.00    +0.006 C 
ATOM     28  C   UNL     1      32.018  -9.057 -21.018  0.00  0.00    +0.031 C 
BRANCH  28  31
ATOM     29  N   UNL     1      31.505  -6.740 -21.753  0.00  0.00    -0.343 N 
ATOM     30  N   UNL     1      32.646  -7.116 -19.749  0.00  0.00    -0.285 NA
ATOM     31  C   UNL     1      32.063  -7.616 -20.823  0.00  0.00    +0.117 C 
ATOM     32  H   UNL     1      31.546  -5.769 -21.601  0.00  0.00    +0.144 HD
ATOM     33  H   UNL     1      31.068  -7.094 -22.562  0.00  0.00    +0.144 HD
ATOM     34  H   UNL     1      32.678  -6.140 -19.615  0.00  0.00    +0.188 HD
ENDBRANCH  28  31
ENDBRANCH  22  23
ENDBRANCH   6  22
TORSDOF 6
ENDMDL
MODEL 7
REMARK VINA RESULT:     -10.4      4.956     11.108
REMARK  Name = 5326925
REMARK  6 active torsions:
REMARK  status: ('A' for Active; 'I' for Inactive)
REMARK    1  A    between atoms: C_5  and  O_9
REMARK    2  A    between atoms: C_6  and  O_22
REMARK    3  A    between atoms: O_9  and  C_10
REMARK    4  A    between atoms: C_13  and  C_18
REMARK    5  A    between atoms: O_22  and  C_23
REMARK    6  A    between atoms: C_28  and  C_31
REMARK                            x       y       z     vdW  Elec       q    Type
REMARK                         _______ _______ _______ _____ _____    ______ ____
ROOT
ATOM      1  O   UNL     1      33.446 -22.557 -19.402  0.00  0.00    -0.346 OA
ATOM      2  O   UNL     1      36.387 -22.079 -18.711  0.00  0.00    -0.346 OA
ATOM      3  C   UNL     1      35.180 -21.664 -18.049  0.00  0.00    +0.188 C 
ATOM      4  C   UNL     1      34.172 -21.342 -19.135  0.00  0.00    +0.188 C 
ATOM      5  C   UNL     1      34.520 -22.811 -17.323  0.00  0.00    +0.225 C 
ATOM      6  C   UNL     1      35.036 -20.974 -20.315  0.00  0.00    +0.225 C 
ATOM      7  C   UNL     1      33.845 -23.556 -18.453  0.00  0.00    +0.188 C 
ATOM      8  C   UNL     1      36.251 -21.860 -20.126  0.00  0.00    +0.188 C 
ENDROOT
BRANCH   5   9
ATOM      9  O   UNL     1      35.427 -23.627 -16.617  0.00  0.00    -0.474 OA
BRANCH   9  10
ATOM     10  C   UNL     1      35.261 -23.720 -15.254  0.00  0.00    +0.139 C 
ATOM     11  C   UNL     1      36.353 -23.535 -14.418  0.00  0.00    +0.040 C 
ATOM     12  C   UNL     1      34.003 -23.999 -14.738  0.00  0.00    +0.037 C 
ATOM     13  C   UNL     1      36.184 -23.631 -13.037  0.00  0.00    +0.034 C 
ATOM     14  C   UNL     1      33.834 -24.094 -13.357  0.00  0.00    +0.003 C 
ATOM     15  C   UNL     1      34.924 -23.911 -12.506  0.00  0.00    +0.003 C 
BRANCH  13  18
ATOM     16  N   UNL     1      38.413 -24.307 -12.175  0.00  0.00    -0.343 N 
ATOM     17  N   UNL     1      37.328 -22.432 -11.298  0.00  0.00    -0.285 NA
ATOM     18  C   UNL     1      37.321 -23.440 -12.150  0.00  0.00    +0.117 C 
ATOM     19  H   UNL     1      39.172 -24.159 -11.566  0.00  0.00    +0.144 HD
ATOM     20  H   UNL     1      38.425 -25.066 -12.802  0.00  0.00    +0.144 HD
ATOM     21  H   UNL     1      38.097 -22.301 -10.696  0.00  0.00    +0.188 HD
ENDBRANCH  13  18
ENDBRANCH   9  10
ENDBRANCH   5   9
BRANCH   6  22
ATOM     22  O   UNL     1      35.442 -19.614 -20.210  0.00  0.00    -0.474 OA
BRANCH  22  23
ATOM     23  C   UNL     1      35.181 -18.808 -21.286  0.00  0.00    +0.139 C 
ATOM     24  C   UNL     1      34.959 -19.377 -22.535  0.00  0.00    +0.037 C 
ATOM     25  C   UNL     1      35.137 -17.428 -21.118  0.00  0.00    +0.037 C 
ATOM     26  C   UNL     1      34.692 -18.556 -23.631  0.00  0.00    +0.006 C 
ATOM     27  C   UNL     1      34.868 -16.607 -22.214  0.00  0.00    +0.006 C 
ATOM     28  C   UNL     1      34.646 -17.172 -23.469  0.00  0.00    +0.031 C 
BRANCH  28  31
ATOM     29  N   UNL     1      33.752 -15.074 -24.454  0.00  0.00    -0.343 N 
ATOM     30  N   UNL     1      34.690 -16.715 -25.828  0.00  0.00    -0.285 NA
ATOM     31  C   UNL     1      34.366 -16.315 -24.612  0.00  0.00    +0.117 C 
ATOM     32  H   UNL     1      33.572 -14.510 -25.240  0.00  0.00    +0.144 HD
ATOM     33  H   UNL     1      33.500 -14.760 -23.556  0.00  0.00    +0.144 HD
ATOM     34  H   UNL     1      34.501 -16.137 -26.603  0.00  0.00    +0.188 HD
ENDBRANCH  28  31
ENDBRANCH  22  23
ENDBRANCH   6  22
TORSDOF 6
ENDMDL
MODEL 8
REMARK VINA RESULT:     -10.4      1.491      9.595
REMARK  Name = 5326925
REMARK  6 active torsions:
REMARK  status: ('A' for Active; 'I' for Inactive)
REMARK    1  A    between atoms: C_5  and  O_9
REMARK    2  A    between atoms: C_6  and  O_22
REMARK    3  A    between atoms: O_9  and  C_10
REMARK    4  A    between atoms: C_13  and  C_18
REMARK    5  A    between atoms: O_22  and  C_23
REMARK    6  A    between atoms: C_28  and  C_31
REMARK                            x       y       z     vdW  Elec       q    Type
REMARK                         _______ _______ _______ _____ _____    ______ ____
ROOT
ATOM      1  O   UNL     1      33.873 -15.663 -24.677  0.00  0.00    -0.346 OA
ATOM      2  O   UNL     1      34.704 -14.723 -21.887  0.00  0.00    -0.346 OA
ATOM      3  C   UNL     1      33.833 -15.788 -22.306  0.00  0.00    +0.188 C 
ATOM      4  C   UNL     1      33.087 -15.288 -23.528  0.00  0.00    +0.188 C 
ATOM      5  C   UNL     1      34.610 -16.960 -22.856  0.00  0.00    +0.225 C 
ATOM      6  C   UNL     1      33.091 -13.790 -23.353  0.00  0.00    +0.225 C 
ATOM      7  C   UNL     1      34.969 -16.480 -24.243  0.00  0.00    +0.188 C 
ATOM      8  C   UNL     1      34.413 -13.543 -22.654  0.00  0.00    +0.188 C 
ENDROOT
BRANCH   5   9
ATOM      9  O   UNL     1      35.750 -17.286 -22.094  0.00  0.00    -0.474 OA
BRANCH   9  10
ATOM     10  C   UNL     1      35.724 -18.474 -21.400  0.00  0.00    +0.139 C 
ATOM     11  C   UNL     1      34.504 -19.038 -21.056  0.00  0.00    +0.040 C 
ATOM     12  C   UNL     1      36.920 -19.087 -21.052  0.00  0.00    +0.037 C 
ATOM     13  C   UNL     1      34.478 -20.241 -20.350  0.00  0.00    +0.034 C 
ATOM     14  C   UNL     1      36.894 -20.290 -20.348  0.00  0.00    +0.003 C 
ATOM     15  C   UNL     1      35.674 -20.867 -19.996  0.00  0.00    +0.003 C 
BRANCH  13  18
ATOM     16  N   UNL     1      33.124 -22.169 -19.564  0.00  0.00    -0.343 N 
ATOM     17  N   UNL     1      32.097 -20.127 -20.051  0.00  0.00    -0.285 NA
ATOM     18  C   UNL     1      33.205 -20.842 -19.984  0.00  0.00    +0.117 C 
ATOM     19  H   UNL     1      32.253 -22.556 -19.321  0.00  0.00    +0.144 HD
ATOM     20  H   UNL     1      33.940 -22.718 -19.510  0.00  0.00    +0.144 HD
ATOM     21  H   UNL     1      31.234 -20.533 -19.804  0.00  0.00    +0.188 HD
ENDBRANCH  13  18
ENDBRANCH   9  10
ENDBRANCH   5   9
BRANCH   6  22
ATOM     22  O   UNL     1      32.036 -13.405 -22.480  0.00  0.00    -0.474 OA
BRANCH  22  23
ATOM     23  C   UNL     1      32.024 -12.098 -22.068  0.00  0.00    +0.139 C 
ATOM     24  C   UNL     1      32.355 -11.090 -22.965  0.00  0.00    +0.037 C 
ATOM     25  C   UNL     1      31.678 -11.793 -20.756  0.00  0.00    +0.037 C 
ATOM     26  C   UNL     1      32.342  -9.759 -22.546  0.00  0.00    +0.006 C 
ATOM     27  C   UNL     1      31.663 -10.463 -20.336  0.00  0.00    +0.006 C 
ATOM     28  C   UNL     1      31.995  -9.447 -21.232  0.00  0.00    +0.031 C 
BRANCH  28  31
ATOM     29  N   UNL     1      31.736  -7.019 -21.689  0.00  0.00    -0.343 N 
ATOM     30  N   UNL     1      32.207  -7.767 -19.526  0.00  0.00    -0.285 NA
ATOM     31  C   UNL     1      31.980  -8.059 -20.794  0.00  0.00    +0.117 C 
ATOM     32  H   UNL     1      31.730  -6.088 -21.372  0.00  0.00    +0.144 HD
ATOM     33  H   UNL     1      31.568  -7.217 -22.639  0.00  0.00    +0.144 HD
ATOM     34  H   UNL     1      32.197  -6.828 -19.228  0.00  0.00    +0.188 HD
ENDBRANCH  28  31
ENDBRANCH  22  23
ENDBRANCH   6  22
TORSDOF 6
ENDMDL
MODEL 9
REMARK VINA RESULT:     -10.1      2.755      4.038
REMARK  Name = 5326925
REMARK  6 active torsions:
REMARK  status: ('A' for Active; 'I' for Inactive)
REMARK    1  A    between atoms: C_5  and  O_9
REMARK    2  A    between atoms: C_6  and  O_22
REMARK    3  A    between atoms: O_9  and  C_10
REMARK    4  A    between atoms: C_13  and  C_18
REMARK    5  A    between atoms: O_22  and  C_23
REMARK    6  A    between atoms: C_28  and  C_31
REMARK                            x       y       z     vdW  Elec       q    Type
REMARK                         _______ _______ _______ _____ _____    ______ ____
ROOT
ATOM      1  O   UNL     1      34.971 -17.128 -20.563  0.00  0.00    -0.346 OA
ATOM      2  O   UNL     1      36.286 -18.658 -22.863  0.00  0.00    -0.346 OA
ATOM      3  C   UNL     1      34.902 -18.480 -22.513  0.00  0.00    +0.188 C 
ATOM      4  C   UNL     1      34.828 -18.494 -20.999  0.00  0.00    +0.188 C 
ATOM      5  C   UNL     1      34.416 -17.092 -22.850  0.00  0.00    +0.225 C 
ATOM      6  C   UNL     1      36.034 -19.305 -20.596  0.00  0.00    +0.225 C 
ATOM      7  C   UNL     1      34.983 -16.271 -21.714  0.00  0.00    +0.188 C 
ATOM      8  C   UNL     1      37.039 -18.961 -21.676  0.00  0.00    +0.188 C 
ENDROOT
BRANCH   5   9
ATOM      9  O   UNL     1      34.854 -16.631 -24.108  0.00  0.00    -0.474 OA
BRANCH   9  10
ATOM     10  C   UNL     1      34.182 -15.564 -24.657  0.00  0.00    +0.139 C 
ATOM     11  C   UNL     1      34.193 -14.340 -24.002  0.00  0.00    +0.040 C 
ATOM     12  C   UNL     1      33.503 -15.727 -25.856  0.00  0.00    +0.037 C 
ATOM     13  C   UNL     1      33.510 -13.258 -24.557  0.00  0.00    +0.034 C 
ATOM     14  C   UNL     1      32.821 -14.646 -26.411  0.00  0.00    +0.003 C 
ATOM     15  C   UNL     1      32.824 -13.411 -25.763  0.00  0.00    +0.003 C 
BRANCH  13  18
ATOM     16  N   UNL     1      32.547 -11.651 -22.926  0.00  0.00    -0.343 N 
ATOM     17  N   UNL     1      34.442 -11.078 -24.168  0.00  0.00    -0.285 NA
ATOM     18  C   UNL     1      33.513 -11.971 -23.880  0.00  0.00    +0.117 C 
ATOM     19  H   UNL     1      32.568 -10.774 -22.480  0.00  0.00    +0.144 HD
ATOM     20  H   UNL     1      31.845 -12.303 -22.700  0.00  0.00    +0.144 HD
ATOM     21  H   UNL     1      34.446 -10.206 -23.711  0.00  0.00    +0.188 HD
ENDBRANCH  13  18
ENDBRANCH   9  10
ENDBRANCH   5   9
BRANCH   6  22
ATOM     22  O   UNL     1      35.731 -20.692 -20.680  0.00  0.00    -0.474 OA
BRANCH  22  23
ATOM     23  C   UNL     1      35.549 -21.356 -19.495  0.00  0.00    +0.139 C 
ATOM     24  C   UNL     1      34.339 -21.988 -19.240  0.00  0.00    +0.037 C 
ATOM     25  C   UNL     1      36.579 -21.392 -18.561  0.00  0.00    +0.037 C 
ATOM     26  C   UNL     1      34.153 -22.665 -18.033  0.00  0.00    +0.006 C 
ATOM     27  C   UNL     1      36.394 -22.070 -17.356  0.00  0.00    +0.006 C 
ATOM     28  C   UNL     1      35.181 -22.706 -17.093  0.00  0.00    +0.031 C 
BRANCH  28  31
ATOM     29  N   UNL     1      34.478 -22.766 -14.711  0.00  0.00    -0.343 N 
ATOM     30  N   UNL     1      35.307 -24.691 -15.745  0.00  0.00    -0.285 NA
ATOM     31  C   UNL     1      34.989 -23.412 -15.835  0.00  0.00    +0.117 C 
ATOM     32  H   UNL     1      34.356 -23.263 -13.871  0.00  0.00    +0.144 HD
ATOM     33  H   UNL     1      34.238 -21.812 -14.758  0.00  0.00    +0.144 HD
ATOM     34  H   UNL     1      35.177 -25.171 -14.895  0.00  0.00    +0.188 HD
ENDBRANCH  28  31
ENDBRANCH  22  23
ENDBRANCH   6  22
TORSDOF 6
ENDMDL
