MODEL 1
REMARK VINA RESULT:      -6.1      0.000      0.000
REMARK  Name = 3284
REMARK  3 active torsions:
REMARK  status: ('A' for Active; 'I' for Inactive)
REMARK    1  A    between atoms: C_1  and  C_7
REMARK    2  A    between atoms: C_1  and  O_9
REMARK    3  A    between atoms: O_9  and  C_12
REMARK                            x       y       z     vdW  Elec       q    Type
REMARK                         _______ _______ _______ _____ _____    ______ ____
ROOT
ATOM      1  C   UNL     1      35.229 -17.985 -21.789  0.00  0.00    +0.191 C 
ATOM      2  C   UNL     1      34.100 -19.026 -21.736  0.00  0.00    +0.053 C 
ATOM      3  C   UNL     1      36.604 -18.666 -21.709  0.00  0.00    +0.053 C 
ATOM      4  C   UNL     1      34.225 -19.957 -20.528  0.00  0.00    +0.005 C 
ATOM      5  C   UNL     1      36.722 -19.594 -20.499  0.00  0.00    +0.005 C 
ATOM      6  C   UNL     1      35.596 -20.623 -20.470  0.00  0.00    +0.000 C 
ENDROOT
BRANCH   1   7
ATOM      7  C   UNL     1      35.123 -17.190 -23.025  0.00  0.00    -0.040 C 
ATOM      8  C   UNL     1      35.035 -16.542 -24.032  0.00  0.00    -0.011 C 
ENDBRANCH   1   7
BRANCH   1   9
ATOM      9  O   UNL     1      35.073 -17.111 -20.668  0.00  0.00    -0.430 OA
BRANCH   9  12
ATOM     10  O   UNL     1      32.921 -16.342 -20.948  0.00  0.00    -0.227 OA
ATOM     11  N   UNL     1      34.696 -14.894 -20.743  0.00  0.00    -0.295 N 
ATOM     12  C   UNL     1      34.122 -16.141 -20.800  0.00  0.00    +0.399 C 
ATOM     13  H   UNL     1      35.669 -14.806 -20.622  0.00  0.00    +0.148 HD
ATOM     14  H   UNL     1      34.135 -14.090 -20.823  0.00  0.00    +0.148 HD
ENDBRANCH   9  12
ENDBRANCH   1   9
TORSDOF 3
ENDMDL
MODEL 2
REMARK VINA RESULT:      -6.0      2.421      3.257
REMARK  Name = 3284
REMARK  3 active torsions:
REMARK  status: ('A' for Active; 'I' for Inactive)
REMARK    1  A    between atoms: C_1  and  C_7
REMARK    2  A    between atoms: C_1  and  O_9
REMARK    3  A    between atoms: O_9  and  C_12
REMARK                            x       y       z     vdW  Elec       q    Type
REMARK                         _______ _______ _______ _____ _____    ______ ____
ROOT
ATOM      1  C   UNL     1      34.281 -18.910 -21.322  0.00  0.00    +0.191 C 
ATOM      2  C   UNL     1      35.597 -19.315 -20.641  0.00  0.00    +0.053 C 
ATOM      3  C   UNL     1      33.072 -19.450 -20.542  0.00  0.00    +0.053 C 
ATOM      4  C   UNL     1      35.683 -20.822 -20.394  0.00  0.00    +0.005 C 
ATOM      5  C   UNL     1      33.165 -20.957 -20.300  0.00  0.00    +0.005 C 
ATOM      6  C   UNL     1      34.476 -21.335 -19.617  0.00  0.00    +0.000 C 
ENDROOT
BRANCH   1   7
ATOM      7  C   UNL     1      34.203 -17.443 -21.435  0.00  0.00    -0.040 C 
ATOM      8  C   UNL     1      34.140 -16.247 -21.526  0.00  0.00    -0.011 C 
ENDBRANCH   1   7
BRANCH   1   9
ATOM      9  O   UNL     1      34.277 -19.470 -22.638  0.00  0.00    -0.430 OA
BRANCH   9  12
ATOM     10  O   UNL     1      36.220 -18.496 -23.398  0.00  0.00    -0.227 OA
ATOM     11  N   UNL     1      34.333 -18.593 -24.709  0.00  0.00    -0.295 N 
ATOM     12  C   UNL     1      35.050 -18.825 -23.560  0.00  0.00    +0.399 C 
ATOM     13  H   UNL     1      33.396 -18.886 -24.772  0.00  0.00    +0.148 HD
ATOM     14  H   UNL     1      34.758 -18.135 -25.469  0.00  0.00    +0.148 HD
ENDBRANCH   9  12
ENDBRANCH   1   9
TORSDOF 3
ENDMDL
MODEL 3
REMARK VINA RESULT:      -6.0      2.506      4.255
REMARK  Name = 3284
REMARK  3 active torsions:
REMARK  status: ('A' for Active; 'I' for Inactive)
REMARK    1  A    between atoms: C_1  and  C_7
REMARK    2  A    between atoms: C_1  and  O_9
REMARK    3  A    between atoms: O_9  and  C_12
REMARK                            x       y       z     vdW  Elec       q    Type
REMARK                         _______ _______ _______ _____ _____    ______ ____
ROOT
ATOM      1  C   UNL     1      34.618 -19.073 -21.177  0.00  0.00    +0.191 C 
ATOM      2  C   UNL     1      34.741 -19.462 -22.658  0.00  0.00    +0.053 C 
ATOM      3  C   UNL     1      34.151 -17.616 -21.032  0.00  0.00    +0.053 C 
ATOM      4  C   UNL     1      35.616 -18.484 -23.445  0.00  0.00    +0.005 C 
ATOM      5  C   UNL     1      35.030 -16.644 -21.821  0.00  0.00    +0.005 C 
ATOM      6  C   UNL     1      35.133 -17.046 -23.288  0.00  0.00    +0.000 C 
ENDROOT
BRANCH   1   7
ATOM      7  C   UNL     1      33.681 -19.982 -20.495  0.00  0.00    -0.040 C 
ATOM      8  C   UNL     1      32.916 -20.721 -19.938  0.00  0.00    -0.011 C 
ENDBRANCH   1   7
BRANCH   1   9
ATOM      9  O   UNL     1      35.909 -19.213 -20.578  0.00  0.00    -0.430 OA
BRANCH   9  12
ATOM     10  O   UNL     1      36.192 -21.474 -20.903  0.00  0.00    -0.227 OA
ATOM     11  N   UNL     1      36.675 -20.482 -18.886  0.00  0.00    -0.295 N 
ATOM     12  C   UNL     1      36.251 -20.477 -20.192  0.00  0.00    +0.399 C 
ATOM     13  H   UNL     1      36.697 -19.643 -18.372  0.00  0.00    +0.148 HD
ATOM     14  H   UNL     1      36.957 -21.325 -18.464  0.00  0.00    +0.148 HD
ENDBRANCH   9  12
ENDBRANCH   1   9
TORSDOF 3
ENDMDL
MODEL 4
REMARK VINA RESULT:      -5.8      8.800     10.826
REMARK  Name = 3284
REMARK  3 active torsions:
REMARK  status: ('A' for Active; 'I' for Inactive)
REMARK    1  A    between atoms: C_1  and  C_7
REMARK    2  A    between atoms: C_1  and  O_9
REMARK    3  A    between atoms: O_9  and  C_12
REMARK                            x       y       z     vdW  Elec       q    Type
REMARK                         _______ _______ _______ _____ _____    ______ ____
ROOT
ATOM      1  C   UNL     1      32.820  -8.328 -22.768  0.00  0.00    +0.191 C 
ATOM      2  C   UNL     1      33.992  -8.645 -23.710  0.00  0.00    +0.053 C 
ATOM      3  C   UNL     1      31.858  -7.319 -23.413  0.00  0.00    +0.053 C 
ATOM      4  C   UNL     1      34.704  -7.382 -24.198  0.00  0.00    +0.005 C 
ATOM      5  C   UNL     1      32.577  -6.058 -23.897  0.00  0.00    +0.005 C 
ATOM      6  C   UNL     1      33.731  -6.397 -24.835  0.00  0.00    +0.000 C 
ENDROOT
BRANCH   1   7
ATOM      7  C   UNL     1      32.105  -9.567 -22.419  0.00  0.00    -0.040 C 
ATOM      8  C   UNL     1      31.521 -10.578 -22.136  0.00  0.00    -0.011 C 
ENDBRANCH   1   7
BRANCH   1   9
ATOM      9  O   UNL     1      33.362  -7.760 -21.572  0.00  0.00    -0.430 OA
BRANCH   9  12
ATOM     10  O   UNL     1      31.629  -6.611 -20.583  0.00  0.00    -0.227 OA
ATOM     11  N   UNL     1      32.622  -8.409 -19.549  0.00  0.00    -0.295 N 
ATOM     12  C   UNL     1      32.464  -7.509 -20.575  0.00  0.00    +0.399 C 
ATOM     13  H   UNL     1      33.314  -9.107 -19.608  0.00  0.00    +0.148 HD
ATOM     14  H   UNL     1      32.043  -8.356 -18.755  0.00  0.00    +0.148 HD
ENDBRANCH   9  12
ENDBRANCH   1   9
TORSDOF 3
ENDMDL
MODEL 5
REMARK VINA RESULT:      -5.7      8.590     10.134
REMARK  Name = 3284
REMARK  3 active torsions:
REMARK  status: ('A' for Active; 'I' for Inactive)
REMARK    1  A    between atoms: C_1  and  C_7
REMARK    2  A    between atoms: C_1  and  O_9
REMARK    3  A    between atoms: O_9  and  C_12
REMARK                            x       y       z     vdW  Elec       q    Type
REMARK                         _______ _______ _______ _____ _____    ______ ____
ROOT
ATOM      1  C   UNL     1      32.827  -7.898 -22.773  0.00  0.00    +0.191 C 
ATOM      2  C   UNL     1      32.144  -9.212 -23.182  0.00  0.00    +0.053 C 
ATOM      3  C   UNL     1      33.907  -7.504 -23.792  0.00  0.00    +0.053 C 
ATOM      4  C   UNL     1      33.150 -10.336 -23.436  0.00  0.00    +0.005 C 
ATOM      5  C   UNL     1      34.910  -8.632 -24.040  0.00  0.00    +0.005 C 
ATOM      6  C   UNL     1      34.211  -9.923 -24.451  0.00  0.00    +0.000 C 
ENDROOT
BRANCH   1   7
ATOM      7  C   UNL     1      31.824  -6.826 -22.650  0.00  0.00    -0.040 C 
ATOM      8  C   UNL     1      31.007  -5.952 -22.549  0.00  0.00    -0.011 C 
ENDBRANCH   1   7
BRANCH   1   9
ATOM      9  O   UNL     1      33.439  -8.101 -21.497  0.00  0.00    -0.430 OA
BRANCH   9  12
ATOM     10  O   UNL     1      31.757  -9.156 -20.332  0.00  0.00    -0.227 OA
ATOM     11  N   UNL     1      32.771  -7.258 -19.521  0.00  0.00    -0.295 N 
ATOM     12  C   UNL     1      32.582  -8.256 -20.445  0.00  0.00    +0.399 C 
ATOM     13  H   UNL     1      33.453  -6.566 -19.676  0.00  0.00    +0.148 HD
ATOM     14  H   UNL     1      32.225  -7.236 -18.703  0.00  0.00    +0.148 HD
ENDBRANCH   9  12
ENDBRANCH   1   9
TORSDOF 3
ENDMDL
MODEL 6
REMARK VINA RESULT:      -5.7      3.881      5.340
REMARK  Name = 3284
REMARK  3 active torsions:
REMARK  status: ('A' for Active; 'I' for Inactive)
REMARK    1  A    between atoms: C_1  and  C_7
REMARK    2  A    between atoms: C_1  and  O_9
REMARK    3  A    between atoms: O_9  and  C_12
REMARK                            x       y       z     vdW  Elec       q    Type
REMARK                         _______ _______ _______ _____ _____    ______ ____
ROOT
ATOM      1  C   UNL     1      33.433 -13.967 -23.590  0.00  0.00    +0.191 C 
ATOM      2  C   UNL     1      34.719 -14.762 -23.315  0.00  0.00    +0.053 C 
ATOM      3  C   UNL     1      32.678 -13.679 -22.283  0.00  0.00    +0.053 C 
ATOM      4  C   UNL     1      34.455 -16.028 -22.497  0.00  0.00    +0.005 C 
ATOM      5  C   UNL     1      32.417 -14.949 -21.472  0.00  0.00    +0.005 C 
ATOM      6  C   UNL     1      33.707 -15.718 -21.205  0.00  0.00    +0.000 C 
ENDROOT
BRANCH   1   7
ATOM      7  C   UNL     1      33.759 -12.708 -24.282  0.00  0.00    -0.040 C 
ATOM      8  C   UNL     1      34.025 -11.681 -24.844  0.00  0.00    -0.011 C 
ENDBRANCH   1   7
BRANCH   1   9
ATOM      9  O   UNL     1      32.604 -14.757 -24.446  0.00  0.00    -0.430 OA
BRANCH   9  12
ATOM     10  O   UNL     1      34.033 -15.658 -26.010  0.00  0.00    -0.227 OA
ATOM     11  N   UNL     1      32.320 -14.251 -26.619  0.00  0.00    -0.295 N 
ATOM     12  C   UNL     1      33.074 -14.954 -25.712  0.00  0.00    +0.399 C 
ATOM     13  H   UNL     1      31.561 -13.704 -26.311  0.00  0.00    +0.148 HD
ATOM     14  H   UNL     1      32.537 -14.294 -27.578  0.00  0.00    +0.148 HD
ENDBRANCH   9  12
ENDBRANCH   1   9
TORSDOF 3
ENDMDL
MODEL 7
REMARK VINA RESULT:      -5.7      8.875     10.672
REMARK  Name = 3284
REMARK  3 active torsions:
REMARK  status: ('A' for Active; 'I' for Inactive)
REMARK    1  A    between atoms: C_1  and  C_7
REMARK    2  A    between atoms: C_1  and  O_9
REMARK    3  A    between atoms: O_9  and  C_12
REMARK                            x       y       z     vdW  Elec       q    Type
REMARK                         _______ _______ _______ _____ _____    ______ ____
ROOT
ATOM      1  C   UNL     1      37.761 -24.368 -13.368  0.00  0.00    +0.191 C 
ATOM      2  C   UNL     1      36.508 -25.255 -13.310  0.00  0.00    +0.053 C 
ATOM      3  C   UNL     1      38.173 -23.913 -11.959  0.00  0.00    +0.053 C 
ATOM      4  C   UNL     1      35.360 -24.590 -12.548  0.00  0.00    +0.005 C 
ATOM      5  C   UNL     1      37.021 -23.248 -11.204  0.00  0.00    +0.005 C 
ATOM      6  C   UNL     1      35.791 -24.148 -11.154  0.00  0.00    +0.000 C 
ENDROOT
BRANCH   1   7
ATOM      7  C   UNL     1      38.865 -25.099 -14.014  0.00  0.00    -0.040 C 
ATOM      8  C   UNL     1      39.766 -25.693 -14.540  0.00  0.00    -0.011 C 
ENDBRANCH   1   7
BRANCH   1   9
ATOM      9  O   UNL     1      37.449 -23.219 -14.159  0.00  0.00    -0.430 OA
BRANCH   9  12
ATOM     10  O   UNL     1      36.171 -24.082 -15.869  0.00  0.00    -0.227 OA
ATOM     11  N   UNL     1      38.106 -22.914 -16.289  0.00  0.00    -0.295 N 
ATOM     12  C   UNL     1      37.151 -23.463 -15.469  0.00  0.00    +0.399 C 
ATOM     13  H   UNL     1      38.869 -22.428 -15.900  0.00  0.00    +0.148 HD
ATOM     14  H   UNL     1      38.028 -23.006 -17.266  0.00  0.00    +0.148 HD
ENDBRANCH   9  12
ENDBRANCH   1   9
TORSDOF 3
ENDMDL
MODEL 8
REMARK VINA RESULT:      -5.6      4.139      5.196
REMARK  Name = 3284
REMARK  3 active torsions:
REMARK  status: ('A' for Active; 'I' for Inactive)
REMARK    1  A    between atoms: C_1  and  C_7
REMARK    2  A    between atoms: C_1  and  O_9
REMARK    3  A    between atoms: O_9  and  C_12
REMARK                            x       y       z     vdW  Elec       q    Type
REMARK                         _______ _______ _______ _____ _____    ______ ____
ROOT
ATOM      1  C   UNL     1      33.493 -14.046 -23.484  0.00  0.00    +0.191 C 
ATOM      2  C   UNL     1      32.245 -13.827 -22.615  0.00  0.00    +0.053 C 
ATOM      3  C   UNL     1      34.290 -15.266 -22.997  0.00  0.00    +0.053 C 
ATOM      4  C   UNL     1      32.580 -13.753 -21.124  0.00  0.00    +0.005 C 
ATOM      5  C   UNL     1      34.623 -15.185 -21.506  0.00  0.00    +0.005 C 
ATOM      6  C   UNL     1      33.369 -14.974 -20.663  0.00  0.00    +0.000 C 
ENDROOT
BRANCH   1   7
ATOM      7  C   UNL     1      33.102 -14.219 -24.893  0.00  0.00    -0.040 C 
ATOM      8  C   UNL     1      32.781 -14.360 -26.042  0.00  0.00    -0.011 C 
ENDBRANCH   1   7
BRANCH   1   9
ATOM      9  O   UNL     1      34.312 -12.878 -23.376  0.00  0.00    -0.430 OA
BRANCH   9  12
ATOM     10  O   UNL     1      32.803 -11.142 -23.460  0.00  0.00    -0.227 OA
ATOM     11  N   UNL     1      34.508 -11.324 -24.991  0.00  0.00    -0.295 N 
ATOM     12  C   UNL     1      33.784 -11.733 -23.898  0.00  0.00    +0.399 C 
ATOM     13  H   UNL     1      35.288 -11.847 -25.289  0.00  0.00    +0.148 HD
ATOM     14  H   UNL     1      34.249 -10.509 -25.477  0.00  0.00    +0.148 HD
ENDBRANCH   9  12
ENDBRANCH   1   9
TORSDOF 3
ENDMDL
MODEL 9
REMARK VINA RESULT:      -5.6      9.035     10.134
REMARK  Name = 3284
REMARK  3 active torsions:
REMARK  status: ('A' for Active; 'I' for Inactive)
REMARK    1  A    between atoms: C_1  and  C_7
REMARK    2  A    between atoms: C_1  and  O_9
REMARK    3  A    between atoms: O_9  and  C_12
REMARK                            x       y       z     vdW  Elec       q    Type
REMARK                         _______ _______ _______ _____ _____    ______ ____
ROOT
ATOM      1  C   UNL     1      32.513  -8.580 -22.139  0.00  0.00    +0.191 C 
ATOM      2  C   UNL     1      32.338 -10.045 -22.567  0.00  0.00    +0.053 C 
ATOM      3  C   UNL     1      32.747  -8.478 -20.623  0.00  0.00    +0.053 C 
ATOM      4  C   UNL     1      31.257 -10.762 -21.756  0.00  0.00    +0.005 C 
ATOM      5  C   UNL     1      31.661  -9.196 -19.820  0.00  0.00    +0.005 C 
ATOM      6  C   UNL     1      31.510 -10.650 -20.257  0.00  0.00    +0.000 C 
ENDROOT
BRANCH   1   7
ATOM      7  C   UNL     1      33.637  -7.972 -22.872  0.00  0.00    -0.040 C 
ATOM      8  C   UNL     1      34.554  -7.478 -23.470  0.00  0.00    -0.011 C 
ENDBRANCH   1   7
BRANCH   1   9
ATOM      9  O   UNL     1      31.314  -7.879 -22.476  0.00  0.00    -0.430 OA
BRANCH   9  12
ATOM     10  O   UNL     1      31.553  -5.901 -21.322  0.00  0.00    -0.227 OA
ATOM     11  N   UNL     1      31.192  -5.929 -23.593  0.00  0.00    -0.295 N 
ATOM     12  C   UNL     1      31.370  -6.519 -22.365  0.00  0.00    +0.399 C 
ATOM     13  H   UNL     1      31.050  -6.487 -24.391  0.00  0.00    +0.148 HD
ATOM     14  H   UNL     1      31.208  -4.949 -23.674  0.00  0.00    +0.148 HD
ENDBRANCH   9  12
ENDBRANCH   1   9
TORSDOF 3
ENDMDL
