MODEL 1
REMARK VINA RESULT:      -6.7      0.000      0.000
REMARK  Name = 39981
REMARK  10 active torsions:
REMARK  status: ('A' for Active; 'I' for Inactive)
REMARK    1  A    between atoms: N_2  and  CA_5
REMARK    2  A    between atoms: C_3  and  C_15
REMARK    3  A    between atoms: CA_5  and  C_7
REMARK    4  A    between atoms: CA_5  and  CB_10
REMARK    5  A    between atoms: C_7  and  O_8
REMARK    6  A    between atoms: CB_10  and  CG_12
REMARK    7  A    between atoms: CG_12  and  OD1_13
REMARK    8  A    between atoms: C_15  and  P_16
REMARK    9  A    between atoms: P_16  and  O_18
REMARK   10  A    between atoms: P_16  and  O_20
REMARK                            x       y       z     vdW  Elec       q    Type
REMARK                         _______ _______ _______ _____ _____    ______ ____
ROOT
ATOM      1  O   UNL     1      39.097 -23.504 -11.807  0.00  0.00    -0.274 OA
ATOM      2  N   UNL     1      37.400 -24.506 -13.045  0.00  0.00    -0.296 N 
ATOM      3  C   ACE A   0      38.710 -24.334 -12.626  0.00  0.00    +0.235 C 
ATOM      4  H   UNL     1      37.207 -25.207 -13.708  0.00  0.00    +0.150 HD
ENDROOT
BRANCH   2   5
ATOM      5  CA  UNL     1      36.303 -23.705 -12.553  0.00  0.00    +0.182 C 
BRANCH   5   7
ATOM      6  OXT UNL     1      36.154 -24.052 -10.158  0.00  0.00    -0.248 OA
ATOM      7  C   UNL     1      35.720 -24.293 -11.278  0.00  0.00    +0.332 C 
BRANCH   7   8
ATOM      8  O   UNL     1      34.671 -25.119 -11.498  0.00  0.00    -0.479 OA
ATOM      9  H   UNL     1      34.099 -25.349 -10.793  0.00  0.00    +0.295 HD
ENDBRANCH   7   8
ENDBRANCH   5   7
BRANCH   5  10
ATOM     10  CB  UNL     1      35.210 -23.558 -13.614  0.00  0.00    +0.140 C 
BRANCH  10  12
ATOM     11  OD2 UNL     1      35.950 -23.979 -15.899  0.00  0.00    -0.250 OA
ATOM     12  CG  UNL     1      35.476 -24.392 -14.851  0.00  0.00    +0.316 C 
BRANCH  12  13
ATOM     13  OD1 UNL     1      35.114 -25.688 -14.661  0.00  0.00    -0.480 OA
ATOM     14  HD1 UNL     1      34.531 -25.914 -13.962  0.00  0.00    +0.295 HD
ENDBRANCH  12  13
ENDBRANCH  10  12
ENDBRANCH   5  10
ENDBRANCH   2   5
BRANCH   3  15
ATOM     15  C   UNL     1      39.650 -25.303 -13.297  0.00  0.00    +0.200 C 
BRANCH  15  16
ATOM     16  P   UNL     1      39.452 -25.397 -15.086  0.00  0.00    +0.346 P 
ATOM     17  O   UNL     1      40.655 -25.913 -15.797  0.00  0.00    -0.258 OA
BRANCH  16  18
ATOM     18  O   UNL     1      38.991 -23.901 -15.467  0.00  0.00    -0.323 OA
ATOM     19  H   UNL     1      39.726 -23.288 -15.313  0.00  0.00    +0.220 HD
ENDBRANCH  16  18
BRANCH  16  20
ATOM     20  O   UNL     1      38.107 -26.270 -15.246  0.00  0.00    -0.323 OA
ATOM     21  H   UNL     1      38.330 -27.144 -15.601  0.00  0.00    +0.220 HD
ENDBRANCH  16  20
ENDBRANCH  15  16
ENDBRANCH   3  15
TORSDOF 10
ENDMDL
MODEL 2
REMARK VINA RESULT:      -6.5      1.559      3.578
REMARK  Name = 39981
REMARK  10 active torsions:
REMARK  status: ('A' for Active; 'I' for Inactive)
REMARK    1  A    between atoms: N_2  and  CA_5
REMARK    2  A    between atoms: C_3  and  C_15
REMARK    3  A    between atoms: CA_5  and  C_7
REMARK    4  A    between atoms: CA_5  and  CB_10
REMARK    5  A    between atoms: C_7  and  O_8
REMARK    6  A    between atoms: CB_10  and  CG_12
REMARK    7  A    between atoms: CG_12  and  OD1_13
REMARK    8  A    between atoms: C_15  and  P_16
REMARK    9  A    between atoms: P_16  and  O_18
REMARK   10  A    between atoms: P_16  and  O_20
REMARK                            x       y       z     vdW  Elec       q    Type
REMARK                         _______ _______ _______ _____ _____    ______ ____
ROOT
ATOM      1  O   UNL     1      36.305 -26.832 -15.912  0.00  0.00    -0.274 OA
ATOM      2  N   UNL     1      36.429 -25.212 -14.245  0.00  0.00    -0.296 N 
ATOM      3  C   ACE A   0      36.925 -26.241 -15.032  0.00  0.00    +0.235 C 
ATOM      4  H   UNL     1      37.021 -24.812 -13.569  0.00  0.00    +0.150 HD
ENDROOT
BRANCH   2   5
ATOM      5  CA  UNL     1      35.085 -24.701 -14.373  0.00  0.00    +0.182 C 
BRANCH   5   7
ATOM      6  OXT UNL     1      34.868 -23.725 -16.581  0.00  0.00    -0.248 OA
ATOM      7  C   UNL     1      35.022 -23.562 -15.377  0.00  0.00    +0.332 C 
BRANCH   7   8
ATOM      8  O   UNL     1      35.159 -22.339 -14.812  0.00  0.00    -0.479 OA
ATOM      9  H   UNL     1      34.461 -21.977 -14.304  0.00  0.00    +0.295 HD
ENDBRANCH   7   8
ENDBRANCH   5   7
BRANCH   5  10
ATOM     10  CB  UNL     1      34.541 -24.240 -13.018  0.00  0.00    +0.140 C 
BRANCH  10  12
ATOM     11  OD2 UNL     1      35.699 -25.103 -11.053  0.00  0.00    -0.250 OA
ATOM     12  CG  UNL     1      35.592 -24.255 -11.927  0.00  0.00    +0.316 C 
BRANCH  12  13
ATOM     13  OD1 UNL     1      36.426 -23.186 -12.029  0.00  0.00    -0.480 OA
ATOM     14  HD1 UNL     1      36.597 -22.804 -12.867  0.00  0.00    +0.295 HD
ENDBRANCH  12  13
ENDBRANCH  10  12
ENDBRANCH   5  10
ENDBRANCH   2   5
BRANCH   3  15
ATOM     15  C   UNL     1      38.356 -26.574 -14.691  0.00  0.00    +0.200 C 
BRANCH  15  16
ATOM     16  P   UNL     1      39.426 -25.132 -14.531  0.00  0.00    +0.346 P 
ATOM     17  O   UNL     1      40.870 -25.429 -14.748  0.00  0.00    -0.258 OA
BRANCH  16  18
ATOM     18  O   UNL     1      39.031 -24.561 -13.077  0.00  0.00    -0.323 OA
ATOM     19  H   UNL     1      39.696 -24.841 -12.429  0.00  0.00    +0.220 HD
ENDBRANCH  16  18
BRANCH  16  20
ATOM     20  O   UNL     1      38.758 -24.083 -15.554  0.00  0.00    -0.323 OA
ATOM     21  H   UNL     1      39.234 -24.107 -16.398  0.00  0.00    +0.220 HD
ENDBRANCH  16  20
ENDBRANCH  15  16
ENDBRANCH   3  15
TORSDOF 10
ENDMDL
MODEL 3
REMARK VINA RESULT:      -6.4      2.544      4.788
REMARK  Name = 39981
REMARK  10 active torsions:
REMARK  status: ('A' for Active; 'I' for Inactive)
REMARK    1  A    between atoms: N_2  and  CA_5
REMARK    2  A    between atoms: C_3  and  C_15
REMARK    3  A    between atoms: CA_5  and  C_7
REMARK    4  A    between atoms: CA_5  and  CB_10
REMARK    5  A    between atoms: C_7  and  O_8
REMARK    6  A    between atoms: CB_10  and  CG_12
REMARK    7  A    between atoms: CG_12  and  OD1_13
REMARK    8  A    between atoms: C_15  and  P_16
REMARK    9  A    between atoms: P_16  and  O_18
REMARK   10  A    between atoms: P_16  and  O_20
REMARK                            x       y       z     vdW  Elec       q    Type
REMARK                         _______ _______ _______ _____ _____    ______ ____
ROOT
ATOM      1  O   UNL     1      34.496 -24.599 -12.172  0.00  0.00    -0.274 OA
ATOM      2  N   UNL     1      36.399 -24.503 -13.508  0.00  0.00    -0.296 N 
ATOM      3  C   ACE A   0      35.043 -24.374 -13.248  0.00  0.00    +0.235 C 
ATOM      4  H   UNL     1      36.725 -24.293 -14.413  0.00  0.00    +0.150 HD
ENDROOT
BRANCH   2   5
ATOM      5  CA  UNL     1      37.355 -24.930 -12.514  0.00  0.00    +0.182 C 
BRANCH   5   7
ATOM      6  OXT UNL     1      38.577 -23.007 -11.686  0.00  0.00    -0.248 OA
ATOM      7  C   UNL     1      37.666 -23.811 -11.533  0.00  0.00    +0.332 C 
BRANCH   7   8
ATOM      8  O   UNL     1      36.838 -23.790 -10.462  0.00  0.00    -0.479 OA
ATOM      9  H   UNL     1      37.094 -24.208  -9.664  0.00  0.00    +0.295 HD
ENDBRANCH   7   8
ENDBRANCH   5   7
BRANCH   5  10
ATOM     10  CB  UNL     1      38.645 -25.430 -13.170  0.00  0.00    +0.140 C 
BRANCH  10  12
ATOM     11  OD2 UNL     1      39.071 -24.107 -15.173  0.00  0.00    -0.250 OA
ATOM     12  CG  UNL     1      38.694 -25.150 -14.658  0.00  0.00    +0.316 C 
BRANCH  12  13
ATOM     13  OD1 UNL     1      38.258 -26.217 -15.377  0.00  0.00    -0.480 OA
ATOM     14  HD1 UNL     1      37.387 -26.541 -15.253  0.00  0.00    +0.295 HD
ENDBRANCH  12  13
ENDBRANCH  10  12
ENDBRANCH   5  10
ENDBRANCH   2   5
BRANCH   3  15
ATOM     15  C   UNL     1      34.277 -23.910 -14.462  0.00  0.00    +0.200 C 
BRANCH  15  16
ATOM     16  P   UNL     1      32.486 -23.978 -14.268  0.00  0.00    +0.346 P 
ATOM     17  O   UNL     1      31.734 -23.584 -15.492  0.00  0.00    -0.258 OA
BRANCH  16  18
ATOM     18  O   UNL     1      32.240 -23.068 -12.961  0.00  0.00    -0.323 OA
ATOM     19  H   UNL     1      31.575 -23.489 -12.395  0.00  0.00    +0.220 HD
ENDBRANCH  16  18
BRANCH  16  20
ATOM     20  O   UNL     1      32.246 -25.482 -13.744  0.00  0.00    -0.323 OA
ATOM     21  H   UNL     1      31.584 -25.918 -14.303  0.00  0.00    +0.220 HD
ENDBRANCH  16  20
ENDBRANCH  15  16
ENDBRANCH   3  15
TORSDOF 10
ENDMDL
MODEL 4
REMARK VINA RESULT:      -6.2      2.889      5.484
REMARK  Name = 39981
REMARK  10 active torsions:
REMARK  status: ('A' for Active; 'I' for Inactive)
REMARK    1  A    between atoms: N_2  and  CA_5
REMARK    2  A    between atoms: C_3  and  C_15
REMARK    3  A    between atoms: CA_5  and  C_7
REMARK    4  A    between atoms: CA_5  and  CB_10
REMARK    5  A    between atoms: C_7  and  O_8
REMARK    6  A    between atoms: CB_10  and  CG_12
REMARK    7  A    between atoms: CG_12  and  OD1_13
REMARK    8  A    between atoms: C_15  and  P_16
REMARK    9  A    between atoms: P_16  and  O_18
REMARK   10  A    between atoms: P_16  and  O_20
REMARK                            x       y       z     vdW  Elec       q    Type
REMARK                         _______ _______ _______ _____ _____    ______ ____
ROOT
ATOM      1  O   UNL     1      35.526 -22.864 -15.105  0.00  0.00    -0.274 OA
ATOM      2  N   UNL     1      35.268 -25.080 -14.446  0.00  0.00    -0.296 N 
ATOM      3  C   ACE A   0      34.827 -23.858 -14.931  0.00  0.00    +0.235 C 
ATOM      4  H   UNL     1      34.614 -25.810 -14.348  0.00  0.00    +0.150 HD
ENDROOT
BRANCH   2   5
ATOM      5  CA  UNL     1      36.640 -25.334 -14.077  0.00  0.00    +0.182 C 
BRANCH   5   7
ATOM      6  OXT UNL     1      38.326 -26.962 -14.697  0.00  0.00    -0.248 OA
ATOM      7  C   UNL     1      37.246 -26.434 -14.933  0.00  0.00    +0.332 C 
BRANCH   7   8
ATOM      8  O   UNL     1      36.477 -26.775 -15.994  0.00  0.00    -0.479 OA
ATOM      9  H   UNL     1      36.601 -27.602 -16.415  0.00  0.00    +0.295 HD
ENDBRANCH   7   8
ENDBRANCH   5   7
BRANCH   5  10
ATOM     10  CB  UNL     1      36.755 -25.696 -12.594  0.00  0.00    +0.140 C 
BRANCH  10  12
ATOM     11  OD2 UNL     1      35.299 -24.998 -10.766  0.00  0.00    -0.250 OA
ATOM     12  CG  UNL     1      36.044 -24.708 -11.692  0.00  0.00    +0.316 C 
BRANCH  12  13
ATOM     13  OD1 UNL     1      36.331 -23.425 -12.039  0.00  0.00    -0.480 OA
ATOM     14  HD1 UNL     1      36.855 -22.893 -11.474  0.00  0.00    +0.295 HD
ENDBRANCH  12  13
ENDBRANCH  10  12
ENDBRANCH   5  10
ENDBRANCH   2   5
BRANCH   3  15
ATOM     15  C   UNL     1      33.351 -23.872 -15.238  0.00  0.00    +0.200 C 
BRANCH  15  16
ATOM     16  P   UNL     1      32.298 -23.887 -13.774  0.00  0.00    +0.346 P 
ATOM     17  O   UNL     1      30.995 -23.187 -13.964  0.00  0.00    -0.258 OA
BRANCH  16  18
ATOM     18  O   UNL     1      33.267 -23.284 -12.638  0.00  0.00    -0.323 OA
ATOM     19  H   UNL     1      33.392 -22.335 -12.791  0.00  0.00    +0.220 HD
ENDBRANCH  16  18
BRANCH  16  20
ATOM     20  O   UNL     1      32.213 -25.456 -13.419  0.00  0.00    -0.323 OA
ATOM     21  H   UNL     1      33.106 -25.803 -13.273  0.00  0.00    +0.220 HD
ENDBRANCH  16  20
ENDBRANCH  15  16
ENDBRANCH   3  15
TORSDOF 10
ENDMDL
MODEL 5
REMARK VINA RESULT:      -6.0      1.618      2.107
REMARK  Name = 39981
REMARK  10 active torsions:
REMARK  status: ('A' for Active; 'I' for Inactive)
REMARK    1  A    between atoms: N_2  and  CA_5
REMARK    2  A    between atoms: C_3  and  C_15
REMARK    3  A    between atoms: CA_5  and  C_7
REMARK    4  A    between atoms: CA_5  and  CB_10
REMARK    5  A    between atoms: C_7  and  O_8
REMARK    6  A    between atoms: CB_10  and  CG_12
REMARK    7  A    between atoms: CG_12  and  OD1_13
REMARK    8  A    between atoms: C_15  and  P_16
REMARK    9  A    between atoms: P_16  and  O_18
REMARK   10  A    between atoms: P_16  and  O_20
REMARK                            x       y       z     vdW  Elec       q    Type
REMARK                         _______ _______ _______ _____ _____    ______ ____
ROOT
ATOM      1  O   UNL     1      38.218 -23.869 -14.541  0.00  0.00    -0.274 OA
ATOM      2  N   UNL     1      36.992 -25.041 -12.948  0.00  0.00    -0.296 N 
ATOM      3  C   ACE A   0      37.953 -24.905 -13.938  0.00  0.00    +0.235 C 
ATOM      4  H   UNL     1      36.868 -25.924 -12.533  0.00  0.00    +0.150 HD
ENDROOT
BRANCH   2   5
ATOM      5  CA  UNL     1      36.166 -23.947 -12.496  0.00  0.00    +0.182 C 
BRANCH   5   7
ATOM      6  OXT UNL     1      37.442 -22.362 -11.177  0.00  0.00    -0.248 OA
ATOM      7  C   UNL     1      36.707 -23.342 -11.211  0.00  0.00    +0.332 C 
BRANCH   7   8
ATOM      8  O   UNL     1      36.303 -23.996 -10.097  0.00  0.00    -0.479 OA
ATOM      9  H   UNL     1      36.210 -23.532  -9.289  0.00  0.00    +0.295 HD
ENDBRANCH   7   8
ENDBRANCH   5   7
BRANCH   5  10
ATOM     10  CB  UNL     1      34.716 -24.396 -12.297  0.00  0.00    +0.140 C 
BRANCH  10  12
ATOM     11  OD2 UNL     1      34.093 -24.508 -14.652  0.00  0.00    -0.250 OA
ATOM     12  CG  UNL     1      33.850 -24.137 -13.513  0.00  0.00    +0.316 C 
BRANCH  12  13
ATOM     13  OD1 UNL     1      32.740 -23.423 -13.186  0.00  0.00    -0.480 OA
ATOM     14  HD1 UNL     1      32.234 -23.661 -12.435  0.00  0.00    +0.295 HD
ENDBRANCH  12  13
ENDBRANCH  10  12
ENDBRANCH   5  10
ENDBRANCH   2   5
BRANCH   3  15
ATOM     15  C   UNL     1      38.670 -26.203 -14.211  0.00  0.00    +0.200 C 
BRANCH  15  16
ATOM     16  P   UNL     1      40.414 -26.005 -14.624  0.00  0.00    +0.346 P 
ATOM     17  O   UNL     1      41.268 -27.147 -14.190  0.00  0.00    -0.258 OA
BRANCH  16  18
ATOM     18  O   UNL     1      40.767 -24.572 -13.979  0.00  0.00    -0.323 OA
ATOM     19  H   UNL     1      39.947 -24.084 -13.809  0.00  0.00    +0.220 HD
ENDBRANCH  16  18
BRANCH  16  20
ATOM     20  O   UNL     1      40.370 -25.718 -16.208  0.00  0.00    -0.323 OA
ATOM     21  H   UNL     1      40.305 -26.558 -16.688  0.00  0.00    +0.220 HD
ENDBRANCH  16  20
ENDBRANCH  15  16
ENDBRANCH   3  15
TORSDOF 10
ENDMDL
MODEL 6
REMARK VINA RESULT:      -6.0      2.336      3.479
REMARK  Name = 39981
REMARK  10 active torsions:
REMARK  status: ('A' for Active; 'I' for Inactive)
REMARK    1  A    between atoms: N_2  and  CA_5
REMARK    2  A    between atoms: C_3  and  C_15
REMARK    3  A    between atoms: CA_5  and  C_7
REMARK    4  A    between atoms: CA_5  and  CB_10
REMARK    5  A    between atoms: C_7  and  O_8
REMARK    6  A    between atoms: CB_10  and  CG_12
REMARK    7  A    between atoms: CG_12  and  OD1_13
REMARK    8  A    between atoms: C_15  and  P_16
REMARK    9  A    between atoms: P_16  and  O_18
REMARK   10  A    between atoms: P_16  and  O_20
REMARK                            x       y       z     vdW  Elec       q    Type
REMARK                         _______ _______ _______ _____ _____    ______ ____
ROOT
ATOM      1  O   UNL     1      36.574 -26.831 -15.865  0.00  0.00    -0.274 OA
ATOM      2  N   UNL     1      36.418 -25.030 -14.401  0.00  0.00    -0.296 N 
ATOM      3  C   ACE A   0      37.042 -26.127 -14.975  0.00  0.00    +0.235 C 
ATOM      4  H   UNL     1      36.891 -24.539 -13.692  0.00  0.00    +0.150 HD
ENDROOT
BRANCH   2   5
ATOM      5  CA  UNL     1      35.106 -24.575 -14.794  0.00  0.00    +0.182 C 
BRANCH   5   7
ATOM      6  OXT UNL     1      35.936 -22.470 -15.664  0.00  0.00    -0.248 OA
ATOM      7  C   UNL     1      35.195 -23.437 -15.797  0.00  0.00    +0.332 C 
BRANCH   7   8
ATOM      8  O   UNL     1      34.369 -23.589 -16.858  0.00  0.00    -0.479 OA
ATOM      9  H   UNL     1      34.708 -23.526 -17.729  0.00  0.00    +0.295 HD
ENDBRANCH   7   8
ENDBRANCH   5   7
BRANCH   5  10
ATOM     10  CB  UNL     1      34.285 -24.141 -13.576  0.00  0.00    +0.140 C 
BRANCH  10  12
ATOM     11  OD2 UNL     1      32.067 -23.236 -14.034  0.00  0.00    -0.250 OA
ATOM     12  CG  UNL     1      32.792 -24.199 -13.823  0.00  0.00    +0.316 C 
BRANCH  12  13
ATOM     13  OD1 UNL     1      32.332 -25.477 -13.780  0.00  0.00    -0.480 OA
ATOM     14  HD1 UNL     1      32.087 -25.859 -12.960  0.00  0.00    +0.295 HD
ENDBRANCH  12  13
ENDBRANCH  10  12
ENDBRANCH   5  10
ENDBRANCH   2   5
BRANCH   3  15
ATOM     15  C   UNL     1      38.404 -26.378 -14.379  0.00  0.00    +0.200 C 
BRANCH  15  16
ATOM     16  P   UNL     1      39.658 -25.186 -14.887  0.00  0.00    +0.346 P 
ATOM     17  O   UNL     1      40.578 -24.776 -13.788  0.00  0.00    -0.258 OA
BRANCH  16  18
ATOM     18  O   UNL     1      38.777 -24.011 -15.549  0.00  0.00    -0.323 OA
ATOM     19  H   UNL     1      38.531 -23.368 -14.866  0.00  0.00    +0.220 HD
ENDBRANCH  16  18
BRANCH  16  20
ATOM     20  O   UNL     1      40.344 -25.914 -16.149  0.00  0.00    -0.323 OA
ATOM     21  H   UNL     1      40.302 -25.330 -16.922  0.00  0.00    +0.220 HD
ENDBRANCH  16  20
ENDBRANCH  15  16
ENDBRANCH   3  15
TORSDOF 10
ENDMDL
MODEL 7
REMARK VINA RESULT:      -6.0      2.059      4.676
REMARK  Name = 39981
REMARK  10 active torsions:
REMARK  status: ('A' for Active; 'I' for Inactive)
REMARK    1  A    between atoms: N_2  and  CA_5
REMARK    2  A    between atoms: C_3  and  C_15
REMARK    3  A    between atoms: CA_5  and  C_7
REMARK    4  A    between atoms: CA_5  and  CB_10
REMARK    5  A    between atoms: C_7  and  O_8
REMARK    6  A    between atoms: CB_10  and  CG_12
REMARK    7  A    between atoms: CG_12  and  OD1_13
REMARK    8  A    between atoms: C_15  and  P_16
REMARK    9  A    between atoms: P_16  and  O_18
REMARK   10  A    between atoms: P_16  and  O_20
REMARK                            x       y       z     vdW  Elec       q    Type
REMARK                         _______ _______ _______ _____ _____    ______ ____
ROOT
ATOM      1  O   UNL     1      38.131 -22.921 -16.073  0.00  0.00    -0.274 OA
ATOM      2  N   UNL     1      37.330 -24.068 -14.214  0.00  0.00    -0.296 N 
ATOM      3  C   ACE A   0      37.218 -23.227 -15.310  0.00  0.00    +0.235 C 
ATOM      4  H   UNL     1      36.527 -24.242 -13.672  0.00  0.00    +0.150 HD
ENDROOT
BRANCH   2   5
ATOM      5  CA  UNL     1      38.568 -24.703 -13.830  0.00  0.00    +0.182 C 
BRANCH   5   7
ATOM      6  OXT UNL     1      38.350 -27.008 -14.548  0.00  0.00    -0.248 OA
ATOM      7  C   UNL     1      38.865 -25.908 -14.707  0.00  0.00    +0.332 C 
BRANCH   7   8
ATOM      8  O   UNL     1      39.764 -25.652 -15.686  0.00  0.00    -0.479 OA
ATOM      9  H   UNL     1      39.833 -26.228 -16.421  0.00  0.00    +0.295 HD
ENDBRANCH   7   8
ENDBRANCH   5   7
BRANCH   5  10
ATOM     10  CB  UNL     1      38.541 -25.117 -12.356  0.00  0.00    +0.140 C 
BRANCH  10  12
ATOM     11  OD2 UNL     1      36.786 -24.261 -10.895  0.00  0.00    -0.250 OA
ATOM     12  CG  UNL     1      37.153 -25.051 -11.753  0.00  0.00    +0.316 C 
BRANCH  12  13
ATOM     13  OD1 UNL     1      36.336 -25.998 -12.286  0.00  0.00    -0.480 OA
ATOM     14  HD1 UNL     1      35.962 -25.870 -13.136  0.00  0.00    +0.295 HD
ENDBRANCH  12  13
ENDBRANCH  10  12
ENDBRANCH   5  10
ENDBRANCH   2   5
BRANCH   3  15
ATOM     15  C   UNL     1      35.814 -22.705 -15.482  0.00  0.00    +0.200 C 
BRANCH  15  16
ATOM     16  P   UNL     1      34.548 -23.746 -14.729  0.00  0.00    +0.346 P 
ATOM     17  O   UNL     1      33.176 -23.498 -15.254  0.00  0.00    -0.258 OA
BRANCH  16  18
ATOM     18  O   UNL     1      34.764 -23.478 -13.155  0.00  0.00    -0.323 OA
ATOM     19  H   UNL     1      34.008 -23.829 -12.661  0.00  0.00    +0.220 HD
ENDBRANCH  16  18
BRANCH  16  20
ATOM     20  O   UNL     1      35.134 -25.230 -14.954  0.00  0.00    -0.323 OA
ATOM     21  H   UNL     1      34.488 -25.883 -14.644  0.00  0.00    +0.220 HD
ENDBRANCH  16  20
ENDBRANCH  15  16
ENDBRANCH   3  15
TORSDOF 10
ENDMDL
MODEL 8
REMARK VINA RESULT:      -5.9      2.317      4.624
REMARK  Name = 39981
REMARK  10 active torsions:
REMARK  status: ('A' for Active; 'I' for Inactive)
REMARK    1  A    between atoms: N_2  and  CA_5
REMARK    2  A    between atoms: C_3  and  C_15
REMARK    3  A    between atoms: CA_5  and  C_7
REMARK    4  A    between atoms: CA_5  and  CB_10
REMARK    5  A    between atoms: C_7  and  O_8
REMARK    6  A    between atoms: CB_10  and  CG_12
REMARK    7  A    between atoms: CG_12  and  OD1_13
REMARK    8  A    between atoms: C_15  and  P_16
REMARK    9  A    between atoms: P_16  and  O_18
REMARK   10  A    between atoms: P_16  and  O_20
REMARK                            x       y       z     vdW  Elec       q    Type
REMARK                         _______ _______ _______ _____ _____    ______ ____
ROOT
ATOM      1  O   UNL     1      34.890 -24.973 -14.537  0.00  0.00    -0.274 OA
ATOM      2  N   UNL     1      36.910 -24.040 -13.855  0.00  0.00    -0.296 N 
ATOM      3  C   ACE A   0      35.571 -24.372 -13.711  0.00  0.00    +0.235 C 
ATOM      4  H   UNL     1      37.354 -23.556 -13.123  0.00  0.00    +0.150 HD
ENDROOT
BRANCH   2   5
ATOM      5  CA  UNL     1      37.683 -24.372 -15.028  0.00  0.00    +0.182 C 
BRANCH   5   7
ATOM      6  OXT UNL     1      39.106 -25.654 -13.542  0.00  0.00    -0.248 OA
ATOM      7  C   UNL     1      38.842 -25.292 -14.682  0.00  0.00    +0.332 C 
BRANCH   7   8
ATOM      8  O   UNL     1      39.565 -25.674 -15.760  0.00  0.00    -0.479 OA
ATOM      9  H   UNL     1      39.939 -26.532 -15.794  0.00  0.00    +0.295 HD
ENDBRANCH   7   8
ENDBRANCH   5   7
BRANCH   5  10
ATOM     10  CB  UNL     1      38.200 -23.109 -15.722  0.00  0.00    +0.140 C 
BRANCH  10  12
ATOM     11  OD2 UNL     1      37.187 -21.209 -16.867  0.00  0.00    -0.250 OA
ATOM     12  CG  UNL     1      37.115 -22.364 -16.472  0.00  0.00    +0.316 C 
BRANCH  12  13
ATOM     13  OD1 UNL     1      36.018 -23.145 -16.660  0.00  0.00    -0.480 OA
ATOM     14  HD1 UNL     1      35.617 -23.193 -17.505  0.00  0.00    +0.295 HD
ENDBRANCH  12  13
ENDBRANCH  10  12
ENDBRANCH   5  10
ENDBRANCH   2   5
BRANCH   3  15
ATOM     15  C   UNL     1      35.013 -23.908 -12.389  0.00  0.00    +0.200 C 
BRANCH  15  16
ATOM     16  P   UNL     1      36.041 -24.330 -10.970  0.00  0.00    +0.346 P 
ATOM     17  O   UNL     1      35.274 -24.513  -9.705  0.00  0.00    -0.258 OA
BRANCH  16  18
ATOM     18  O   UNL     1      37.138 -23.150 -10.968  0.00  0.00    -0.323 OA
ATOM     19  H   UNL     1      37.717 -23.246 -11.739  0.00  0.00    +0.220 HD
ENDBRANCH  16  18
BRANCH  16  20
ATOM     20  O   UNL     1      36.856 -25.616 -11.496  0.00  0.00    -0.323 OA
ATOM     21  H   UNL     1      36.560 -26.405 -11.016  0.00  0.00    +0.220 HD
ENDBRANCH  16  20
ENDBRANCH  15  16
ENDBRANCH   3  15
TORSDOF 10
ENDMDL
MODEL 9
REMARK VINA RESULT:      -5.8      1.788      2.765
REMARK  Name = 39981
REMARK  10 active torsions:
REMARK  status: ('A' for Active; 'I' for Inactive)
REMARK    1  A    between atoms: N_2  and  CA_5
REMARK    2  A    between atoms: C_3  and  C_15
REMARK    3  A    between atoms: CA_5  and  C_7
REMARK    4  A    between atoms: CA_5  and  CB_10
REMARK    5  A    between atoms: C_7  and  O_8
REMARK    6  A    between atoms: CB_10  and  CG_12
REMARK    7  A    between atoms: CG_12  and  OD1_13
REMARK    8  A    between atoms: C_15  and  P_16
REMARK    9  A    between atoms: P_16  and  O_18
REMARK   10  A    between atoms: P_16  and  O_20
REMARK                            x       y       z     vdW  Elec       q    Type
REMARK                         _______ _______ _______ _____ _____    ______ ____
ROOT
ATOM      1  O   UNL     1      35.960 -26.185 -15.553  0.00  0.00    -0.274 OA
ATOM      2  N   UNL     1      36.793 -24.520 -14.157  0.00  0.00    -0.296 N 
ATOM      3  C   ACE A   0      36.850 -25.724 -14.844  0.00  0.00    +0.235 C 
ATOM      4  H   UNL     1      37.571 -24.251 -13.618  0.00  0.00    +0.150 HD
ENDROOT
BRANCH   2   5
ATOM      5  CA  UNL     1      35.648 -23.643 -14.197  0.00  0.00    +0.182 C 
BRANCH   5   7
ATOM      6  OXT UNL     1      34.381 -24.074 -12.175  0.00  0.00    -0.248 OA
ATOM      7  C   UNL     1      34.492 -24.209 -13.388  0.00  0.00    +0.332 C 
BRANCH   7   8
ATOM      8  O   UNL     1      33.592 -24.887 -14.138  0.00  0.00    -0.479 OA
ATOM      9  H   UNL     1      33.577 -24.775 -15.067  0.00  0.00    +0.295 HD
ENDBRANCH   7   8
ENDBRANCH   5   7
BRANCH   5  10
ATOM     10  CB  UNL     1      35.204 -23.382 -15.639  0.00  0.00    +0.140 C 
BRANCH  10  12
ATOM     11  OD2 UNL     1      37.218 -22.044 -15.961  0.00  0.00    -0.250 OA
ATOM     12  CG  UNL     1      36.189 -22.528 -16.411  0.00  0.00    +0.316 C 
BRANCH  12  13
ATOM     13  OD1 UNL     1      35.788 -22.351 -17.698  0.00  0.00    -0.480 OA
ATOM     14  HD1 UNL     1      35.170 -22.942 -18.082  0.00  0.00    +0.295 HD
ENDBRANCH  12  13
ENDBRANCH  10  12
ENDBRANCH   5  10
ENDBRANCH   2   5
BRANCH   3  15
ATOM     15  C   UNL     1      38.161 -26.436 -14.629  0.00  0.00    +0.200 C 
BRANCH  15  16
ATOM     16  P   UNL     1      39.594 -25.342 -14.600  0.00  0.00    +0.346 P 
ATOM     17  O   UNL     1      40.885 -26.036 -14.870  0.00  0.00    -0.258 OA
BRANCH  16  18
ATOM     18  O   UNL     1      39.461 -24.627 -13.162  0.00  0.00    -0.323 OA
ATOM     19  H   UNL     1      38.670 -24.067 -13.153  0.00  0.00    +0.220 HD
ENDBRANCH  16  18
BRANCH  16  20
ATOM     20  O   UNL     1      39.177 -24.190 -15.646  0.00  0.00    -0.323 OA
ATOM     21  H   UNL     1      39.768 -24.223 -16.415  0.00  0.00    +0.220 HD
ENDBRANCH  16  20
ENDBRANCH  15  16
ENDBRANCH   3  15
TORSDOF 10
ENDMDL
