MODEL 1
REMARK VINA RESULT:     -12.2      0.000      0.000
REMARK  Name = 9911830
REMARK  5 active torsions:
REMARK  status: ('A' for Active; 'I' for Inactive)
REMARK    1  A    between atoms: C_2  and  O_20
REMARK    2  A    between atoms: C_3  and  N_10
REMARK    3  A    between atoms: O_20  and  C_24
REMARK    4  A    between atoms: C_26  and  O_31
REMARK    5  A    between atoms: C_28  and  O_33
REMARK                            x       y       z     vdW  Elec       q    Type
REMARK                         _______ _______ _______ _____ _____    ______ ____
ROOT
ATOM      1 CL   UNL     1      37.087 -18.821 -21.424  0.00  0.00    -0.081 Cl
ATOM      2  C   UNL     1      34.749 -21.532 -19.695  0.00  0.00    +0.146 C 
ATOM      3  C   UNL     1      34.404 -19.134 -21.033  0.00  0.00    +0.062 C 
ATOM      4  C   UNL     1      35.860 -20.856 -20.166  0.00  0.00    +0.050 C 
ATOM      5  C   UNL     1      33.468 -21.037 -19.876  0.00  0.00    +0.039 C 
ATOM      6  C   UNL     1      35.686 -19.649 -20.841  0.00  0.00    +0.074 C 
ATOM      7  C   UNL     1      33.295 -19.830 -20.551  0.00  0.00    +0.019 C 
ENDROOT
BRANCH   3  10
ATOM      8  O   UNL     1      33.744 -15.354 -26.704  0.00  0.00    -0.357 OA
ATOM      9  O   UNL     1      34.300 -18.556 -23.961  0.00  0.00    -0.252 OA
ATOM     10  N   UNL     1      34.195 -17.927 -21.707  0.00  0.00    -0.267 N 
ATOM     11  N   UNL     1      33.918 -16.332 -23.350  0.00  0.00    -0.251 N 
ATOM     12  N   UNL     1      33.914 -16.338 -25.738  0.00  0.00    -0.062 NA
ATOM     13  C   UNL     1      34.152 -17.693 -23.101  0.00  0.00    +0.309 C 
ATOM     14  C   UNL     1      33.803 -15.681 -24.601  0.00  0.00    +0.177 C 
ATOM     15  C   UNL     1      33.570 -14.322 -24.736  0.00  0.00    +0.073 C 
ATOM     16  C   UNL     1      33.539 -14.158 -26.095  0.00  0.00    +0.156 C 
ATOM     17  C   UNL     1      33.339 -13.000 -26.975  0.00  0.00    +0.075 C 
ATOM     18  H   UNL     1      34.059 -17.137 -21.136  0.00  0.00    +0.156 HD
ATOM     19  H   UNL     1      33.820 -15.758 -22.555  0.00  0.00    +0.158 HD
ENDBRANCH   3  10
BRANCH   2  20
ATOM     20  O   UNL     1      34.919 -22.730 -19.024  0.00  0.00    -0.453 OA
BRANCH  20  24
ATOM     21  N   UNL     1      35.828 -22.530 -14.982  0.00  0.00    -0.244 NA
ATOM     22  C   UNL     1      34.216 -22.950 -16.724  0.00  0.00    +0.055 C 
ATOM     23  C   UNL     1      34.581 -22.867 -15.365  0.00  0.00    +0.087 C 
ATOM     24  C   UNL     1      35.194 -22.670 -17.688  0.00  0.00    +0.148 C 
ATOM     25  C   UNL     1      32.905 -23.305 -17.087  0.00  0.00    +0.045 C 
ATOM     26  C   UNL     1      31.954 -23.578 -16.109  0.00  0.00    +0.173 C 
ATOM     27  C   UNL     1      33.609 -23.145 -14.407  0.00  0.00    +0.059 C 
ATOM     28  C   UNL     1      32.306 -23.498 -14.768  0.00  0.00    +0.174 C 
ATOM     29  C   UNL     1      36.479 -22.323 -17.298  0.00  0.00    +0.058 C 
ATOM     30  C   UNL     1      36.742 -22.268 -15.944  0.00  0.00    +0.102 C 
BRANCH  26  31
ATOM     31  O   UNL     1      30.688 -23.920 -16.477  0.00  0.00    -0.468 OA
ATOM     32  C   UNL     1      29.710 -22.882 -16.484  0.00  0.00    +0.253 C 
ENDBRANCH  26  31
BRANCH  28  33
ATOM     33  O   UNL     1      31.391 -23.761 -13.793  0.00  0.00    -0.468 OA
ATOM     34  C   UNL     1      31.198 -25.129 -13.437  0.00  0.00    +0.253 C 
ENDBRANCH  28  33
ENDBRANCH  20  24
ENDBRANCH   2  20
TORSDOF 5
ENDMDL
MODEL 2
REMARK VINA RESULT:     -12.1      1.806      3.054
REMARK  Name = 9911830
REMARK  5 active torsions:
REMARK  status: ('A' for Active; 'I' for Inactive)
REMARK    1  A    between atoms: C_2  and  O_20
REMARK    2  A    between atoms: C_3  and  N_10
REMARK    3  A    between atoms: O_20  and  C_24
REMARK    4  A    between atoms: C_26  and  O_31
REMARK    5  A    between atoms: C_28  and  O_33
REMARK                            x       y       z     vdW  Elec       q    Type
REMARK                         _______ _______ _______ _____ _____    ______ ____
ROOT
ATOM      1 CL   UNL     1      37.081 -19.021 -21.167  0.00  0.00    -0.081 Cl
ATOM      2  C   UNL     1      34.714 -21.682 -19.400  0.00  0.00    +0.146 C 
ATOM      3  C   UNL     1      34.392 -19.321 -20.807  0.00  0.00    +0.062 C 
ATOM      4  C   UNL     1      35.833 -21.021 -19.873  0.00  0.00    +0.050 C 
ATOM      5  C   UNL     1      33.437 -21.191 -19.614  0.00  0.00    +0.039 C 
ATOM      6  C   UNL     1      35.671 -19.831 -20.583  0.00  0.00    +0.074 C 
ATOM      7  C   UNL     1      33.276 -20.002 -20.323  0.00  0.00    +0.019 C 
ENDROOT
BRANCH   3  10
ATOM      8  O   UNL     1      33.749 -15.706 -26.587  0.00  0.00    -0.357 OA
ATOM      9  O   UNL     1      34.280 -18.830 -23.751  0.00  0.00    -0.252 OA
ATOM     10  N   UNL     1      34.196 -18.132 -21.516  0.00  0.00    -0.267 N 
ATOM     11  N   UNL     1      33.929 -16.584 -23.205  0.00  0.00    -0.251 N 
ATOM     12  N   UNL     1      33.912 -16.662 -25.592  0.00  0.00    -0.062 NA
ATOM     13  C   UNL     1      34.148 -17.940 -22.917  0.00  0.00    +0.309 C 
ATOM     14  C   UNL     1      33.816 -15.970 -24.475  0.00  0.00    +0.177 C 
ATOM     15  C   UNL     1      33.599 -14.613 -24.650  0.00  0.00    +0.073 C 
ATOM     16  C   UNL     1      33.563 -14.489 -26.013  0.00  0.00    +0.156 C 
ATOM     17  C   UNL     1      33.373 -13.356 -26.927  0.00  0.00    +0.075 C 
ATOM     18  H   UNL     1      34.073 -17.323 -20.969  0.00  0.00    +0.156 HD
ATOM     19  H   UNL     1      33.843 -15.985 -22.428  0.00  0.00    +0.158 HD
ENDBRANCH   3  10
BRANCH   2  20
ATOM     20  O   UNL     1      34.873 -22.861 -18.694  0.00  0.00    -0.453 OA
BRANCH  20  24
ATOM     21  N   UNL     1      32.532 -23.358 -15.307  0.00  0.00    -0.244 NA
ATOM     22  C   UNL     1      34.718 -23.179 -16.305  0.00  0.00    +0.055 C 
ATOM     23  C   UNL     1      33.874 -23.344 -15.189  0.00  0.00    +0.087 C 
ATOM     24  C   UNL     1      34.123 -23.027 -17.565  0.00  0.00    +0.148 C 
ATOM     25  C   UNL     1      36.115 -23.170 -16.145  0.00  0.00    +0.045 C 
ATOM     26  C   UNL     1      36.679 -23.323 -14.882  0.00  0.00    +0.173 C 
ATOM     27  C   UNL     1      34.465 -23.496 -13.937  0.00  0.00    +0.059 C 
ATOM     28  C   UNL     1      35.853 -23.486 -13.777  0.00  0.00    +0.174 C 
ATOM     29  C   UNL     1      32.742 -23.040 -17.691  0.00  0.00    +0.058 C 
ATOM     30  C   UNL     1      31.998 -23.208 -16.541  0.00  0.00    +0.102 C 
BRANCH  26  31
ATOM     31  O   UNL     1      38.034 -23.311 -14.743  0.00  0.00    -0.468 OA
ATOM     32  C   UNL     1      38.720 -24.542 -14.966  0.00  0.00    +0.253 C 
ENDBRANCH  26  31
BRANCH  28  33
ATOM     33  O   UNL     1      36.384 -23.637 -12.531  0.00  0.00    -0.468 OA
ATOM     34  C   UNL     1      35.739 -24.563 -11.659  0.00  0.00    +0.253 C 
ENDBRANCH  28  33
ENDBRANCH  20  24
ENDBRANCH   2  20
TORSDOF 5
ENDMDL
MODEL 3
REMARK VINA RESULT:     -11.7      1.856      2.303
REMARK  Name = 9911830
REMARK  5 active torsions:
REMARK  status: ('A' for Active; 'I' for Inactive)
REMARK    1  A    between atoms: C_2  and  O_20
REMARK    2  A    between atoms: C_3  and  N_10
REMARK    3  A    between atoms: O_20  and  C_24
REMARK    4  A    between atoms: C_26  and  O_31
REMARK    5  A    between atoms: C_28  and  O_33
REMARK                            x       y       z     vdW  Elec       q    Type
REMARK                         _______ _______ _______ _____ _____    ______ ____
ROOT
ATOM      1 CL   UNL     1      37.026 -19.402 -21.047  0.00  0.00    -0.081 Cl
ATOM      2  C   UNL     1      34.493 -21.758 -19.086  0.00  0.00    +0.146 C 
ATOM      3  C   UNL     1      34.316 -19.712 -20.942  0.00  0.00    +0.062 C 
ATOM      4  C   UNL     1      35.653 -21.162 -19.547  0.00  0.00    +0.050 C 
ATOM      5  C   UNL     1      33.245 -21.354 -19.532  0.00  0.00    +0.039 C 
ATOM      6  C   UNL     1      35.565 -20.132 -20.483  0.00  0.00    +0.074 C 
ATOM      7  C   UNL     1      33.157 -20.324 -20.468  0.00  0.00    +0.019 C 
ENDROOT
BRANCH   3  10
ATOM      8  O   UNL     1      34.039 -13.115 -22.757  0.00  0.00    -0.357 OA
ATOM      9  O   UNL     1      34.334 -16.749 -20.568  0.00  0.00    -0.252 OA
ATOM     10  N   UNL     1      34.193 -18.683 -21.882  0.00  0.00    -0.267 N 
ATOM     11  N   UNL     1      34.054 -16.611 -22.885  0.00  0.00    -0.251 N 
ATOM     12  N   UNL     1      34.127 -14.348 -22.124  0.00  0.00    -0.062 NA
ATOM     13  C   UNL     1      34.208 -17.286 -21.664  0.00  0.00    +0.309 C 
ATOM     14  C   UNL     1      34.015 -15.214 -23.110  0.00  0.00    +0.177 C 
ATOM     15  C   UNL     1      33.857 -14.648 -24.365  0.00  0.00    +0.073 C 
ATOM     16  C   UNL     1      33.879 -13.306 -24.092  0.00  0.00    +0.156 C 
ATOM     17  C   UNL     1      33.767 -12.098 -24.919  0.00  0.00    +0.075 C 
ATOM     18  H   UNL     1      34.083 -18.969 -22.817  0.00  0.00    +0.156 HD
ATOM     19  H   UNL     1      33.962 -17.179 -23.684  0.00  0.00    +0.158 HD
ENDBRANCH   3  10
BRANCH   2  20
ATOM     20  O   UNL     1      34.579 -22.778 -18.157  0.00  0.00    -0.453 OA
BRANCH  20  24
ATOM     21  N   UNL     1      37.389 -22.317 -15.143  0.00  0.00    -0.244 NA
ATOM     22  C   UNL     1      35.237 -23.130 -15.860  0.00  0.00    +0.055 C 
ATOM     23  C   UNL     1      36.228 -22.945 -14.875  0.00  0.00    +0.087 C 
ATOM     24  C   UNL     1      35.488 -22.638 -17.149  0.00  0.00    +0.148 C 
ATOM     25  C   UNL     1      34.037 -23.790 -15.545  0.00  0.00    +0.045 C 
ATOM     26  C   UNL     1      33.814 -24.268 -14.258  0.00  0.00    +0.173 C 
ATOM     27  C   UNL     1      35.979 -23.433 -13.595  0.00  0.00    +0.059 C 
ATOM     28  C   UNL     1      34.786 -24.090 -13.282  0.00  0.00    +0.174 C 
ATOM     29  C   UNL     1      36.683 -21.991 -17.428  0.00  0.00    +0.058 C 
ATOM     30  C   UNL     1      37.592 -21.857 -16.399  0.00  0.00    +0.102 C 
BRANCH  26  31
ATOM     31  O   UNL     1      32.645 -24.906 -13.969  0.00  0.00    -0.468 OA
ATOM     32  C   UNL     1      31.467 -24.105 -13.902  0.00  0.00    +0.253 C 
ENDBRANCH  26  31
BRANCH  28  33
ATOM     33  O   UNL     1      34.589 -24.551 -12.015  0.00  0.00    -0.468 OA
ATOM     34  C   UNL     1      35.652 -24.361 -11.083  0.00  0.00    +0.253 C 
ENDBRANCH  28  33
ENDBRANCH  20  24
ENDBRANCH   2  20
TORSDOF 5
ENDMDL
MODEL 4
REMARK VINA RESULT:     -11.6      2.331      3.437
REMARK  Name = 9911830
REMARK  5 active torsions:
REMARK  status: ('A' for Active; 'I' for Inactive)
REMARK    1  A    between atoms: C_2  and  O_20
REMARK    2  A    between atoms: C_3  and  N_10
REMARK    3  A    between atoms: O_20  and  C_24
REMARK    4  A    between atoms: C_26  and  O_31
REMARK    5  A    between atoms: C_28  and  O_33
REMARK                            x       y       z     vdW  Elec       q    Type
REMARK                         _______ _______ _______ _____ _____    ______ ____
ROOT
ATOM      1 CL   UNL     1      37.046 -19.389 -21.066  0.00  0.00    -0.081 Cl
ATOM      2  C   UNL     1      34.724 -22.009 -19.181  0.00  0.00    +0.146 C 
ATOM      3  C   UNL     1      34.365 -19.877 -20.908  0.00  0.00    +0.062 C 
ATOM      4  C   UNL     1      35.831 -21.315 -19.636  0.00  0.00    +0.050 C 
ATOM      5  C   UNL     1      33.441 -21.662 -19.569  0.00  0.00    +0.039 C 
ATOM      6  C   UNL     1      35.651 -20.241 -20.507  0.00  0.00    +0.074 C 
ATOM      7  C   UNL     1      33.261 -20.588 -20.440  0.00  0.00    +0.019 C 
ENDROOT
BRANCH   3  10
ATOM      8  O   UNL     1      34.345 -13.216 -22.500  0.00  0.00    -0.357 OA
ATOM      9  O   UNL     1      34.738 -16.943 -20.489  0.00  0.00    -0.252 OA
ATOM     10  N   UNL     1      34.150 -18.806 -21.782  0.00  0.00    -0.267 N 
ATOM     11  N   UNL     1      34.005 -16.693 -22.695  0.00  0.00    -0.251 N 
ATOM     12  N   UNL     1      34.443 -14.476 -21.923  0.00  0.00    -0.062 NA
ATOM     13  C   UNL     1      34.341 -17.425 -21.545  0.00  0.00    +0.309 C 
ATOM     14  C   UNL     1      34.052 -15.291 -22.881  0.00  0.00    +0.177 C 
ATOM     15  C   UNL     1      33.696 -14.666 -24.065  0.00  0.00    +0.073 C 
ATOM     16  C   UNL     1      33.898 -13.342 -23.777  0.00  0.00    +0.156 C 
ATOM     17  C   UNL     1      33.735 -12.099 -24.540  0.00  0.00    +0.075 C 
ATOM     18  H   UNL     1      33.826 -19.046 -22.680  0.00  0.00    +0.156 HD
ATOM     19  H   UNL     1      33.699 -17.221 -23.469  0.00  0.00    +0.158 HD
ENDBRANCH   3  10
BRANCH   2  20
ATOM     20  O   UNL     1      34.901 -23.073 -18.316  0.00  0.00    -0.453 OA
BRANCH  20  24
ATOM     21  N   UNL     1      32.441 -23.206 -14.980  0.00  0.00    -0.244 NA
ATOM     22  C   UNL     1      34.660 -23.247 -15.919  0.00  0.00    +0.055 C 
ATOM     23  C   UNL     1      33.776 -23.287 -14.821  0.00  0.00    +0.087 C 
ATOM     24  C   UNL     1      34.112 -23.119 -17.203  0.00  0.00    +0.148 C 
ATOM     25  C   UNL     1      36.048 -23.335 -15.717  0.00  0.00    +0.045 C 
ATOM     26  C   UNL     1      36.566 -23.461 -14.431  0.00  0.00    +0.173 C 
ATOM     27  C   UNL     1      34.321 -23.414 -13.546  0.00  0.00    +0.059 C 
ATOM     28  C   UNL     1      35.701 -23.501 -13.345  0.00  0.00    +0.174 C 
ATOM     29  C   UNL     1      32.737 -23.036 -17.369  0.00  0.00    +0.058 C 
ATOM     30  C   UNL     1      31.953 -23.083 -16.235  0.00  0.00    +0.102 C 
BRANCH  26  31
ATOM     31  O   UNL     1      37.913 -23.544 -14.252  0.00  0.00    -0.468 OA
ATOM     32  C   UNL     1      38.524 -24.810 -14.496  0.00  0.00    +0.253 C 
ENDBRANCH  26  31
BRANCH  28  33
ATOM     33  O   UNL     1      36.185 -23.624 -12.077  0.00  0.00    -0.468 OA
ATOM     34  C   UNL     1      35.593 -24.623 -11.250  0.00  0.00    +0.253 C 
ENDBRANCH  28  33
ENDBRANCH  20  24
ENDBRANCH   2  20
TORSDOF 5
ENDMDL
MODEL 5
REMARK VINA RESULT:     -11.6      3.321     11.132
REMARK  Name = 9911830
REMARK  5 active torsions:
REMARK  status: ('A' for Active; 'I' for Inactive)
REMARK    1  A    between atoms: C_2  and  O_20
REMARK    2  A    between atoms: C_3  and  N_10
REMARK    3  A    between atoms: O_20  and  C_24
REMARK    4  A    between atoms: C_26  and  O_31
REMARK    5  A    between atoms: C_28  and  O_33
REMARK                            x       y       z     vdW  Elec       q    Type
REMARK                         _______ _______ _______ _____ _____    ______ ____
ROOT
ATOM      1 CL   UNL     1      33.179 -21.160 -19.496  0.00  0.00    -0.081 Cl
ATOM      2  C   UNL     1      35.863 -18.775 -21.203  0.00  0.00    +0.146 C 
ATOM      3  C   UNL     1      35.893 -20.888 -19.416  0.00  0.00    +0.062 C 
ATOM      4  C   UNL     1      34.667 -19.367 -20.838  0.00  0.00    +0.050 C 
ATOM      5  C   UNL     1      37.074 -19.214 -20.696  0.00  0.00    +0.039 C 
ATOM      6  C   UNL     1      34.682 -20.433 -19.938  0.00  0.00    +0.074 C 
ATOM      7  C   UNL     1      37.089 -20.279 -19.796  0.00  0.00    +0.019 C 
ENDROOT
BRANCH   3  10
ATOM      8  O   UNL     1      37.910 -23.845 -13.578  0.00  0.00    -0.357 OA
ATOM      9  O   UNL     1      37.280 -21.119 -16.781  0.00  0.00    -0.252 OA
ATOM     10  N   UNL     1      35.943 -21.955 -18.513  0.00  0.00    -0.267 N 
ATOM     11  N   UNL     1      36.401 -23.283 -16.684  0.00  0.00    -0.251 N 
ATOM     12  N   UNL     1      37.651 -23.021 -14.666  0.00  0.00    -0.062 NA
ATOM     13  C   UNL     1      36.613 -22.025 -17.269  0.00  0.00    +0.309 C 
ATOM     14  C   UNL     1      36.892 -23.763 -15.446  0.00  0.00    +0.177 C 
ATOM     15  C   UNL     1      36.622 -25.031 -14.958  0.00  0.00    +0.073 C 
ATOM     16  C   UNL     1      37.291 -25.040 -13.763  0.00  0.00    +0.156 C 
ATOM     17  C   UNL     1      37.461 -26.038 -12.700  0.00  0.00    +0.075 C 
ATOM     18  H   UNL     1      35.445 -22.762 -18.777  0.00  0.00    +0.156 HD
ATOM     19  H   UNL     1      35.841 -23.910 -17.198  0.00  0.00    +0.158 HD
ENDBRANCH   3  10
BRANCH   2  20
ATOM     20  O   UNL     1      35.849 -17.717 -22.094  0.00  0.00    -0.453 OA
BRANCH  20  24
ATOM     21  N   UNL     1      33.940 -18.365 -25.718  0.00  0.00    -0.244 NA
ATOM     22  C   UNL     1      34.595 -16.847 -23.965  0.00  0.00    +0.055 C 
ATOM     23  C   UNL     1      33.961 -17.125 -25.193  0.00  0.00    +0.087 C 
ATOM     24  C   UNL     1      35.215 -17.906 -23.288  0.00  0.00    +0.148 C 
ATOM     25  C   UNL     1      34.597 -15.540 -23.447  0.00  0.00    +0.045 C 
ATOM     26  C   UNL     1      33.975 -14.507 -24.141  0.00  0.00    +0.173 C 
ATOM     27  C   UNL     1      33.345 -16.073 -25.866  0.00  0.00    +0.059 C 
ATOM     28  C   UNL     1      33.348 -14.774 -25.352  0.00  0.00    +0.174 C 
ATOM     29  C   UNL     1      35.195 -19.185 -23.825  0.00  0.00    +0.058 C 
ATOM     30  C   UNL     1      34.550 -19.360 -25.032  0.00  0.00    +0.102 C 
BRANCH  26  31
ATOM     31  O   UNL     1      33.986 -13.246 -23.626  0.00  0.00    -0.468 OA
ATOM     32  C   UNL     1      32.889 -12.874 -22.795  0.00  0.00    +0.253 C 
ENDBRANCH  26  31
BRANCH  28  33
ATOM     33  O   UNL     1      32.733 -13.777 -26.048  0.00  0.00    -0.468 OA
ATOM     34  C   UNL     1      33.396 -13.297 -27.215  0.00  0.00    +0.253 C 
ENDBRANCH  28  33
ENDBRANCH  20  24
ENDBRANCH   2  20
TORSDOF 5
ENDMDL
MODEL 6
REMARK VINA RESULT:     -11.4      1.729      1.848
REMARK  Name = 9911830
REMARK  5 active torsions:
REMARK  status: ('A' for Active; 'I' for Inactive)
REMARK    1  A    between atoms: C_2  and  O_20
REMARK    2  A    between atoms: C_3  and  N_10
REMARK    3  A    between atoms: O_20  and  C_24
REMARK    4  A    between atoms: C_26  and  O_31
REMARK    5  A    between atoms: C_28  and  O_33
REMARK                            x       y       z     vdW  Elec       q    Type
REMARK                         _______ _______ _______ _____ _____    ______ ____
ROOT
ATOM      1 CL   UNL     1      37.240 -19.370 -20.996  0.00  0.00    -0.081 Cl
ATOM      2  C   UNL     1      34.338 -21.698 -19.595  0.00  0.00    +0.146 C 
ATOM      3  C   UNL     1      34.512 -19.308 -20.979  0.00  0.00    +0.062 C 
ATOM      4  C   UNL     1      35.585 -21.190 -19.911  0.00  0.00    +0.050 C 
ATOM      5  C   UNL     1      33.175 -21.039 -19.954  0.00  0.00    +0.039 C 
ATOM      6  C   UNL     1      35.673 -19.986 -20.609  0.00  0.00    +0.074 C 
ATOM      7  C   UNL     1      33.263 -19.835 -20.653  0.00  0.00    +0.019 C 
ENDROOT
BRANCH   3  10
ATOM      8  O   UNL     1      32.429 -12.915 -22.280  0.00  0.00    -0.357 OA
ATOM      9  O   UNL     1      32.890 -16.820 -20.660  0.00  0.00    -0.252 OA
ATOM     10  N   UNL     1      34.565 -18.100 -21.681  0.00  0.00    -0.267 N 
ATOM     11  N   UNL     1      34.161 -15.952 -22.419  0.00  0.00    -0.251 N 
ATOM     12  N   UNL     1      32.650 -14.205 -21.813  0.00  0.00    -0.062 NA
ATOM     13  C   UNL     1      33.777 -16.939 -21.498  0.00  0.00    +0.309 C 
ATOM     14  C   UNL     1      33.629 -14.649 -22.574  0.00  0.00    +0.177 C 
ATOM     15  C   UNL     1      34.084 -13.747 -23.521  0.00  0.00    +0.073 C 
ATOM     16  C   UNL     1      33.290 -12.654 -23.297  0.00  0.00    +0.156 C 
ATOM     17  C   UNL     1      33.194 -11.324 -23.912  0.00  0.00    +0.075 C 
ATOM     18  H   UNL     1      35.241 -18.049 -22.395  0.00  0.00    +0.156 HD
ATOM     19  H   UNL     1      34.893 -16.194 -23.033  0.00  0.00    +0.158 HD
ENDBRANCH   3  10
BRANCH   2  20
ATOM     20  O   UNL     1      34.249 -22.891 -18.901  0.00  0.00    -0.453 OA
BRANCH  20  24
ATOM     21  N   UNL     1      35.097 -22.788 -14.843  0.00  0.00    -0.244 NA
ATOM     22  C   UNL     1      33.486 -23.053 -16.615  0.00  0.00    +0.055 C 
ATOM     23  C   UNL     1      33.832 -23.007 -15.249  0.00  0.00    +0.087 C 
ATOM     24  C   UNL     1      34.504 -22.861 -17.560  0.00  0.00    +0.148 C 
ATOM     25  C   UNL     1      32.155 -23.283 -17.003  0.00  0.00    +0.045 C 
ATOM     26  C   UNL     1      31.165 -23.470 -16.044  0.00  0.00    +0.173 C 
ATOM     27  C   UNL     1      32.821 -23.197 -14.311  0.00  0.00    +0.059 C 
ATOM     28  C   UNL     1      31.498 -23.427 -14.697  0.00  0.00    +0.174 C 
ATOM     29  C   UNL     1      35.808 -22.635 -17.145  0.00  0.00    +0.058 C 
ATOM     30  C   UNL     1      36.050 -22.608 -15.787  0.00  0.00    +0.102 C 
BRANCH  26  31
ATOM     31  O   UNL     1      29.880 -23.694 -16.437  0.00  0.00    -0.468 OA
ATOM     32  C   UNL     1      29.015 -22.561 -16.502  0.00  0.00    +0.253 C 
ENDBRANCH  26  31
BRANCH  28  33
ATOM     33  O   UNL     1      30.544 -23.608 -13.740  0.00  0.00    -0.468 OA
ATOM     34  C   UNL     1      30.489 -24.888 -13.114  0.00  0.00    +0.253 C 
ENDBRANCH  28  33
ENDBRANCH  20  24
ENDBRANCH   2  20
TORSDOF 5
ENDMDL
MODEL 7
REMARK VINA RESULT:     -11.4      3.361     11.018
REMARK  Name = 9911830
REMARK  5 active torsions:
REMARK  status: ('A' for Active; 'I' for Inactive)
REMARK    1  A    between atoms: C_2  and  O_20
REMARK    2  A    between atoms: C_3  and  N_10
REMARK    3  A    between atoms: O_20  and  C_24
REMARK    4  A    between atoms: C_26  and  O_31
REMARK    5  A    between atoms: C_28  and  O_33
REMARK                            x       y       z     vdW  Elec       q    Type
REMARK                         _______ _______ _______ _____ _____    ______ ____
ROOT
ATOM      1 CL   UNL     1      32.744 -21.421 -19.294  0.00  0.00    -0.081 Cl
ATOM      2  C   UNL     1      35.167 -19.129 -21.458  0.00  0.00    +0.146 C 
ATOM      3  C   UNL     1      35.443 -21.078 -19.513  0.00  0.00    +0.062 C 
ATOM      4  C   UNL     1      34.034 -19.716 -20.925  0.00  0.00    +0.050 C 
ATOM      5  C   UNL     1      36.436 -19.493 -21.042  0.00  0.00    +0.039 C 
ATOM      6  C   UNL     1      34.172 -20.699 -19.946  0.00  0.00    +0.074 C 
ATOM      7  C   UNL     1      36.575 -20.476 -20.062  0.00  0.00    +0.019 C 
ENDROOT
BRANCH   3  10
ATOM      8  O   UNL     1      38.088 -23.452 -13.659  0.00  0.00    -0.357 OA
ATOM      9  O   UNL     1      37.065 -21.034 -17.005  0.00  0.00    -0.252 OA
ATOM     10  N   UNL     1      35.617 -22.061 -18.534  0.00  0.00    -0.267 N 
ATOM     11  N   UNL     1      36.290 -23.211 -16.651  0.00  0.00    -0.251 N 
ATOM     12  N   UNL     1      37.700 -22.734 -14.784  0.00  0.00    -0.062 NA
ATOM     13  C   UNL     1      36.396 -22.001 -17.355  0.00  0.00    +0.309 C 
ATOM     14  C   UNL     1      36.907 -23.565 -15.428  0.00  0.00    +0.177 C 
ATOM     15  C   UNL     1      36.734 -24.795 -14.814  0.00  0.00    +0.073 C 
ATOM     16  C   UNL     1      37.506 -24.679 -13.689  0.00  0.00    +0.156 C 
ATOM     17  C   UNL     1      37.811 -25.575 -12.567  0.00  0.00    +0.075 C 
ATOM     18  H   UNL     1      35.133 -22.904 -18.684  0.00  0.00    +0.156 HD
ATOM     19  H   UNL     1      35.713 -23.899 -17.058  0.00  0.00    +0.158 HD
ENDBRANCH   3  10
BRANCH   2  20
ATOM     20  O   UNL     1      35.031 -18.153 -22.429  0.00  0.00    -0.453 OA
BRANCH  20  24
ATOM     21  N   UNL     1      34.293 -14.300 -21.085  0.00  0.00    -0.244 NA
ATOM     22  C   UNL     1      34.401 -15.871 -22.909  0.00  0.00    +0.055 C 
ATOM     23  C   UNL     1      34.163 -14.580 -22.396  0.00  0.00    +0.087 C 
ATOM     24  C   UNL     1      34.783 -16.877 -22.010  0.00  0.00    +0.148 C 
ATOM     25  C   UNL     1      34.256 -16.128 -24.283  0.00  0.00    +0.045 C 
ATOM     26  C   UNL     1      33.875 -15.111 -25.153  0.00  0.00    +0.173 C 
ATOM     27  C   UNL     1      33.784 -13.580 -23.289  0.00  0.00    +0.059 C 
ATOM     28  C   UNL     1      33.639 -13.836 -24.654  0.00  0.00    +0.174 C 
ATOM     29  C   UNL     1      34.918 -16.592 -20.659  0.00  0.00    +0.058 C 
ATOM     30  C   UNL     1      34.663 -15.299 -20.252  0.00  0.00    +0.102 C 
BRANCH  26  31
ATOM     31  O   UNL     1      33.739 -15.376 -26.482  0.00  0.00    -0.468 OA
ATOM     32  C   UNL     1      32.412 -15.555 -26.975  0.00  0.00    +0.253 C 
ENDBRANCH  26  31
BRANCH  28  33
ATOM     33  O   UNL     1      33.265 -12.824 -25.488  0.00  0.00    -0.468 OA
ATOM     34  C   UNL     1      33.979 -11.594 -25.376  0.00  0.00    +0.253 C 
ENDBRANCH  28  33
ENDBRANCH  20  24
ENDBRANCH   2  20
TORSDOF 5
ENDMDL
MODEL 8
REMARK VINA RESULT:     -10.4      2.504      3.538
REMARK  Name = 9911830
REMARK  5 active torsions:
REMARK  status: ('A' for Active; 'I' for Inactive)
REMARK    1  A    between atoms: C_2  and  O_20
REMARK    2  A    between atoms: C_3  and  N_10
REMARK    3  A    between atoms: O_20  and  C_24
REMARK    4  A    between atoms: C_26  and  O_31
REMARK    5  A    between atoms: C_28  and  O_33
REMARK                            x       y       z     vdW  Elec       q    Type
REMARK                         _______ _______ _______ _____ _____    ______ ____
ROOT
ATOM      1 CL   UNL     1      37.379 -19.969 -19.410  0.00  0.00    -0.081 Cl
ATOM      2  C   UNL     1      34.412 -22.514 -18.686  0.00  0.00    +0.146 C 
ATOM      3  C   UNL     1      34.786 -20.240 -20.218  0.00  0.00    +0.062 C 
ATOM      4  C   UNL     1      35.643 -21.884 -18.670  0.00  0.00    +0.050 C 
ATOM      5  C   UNL     1      33.362 -22.033 -19.450  0.00  0.00    +0.039 C 
ATOM      6  C   UNL     1      35.833 -20.739 -19.443  0.00  0.00    +0.074 C 
ATOM      7  C   UNL     1      33.552 -20.888 -20.223  0.00  0.00    +0.019 C 
ENDROOT
BRANCH   3  10
ATOM      8  O   UNL     1      32.694 -14.207 -22.692  0.00  0.00    -0.357 OA
ATOM      9  O   UNL     1      32.969 -17.901 -20.603  0.00  0.00    -0.252 OA
ATOM     10  N   UNL     1      34.944 -19.095 -21.006  0.00  0.00    -0.267 N 
ATOM     11  N   UNL     1      34.606 -17.065 -22.047  0.00  0.00    -0.251 N 
ATOM     12  N   UNL     1      32.869 -15.426 -22.050  0.00  0.00    -0.062 NA
ATOM     13  C   UNL     1      34.057 -18.004 -21.161  0.00  0.00    +0.309 C 
ATOM     14  C   UNL     1      34.047 -15.837 -22.474  0.00  0.00    +0.177 C 
ATOM     15  C   UNL     1      34.677 -14.977 -23.358  0.00  0.00    +0.073 C 
ATOM     16  C   UNL     1      33.778 -13.950 -23.469  0.00  0.00    +0.156 C 
ATOM     17  C   UNL     1      33.760 -12.691 -24.224  0.00  0.00    +0.075 C 
ATOM     18  H   UNL     1      35.783 -19.040 -21.517  0.00  0.00    +0.156 HD
ATOM     19  H   UNL     1      35.492 -17.287 -22.418  0.00  0.00    +0.158 HD
ENDBRANCH   3  10
BRANCH   2  20
ATOM     20  O   UNL     1      34.222 -23.649 -17.919  0.00  0.00    -0.453 OA
BRANCH  20  24
ATOM     21  N   UNL     1      32.276 -23.162 -14.289  0.00  0.00    -0.244 NA
ATOM     22  C   UNL     1      34.236 -23.846 -15.512  0.00  0.00    +0.055 C 
ATOM     23  C   UNL     1      33.527 -23.659 -14.308  0.00  0.00    +0.087 C 
ATOM     24  C   UNL     1      33.601 -23.498 -16.712  0.00  0.00    +0.148 C 
ATOM     25  C   UNL     1      35.541 -24.369 -15.494  0.00  0.00    +0.045 C 
ATOM     26  C   UNL     1      36.148 -24.706 -14.288  0.00  0.00    +0.173 C 
ATOM     27  C   UNL     1      34.158 -24.006 -13.116  0.00  0.00    +0.059 C 
ATOM     28  C   UNL     1      35.455 -24.525 -13.098  0.00  0.00    +0.174 C 
ATOM     29  C   UNL     1      32.313 -22.985 -16.696  0.00  0.00    +0.058 C 
ATOM     30  C   UNL     1      31.699 -22.838 -15.469  0.00  0.00    +0.102 C 
BRANCH  26  31
ATOM     31  O   UNL     1      37.413 -25.211 -14.288  0.00  0.00    -0.468 OA
ATOM     32  C   UNL     1      37.691 -26.267 -15.205  0.00  0.00    +0.253 C 
ENDBRANCH  26  31
BRANCH  28  33
ATOM     33  O   UNL     1      36.030 -24.848 -11.905  0.00  0.00    -0.468 OA
ATOM     34  C   UNL     1      35.760 -23.988 -10.801  0.00  0.00    +0.253 C 
ENDBRANCH  28  33
ENDBRANCH  20  24
ENDBRANCH   2  20
TORSDOF 5
ENDMDL
MODEL 9
REMARK VINA RESULT:     -10.1      7.389     15.328
REMARK  Name = 9911830
REMARK  5 active torsions:
REMARK  status: ('A' for Active; 'I' for Inactive)
REMARK    1  A    between atoms: C_2  and  O_20
REMARK    2  A    between atoms: C_3  and  N_10
REMARK    3  A    between atoms: O_20  and  C_24
REMARK    4  A    between atoms: C_26  and  O_31
REMARK    5  A    between atoms: C_28  and  O_33
REMARK                            x       y       z     vdW  Elec       q    Type
REMARK                         _______ _______ _______ _____ _____    ______ ____
ROOT
ATOM      1 CL   UNL     1      31.544 -11.775 -22.462  0.00  0.00    -0.081 Cl
ATOM      2  C   UNL     1      33.778  -8.557 -23.141  0.00  0.00    +0.146 C 
ATOM      3  C   UNL     1      33.702 -11.179 -24.024  0.00  0.00    +0.062 C 
ATOM      4  C   UNL     1      32.806  -9.408 -22.646  0.00  0.00    +0.050 C 
ATOM      5  C   UNL     1      34.713  -8.986 -24.067  0.00  0.00    +0.039 C 
ATOM      6  C   UNL     1      32.767 -10.729 -23.091  0.00  0.00    +0.074 C 
ATOM      7  C   UNL     1      34.674 -10.306 -24.512  0.00  0.00    +0.019 C 
ENDROOT
BRANCH   3  10
ATOM      8  O   UNL     1      34.853 -17.896 -23.359  0.00  0.00    -0.357 OA
ATOM      9  O   UNL     1      34.570 -13.706 -22.690  0.00  0.00    -0.252 OA
ATOM     10  N   UNL     1      33.689 -12.496 -24.492  0.00  0.00    -0.267 N 
ATOM     11  N   UNL     1      33.922 -14.785 -24.660  0.00  0.00    -0.251 N 
ATOM     12  N   UNL     1      34.723 -16.519 -23.227  0.00  0.00    -0.062 NA
ATOM     13  C   UNL     1      34.109 -13.671 -23.826  0.00  0.00    +0.309 C 
ATOM     14  C   UNL     1      34.212 -16.142 -24.381  0.00  0.00    +0.177 C 
ATOM     15  C   UNL     1      33.989 -17.170 -25.282  0.00  0.00    +0.073 C 
ATOM     16  C   UNL     1      34.412 -18.272 -24.587  0.00  0.00    +0.156 C 
ATOM     17  C   UNL     1      34.477 -19.706 -24.897  0.00  0.00    +0.075 C 
ATOM     18  H   UNL     1      33.340 -12.623 -25.403  0.00  0.00    +0.156 HD
ATOM     19  H   UNL     1      33.542 -14.599 -25.550  0.00  0.00    +0.158 HD
ENDBRANCH   3  10
BRANCH   2  20
ATOM     20  O   UNL     1      33.819  -7.247 -22.699  0.00  0.00    -0.453 OA
BRANCH  20  24
ATOM     21  N   UNL     1      30.431  -4.924 -23.269  0.00  0.00    -0.244 NA
ATOM     22  C   UNL     1      32.535  -5.755 -24.098  0.00  0.00    +0.055 C 
ATOM     23  C   UNL     1      31.365  -4.982 -24.237  0.00  0.00    +0.087 C 
ATOM     24  C   UNL     1      32.713  -6.475 -22.909  0.00  0.00    +0.148 C 
ATOM     25  C   UNL     1      33.489  -5.792 -25.130  0.00  0.00    +0.045 C 
ATOM     26  C   UNL     1      33.288  -5.067 -26.301  0.00  0.00    +0.173 C 
ATOM     27  C   UNL     1      31.189  -4.266 -25.419  0.00  0.00    +0.059 C 
ATOM     28  C   UNL     1      32.136  -4.303 -26.445  0.00  0.00    +0.174 C 
ATOM     29  C   UNL     1      31.753  -6.418 -21.909  0.00  0.00    +0.058 C 
ATOM     30  C   UNL     1      30.640  -5.634 -22.136  0.00  0.00    +0.102 C 
BRANCH  26  31
ATOM     31  O   UNL     1      34.221  -5.114 -27.292  0.00  0.00    -0.468 OA
ATOM     32  C   UNL     1      35.123  -4.013 -27.387  0.00  0.00    +0.253 C 
ENDBRANCH  26  31
BRANCH  28  33
ATOM     33  O   UNL     1      31.919  -3.585 -27.583  0.00  0.00    -0.468 OA
ATOM     34  C   UNL     1      31.480  -2.238 -27.426  0.00  0.00    +0.253 C 
ENDBRANCH  28  33
ENDBRANCH  20  24
ENDBRANCH   2  20
TORSDOF 5
ENDMDL
