MODEL 1
REMARK VINA RESULT:     -11.0      0.000      0.000
REMARK  Name = 2352168
REMARK  5 active torsions:
REMARK  status: ('A' for Active; 'I' for Inactive)
REMARK    1  A    between atoms: C_1  and  C_9
REMARK    2  A    between atoms: C_2  and  O_18
REMARK    3  A    between atoms: N_8  and  C_11
REMARK    4  A    between atoms: C_11  and  C_13
REMARK    5  A    between atoms: O_18  and  C_19
REMARK                            x       y       z     vdW  Elec       q    Type
REMARK                         _______ _______ _______ _____ _____    ______ ____
ROOT
ATOM      1  C   UNL     1      34.655 -21.464 -19.653  0.00  0.00    +0.054 C 
ATOM      2  C   UNL     1      35.593 -19.202 -20.990  0.00  0.00    +0.145 C 
ATOM      3  C   UNL     1      33.753 -20.567 -20.225  0.00  0.00    +0.008 C 
ATOM      4  C   UNL     1      36.027 -21.231 -19.750  0.00  0.00    +0.008 C 
ATOM      5  C   UNL     1      34.222 -19.436 -20.892  0.00  0.00    +0.038 C 
ATOM      6  C   UNL     1      36.496 -20.099 -20.418  0.00  0.00    +0.038 C 
ENDROOT
BRANCH   1   9
ATOM      7  O   UNL     1      33.899 -23.682 -19.585  0.00  0.00    -0.270 OA
ATOM      8  N   UNL     1      34.036 -22.552 -17.566  0.00  0.00    -0.296 N 
ATOM      9  C   UNL     1      34.165 -22.643 -18.956  0.00  0.00    +0.246 C 
ATOM     10  H   UNL     1      34.264 -21.698 -17.133  0.00  0.00    +0.150 HD
BRANCH   8  11
ATOM     11  C   UNL     1      33.586 -23.643 -16.732  0.00  0.00    +0.136 C 
BRANCH  11  13
ATOM     12  N   UNL     1      31.269 -22.969 -16.927  0.00  0.00    -0.246 NA
ATOM     13  C   UNL     1      32.258 -23.352 -16.096  0.00  0.00    +0.079 C 
ATOM     14  C   UNL     1      32.125 -23.488 -14.728  0.00  0.00    +0.016 C 
ATOM     15  C   UNL     1      30.883 -23.211 -14.170  0.00  0.00    +0.003 C 
ATOM     16  C   UNL     1      30.075 -22.708 -16.350  0.00  0.00    +0.099 C 
ATOM     17  C   UNL     1      29.832 -22.813 -14.989  0.00  0.00    +0.021 C 
ENDBRANCH  11  13
ENDBRANCH   8  11
ENDBRANCH   1   9
BRANCH   2  18
ATOM     18  O   UNL     1      36.052 -18.098 -21.639  0.00  0.00    -0.453 OA
BRANCH  18  19
ATOM     19  C   UNL     1      35.431 -17.744 -22.826  0.00  0.00    +0.145 C 
ATOM     20  C   UNL     1      35.241 -18.708 -23.799  0.00  0.00    +0.037 C 
ATOM     21  C   UNL     1      35.018 -16.437 -23.006  0.00  0.00    +0.037 C 
ATOM     22  C   UNL     1      34.617 -18.351 -24.995  0.00  0.00    +0.003 C 
ATOM     23  C   UNL     1      34.393 -16.081 -24.201  0.00  0.00    +0.003 C 
ATOM     24  C   UNL     1      34.192 -17.038 -25.196  0.00  0.00    +0.000 C 
ENDBRANCH  18  19
ENDBRANCH   2  18
TORSDOF 5
ENDMDL
MODEL 2
REMARK VINA RESULT:     -11.0      5.335      9.218
REMARK  Name = 2352168
REMARK  5 active torsions:
REMARK  status: ('A' for Active; 'I' for Inactive)
REMARK    1  A    between atoms: C_1  and  C_9
REMARK    2  A    between atoms: C_2  and  O_18
REMARK    3  A    between atoms: N_8  and  C_11
REMARK    4  A    between atoms: C_11  and  C_13
REMARK    5  A    between atoms: O_18  and  C_19
REMARK                            x       y       z     vdW  Elec       q    Type
REMARK                         _______ _______ _______ _____ _____    ______ ____
ROOT
ATOM      1  C   UNL     1      34.197 -15.036 -22.639  0.00  0.00    +0.054 C 
ATOM      2  C   UNL     1      35.348 -17.470 -21.910  0.00  0.00    +0.145 C 
ATOM      3  C   UNL     1      34.596 -15.941 -23.621  0.00  0.00    +0.008 C 
ATOM      4  C   UNL     1      34.372 -15.348 -21.291  0.00  0.00    +0.008 C 
ATOM      5  C   UNL     1      35.172 -17.157 -23.257  0.00  0.00    +0.038 C 
ATOM      6  C   UNL     1      34.949 -16.564 -20.926  0.00  0.00    +0.038 C 
ENDROOT
BRANCH   1   9
ATOM      7  O   UNL     1      34.078 -13.095 -23.948  0.00  0.00    -0.270 OA
ATOM      8  N   UNL     1      32.457 -13.365 -22.312  0.00  0.00    -0.296 N 
ATOM      9  C   UNL     1      33.596 -13.767 -23.019  0.00  0.00    +0.246 C 
ATOM     10  H   UNL     1      32.131 -13.945 -21.587  0.00  0.00    +0.150 HD
BRANCH   8  11
ATOM     11  C   UNL     1      31.736 -12.143 -22.587  0.00  0.00    +0.136 C 
BRANCH  11  13
ATOM     12  N   UNL     1      32.029  -9.910 -21.699  0.00  0.00    -0.246 NA
ATOM     13  C   UNL     1      31.761 -11.201 -21.419  0.00  0.00    +0.079 C 
ATOM     14  C   UNL     1      31.516 -11.696 -20.153  0.00  0.00    +0.016 C 
ATOM     15  C   UNL     1      31.547 -10.798 -19.092  0.00  0.00    +0.003 C 
ATOM     16  C   UNL     1      32.050  -9.066 -20.643  0.00  0.00    +0.099 C 
ATOM     17  C   UNL     1      31.818  -9.455 -19.333  0.00  0.00    +0.021 C 
ENDBRANCH  11  13
ENDBRANCH   8  11
ENDBRANCH   1   9
BRANCH   2  18
ATOM     18  O   UNL     1      35.912 -18.656 -21.553  0.00  0.00    -0.453 OA
BRANCH  18  19
ATOM     19  C   UNL     1      35.112 -19.580 -20.901  0.00  0.00    +0.145 C 
ATOM     20  C   UNL     1      35.710 -20.575 -20.149  0.00  0.00    +0.037 C 
ATOM     21  C   UNL     1      33.739 -19.484 -21.020  0.00  0.00    +0.037 C 
ATOM     22  C   UNL     1      34.904 -21.506 -19.493  0.00  0.00    +0.003 C 
ATOM     23  C   UNL     1      32.933 -20.415 -20.364  0.00  0.00    +0.003 C 
ATOM     24  C   UNL     1      33.516 -21.426 -19.600  0.00  0.00    +0.000 C 
ENDBRANCH  18  19
ENDBRANCH   2  18
TORSDOF 5
ENDMDL
MODEL 3
REMARK VINA RESULT:     -10.9      2.933      8.329
REMARK  Name = 2352168
REMARK  5 active torsions:
REMARK  status: ('A' for Active; 'I' for Inactive)
REMARK    1  A    between atoms: C_1  and  C_9
REMARK    2  A    between atoms: C_2  and  O_18
REMARK    3  A    between atoms: N_8  and  C_11
REMARK    4  A    between atoms: C_11  and  C_13
REMARK    5  A    between atoms: O_18  and  C_19
REMARK                            x       y       z     vdW  Elec       q    Type
REMARK                         _______ _______ _______ _____ _____    ______ ____
ROOT
ATOM      1  C   UNL     1      35.052 -19.981 -20.586  0.00  0.00    +0.054 C 
ATOM      2  C   UNL     1      34.083 -22.262 -19.306  0.00  0.00    +0.145 C 
ATOM      3  C   UNL     1      33.678 -20.190 -20.480  0.00  0.00    +0.008 C 
ATOM      4  C   UNL     1      35.943 -20.911 -20.052  0.00  0.00    +0.008 C 
ATOM      5  C   UNL     1      33.193 -21.331 -19.842  0.00  0.00    +0.038 C 
ATOM      6  C   UNL     1      35.458 -22.053 -19.413  0.00  0.00    +0.038 C 
ENDROOT
BRANCH   1   9
ATOM      7  O   UNL     1      36.781 -18.624 -21.403  0.00  0.00    -0.270 OA
ATOM      8  N   UNL     1      34.610 -17.878 -21.730  0.00  0.00    -0.296 N 
ATOM      9  C   UNL     1      35.557 -18.791 -21.254  0.00  0.00    +0.246 C 
ATOM     10  H   UNL     1      33.657 -18.073 -21.576  0.00  0.00    +0.150 HD
BRANCH   8  11
ATOM     11  C   UNL     1      34.953 -16.663 -22.433  0.00  0.00    +0.136 C 
BRANCH  11  13
ATOM     12  N   UNL     1      33.564 -14.820 -23.163  0.00  0.00    -0.246 NA
ATOM     13  C   UNL     1      34.006 -15.543 -22.115  0.00  0.00    +0.079 C 
ATOM     14  C   UNL     1      33.650 -15.319 -20.800  0.00  0.00    +0.016 C 
ATOM     15  C   UNL     1      32.771 -14.274 -20.539  0.00  0.00    +0.003 C 
ATOM     16  C   UNL     1      32.710 -13.812 -22.871  0.00  0.00    +0.099 C 
ATOM     17  C   UNL     1      32.287 -13.501 -21.589  0.00  0.00    +0.021 C 
ENDBRANCH  11  13
ENDBRANCH   8  11
ENDBRANCH   1   9
BRANCH   2  18
ATOM     18  O   UNL     1      33.611 -23.376 -18.684  0.00  0.00    -0.453 OA
BRANCH  18  19
ATOM     19  C   UNL     1      33.266 -23.270 -17.347  0.00  0.00    +0.145 C 
ATOM     20  C   UNL     1      31.932 -23.145 -17.004  0.00  0.00    +0.037 C 
ATOM     21  C   UNL     1      34.264 -23.291 -16.390  0.00  0.00    +0.037 C 
ATOM     22  C   UNL     1      31.585 -23.037 -15.657  0.00  0.00    +0.003 C 
ATOM     23  C   UNL     1      33.916 -23.183 -15.043  0.00  0.00    +0.003 C 
ATOM     24  C   UNL     1      32.576 -23.056 -14.677  0.00  0.00    +0.000 C 
ENDBRANCH  18  19
ENDBRANCH   2  18
TORSDOF 5
ENDMDL
MODEL 4
REMARK VINA RESULT:     -10.9      1.497      2.075
REMARK  Name = 2352168
REMARK  5 active torsions:
REMARK  status: ('A' for Active; 'I' for Inactive)
REMARK    1  A    between atoms: C_1  and  C_9
REMARK    2  A    between atoms: C_2  and  O_18
REMARK    3  A    between atoms: N_8  and  C_11
REMARK    4  A    between atoms: C_11  and  C_13
REMARK    5  A    between atoms: O_18  and  C_19
REMARK                            x       y       z     vdW  Elec       q    Type
REMARK                         _______ _______ _______ _____ _____    ______ ____
ROOT
ATOM      1  C   UNL     1      34.078 -21.386 -19.403  0.00  0.00    +0.054 C 
ATOM      2  C   UNL     1      34.389 -19.575 -21.501  0.00  0.00    +0.145 C 
ATOM      3  C   UNL     1      32.961 -20.764 -19.959  0.00  0.00    +0.008 C 
ATOM      4  C   UNL     1      35.352 -21.103 -19.896  0.00  0.00    +0.008 C 
ATOM      5  C   UNL     1      33.116 -19.859 -21.007  0.00  0.00    +0.038 C 
ATOM      6  C   UNL     1      35.507 -20.197 -20.945  0.00  0.00    +0.038 C 
ENDROOT
BRANCH   1   9
ATOM      7  O   UNL     1      34.909 -22.861 -17.781  0.00  0.00    -0.270 OA
ATOM      8  N   UNL     1      32.609 -22.583 -17.874  0.00  0.00    -0.296 N 
ATOM      9  C   UNL     1      33.916 -22.330 -18.308  0.00  0.00    +0.246 C 
ATOM     10  H   UNL     1      31.869 -22.128 -18.338  0.00  0.00    +0.150 HD
BRANCH   8  11
ATOM     11  C   UNL     1      32.288 -23.476 -16.785  0.00  0.00    +0.136 C 
BRANCH  11  13
ATOM     12  N   UNL     1      30.105 -22.454 -17.013  0.00  0.00    -0.246 NA
ATOM     13  C   UNL     1      30.828 -23.436 -16.439  0.00  0.00    +0.079 C 
ATOM     14  C   UNL     1      30.318 -24.383 -15.572  0.00  0.00    +0.016 C 
ATOM     15  C   UNL     1      28.962 -24.319 -15.272  0.00  0.00    +0.003 C 
ATOM     16  C   UNL     1      28.790 -22.423 -16.698  0.00  0.00    +0.099 C 
ATOM     17  C   UNL     1      28.176 -23.322 -15.842  0.00  0.00    +0.021 C 
ENDBRANCH  11  13
ENDBRANCH   8  11
ENDBRANCH   1   9
BRANCH   2  18
ATOM     18  O   UNL     1      34.542 -18.690 -22.524  0.00  0.00    -0.453 OA
BRANCH  18  19
ATOM     19  C   UNL     1      34.539 -17.340 -22.213  0.00  0.00    +0.145 C 
ATOM     20  C   UNL     1      34.495 -16.414 -23.240  0.00  0.00    +0.037 C 
ATOM     21  C   UNL     1      34.581 -16.954 -20.887  0.00  0.00    +0.037 C 
ATOM     22  C   UNL     1      34.493 -15.054 -22.927  0.00  0.00    +0.003 C 
ATOM     23  C   UNL     1      34.578 -15.595 -20.574  0.00  0.00    +0.003 C 
ATOM     24  C   UNL     1      34.534 -14.645 -21.595  0.00  0.00    +0.000 C 
ENDBRANCH  18  19
ENDBRANCH   2  18
TORSDOF 5
ENDMDL
MODEL 5
REMARK VINA RESULT:     -10.9      4.692     10.136
REMARK  Name = 2352168
REMARK  5 active torsions:
REMARK  status: ('A' for Active; 'I' for Inactive)
REMARK    1  A    between atoms: C_1  and  C_9
REMARK    2  A    between atoms: C_2  and  O_18
REMARK    3  A    between atoms: N_8  and  C_11
REMARK    4  A    between atoms: C_11  and  C_13
REMARK    5  A    between atoms: O_18  and  C_19
REMARK                            x       y       z     vdW  Elec       q    Type
REMARK                         _______ _______ _______ _____ _____    ______ ____
ROOT
ATOM      1  C   UNL     1      34.457 -16.505 -24.038  0.00  0.00    +0.054 C 
ATOM      2  C   UNL     1      35.569 -18.318 -22.233  0.00  0.00    +0.145 C 
ATOM      3  C   UNL     1      34.753 -17.804 -24.448  0.00  0.00    +0.008 C 
ATOM      4  C   UNL     1      34.716 -16.111 -22.725  0.00  0.00    +0.008 C 
ATOM      5  C   UNL     1      35.309 -18.710 -23.546  0.00  0.00    +0.038 C 
ATOM      6  C   UNL     1      35.273 -17.018 -21.823  0.00  0.00    +0.038 C 
ENDROOT
BRANCH   1   9
ATOM      7  O   UNL     1      33.469 -15.945 -26.089  0.00  0.00    -0.270 OA
ATOM      8  N   UNL     1      33.785 -14.226 -24.565  0.00  0.00    -0.296 N 
ATOM      9  C   UNL     1      33.877 -15.559 -24.979  0.00  0.00    +0.246 C 
ATOM     10  H   UNL     1      34.129 -13.991 -23.674  0.00  0.00    +0.150 HD
BRANCH   8  11
ATOM     11  C   UNL     1      33.213 -13.175 -25.377  0.00  0.00    +0.136 C 
BRANCH  11  13
ATOM     12  N   UNL     1      33.350 -11.200 -23.984  0.00  0.00    -0.246 NA
ATOM     13  C   UNL     1      33.823 -11.837 -25.073  0.00  0.00    +0.079 C 
ATOM     14  C   UNL     1      34.808 -11.345 -25.906  0.00  0.00    +0.016 C 
ATOM     15  C   UNL     1      35.352 -10.103 -25.598  0.00  0.00    +0.003 C 
ATOM     16  C   UNL     1      33.903  -9.995 -23.715  0.00  0.00    +0.099 C 
ATOM     17  C   UNL     1      34.896  -9.408 -24.482  0.00  0.00    +0.021 C 
ENDBRANCH  11  13
ENDBRANCH   8  11
ENDBRANCH   1   9
BRANCH   2  18
ATOM     18  O   UNL     1      36.114 -19.201 -21.352  0.00  0.00    -0.453 OA
BRANCH  18  19
ATOM     19  C   UNL     1      35.254 -20.056 -20.682  0.00  0.00    +0.145 C 
ATOM     20  C   UNL     1      33.893 -19.818 -20.735  0.00  0.00    +0.037 C 
ATOM     21  C   UNL     1      35.780 -21.124 -19.979  0.00  0.00    +0.037 C 
ATOM     22  C   UNL     1      33.027 -20.679 -20.059  0.00  0.00    +0.003 C 
ATOM     23  C   UNL     1      34.914 -21.984 -19.303  0.00  0.00    +0.003 C 
ATOM     24  C   UNL     1      33.537 -21.761 -19.344  0.00  0.00    +0.000 C 
ENDBRANCH  18  19
ENDBRANCH   2  18
TORSDOF 5
ENDMDL
MODEL 6
REMARK VINA RESULT:     -10.8      4.835      9.275
REMARK  Name = 2352168
REMARK  5 active torsions:
REMARK  status: ('A' for Active; 'I' for Inactive)
REMARK    1  A    between atoms: C_1  and  C_9
REMARK    2  A    between atoms: C_2  and  O_18
REMARK    3  A    between atoms: N_8  and  C_11
REMARK    4  A    between atoms: C_11  and  C_13
REMARK    5  A    between atoms: O_18  and  C_19
REMARK                            x       y       z     vdW  Elec       q    Type
REMARK                         _______ _______ _______ _____ _____    ______ ____
ROOT
ATOM      1  C   UNL     1      34.533 -16.093 -23.320  0.00  0.00    +0.054 C 
ATOM      2  C   UNL     1      35.614 -18.257 -21.931  0.00  0.00    +0.145 C 
ATOM      3  C   UNL     1      34.675 -16.032 -21.935  0.00  0.00    +0.008 C 
ATOM      4  C   UNL     1      34.932 -17.236 -24.013  0.00  0.00    +0.008 C 
ATOM      5  C   UNL     1      35.214 -17.113 -21.240  0.00  0.00    +0.038 C 
ATOM      6  C   UNL     1      35.472 -18.319 -23.318  0.00  0.00    +0.038 C 
ENDROOT
BRANCH   1   9
ATOM      7  O   UNL     1      33.301 -15.149 -25.078  0.00  0.00    -0.270 OA
ATOM      8  N   UNL     1      34.194 -13.690 -23.512  0.00  0.00    -0.296 N 
ATOM      9  C   UNL     1      33.968 -14.965 -24.045  0.00  0.00    +0.246 C 
ATOM     10  H   UNL     1      34.732 -13.618 -22.692  0.00  0.00    +0.150 HD
BRANCH   8  11
ATOM     11  C   UNL     1      33.680 -12.475 -24.103  0.00  0.00    +0.136 C 
BRANCH  11  13
ATOM     12  N   UNL     1      32.830 -10.362 -23.283  0.00  0.00    -0.246 NA
ATOM     13  C   UNL     1      32.824 -11.703 -23.142  0.00  0.00    +0.079 C 
ATOM     14  C   UNL     1      32.097 -12.390 -22.190  0.00  0.00    +0.016 C 
ATOM     15  C   UNL     1      31.315 -11.645 -21.314  0.00  0.00    +0.003 C 
ATOM     16  C   UNL     1      32.057  -9.671 -22.414  0.00  0.00    +0.099 C 
ATOM     17  C   UNL     1      31.289 -10.258 -21.422  0.00  0.00    +0.021 C 
ENDBRANCH  11  13
ENDBRANCH   8  11
ENDBRANCH   1   9
BRANCH   2  18
ATOM     18  O   UNL     1      36.140 -19.314 -21.254  0.00  0.00    -0.453 OA
BRANCH  18  19
ATOM     19  C   UNL     1      35.263 -20.147 -20.580  0.00  0.00    +0.145 C 
ATOM     20  C   UNL     1      33.901 -19.951 -20.726  0.00  0.00    +0.037 C 
ATOM     21  C   UNL     1      35.770 -21.153 -19.779  0.00  0.00    +0.037 C 
ATOM     22  C   UNL     1      33.018 -20.790 -20.046  0.00  0.00    +0.003 C 
ATOM     23  C   UNL     1      34.886 -21.992 -19.100  0.00  0.00    +0.003 C 
ATOM     24  C   UNL     1      33.510 -21.810 -19.234  0.00  0.00    +0.000 C 
ENDBRANCH  18  19
ENDBRANCH   2  18
TORSDOF 5
ENDMDL
MODEL 7
REMARK VINA RESULT:     -10.8      2.576      8.767
REMARK  Name = 2352168
REMARK  5 active torsions:
REMARK  status: ('A' for Active; 'I' for Inactive)
REMARK    1  A    between atoms: C_1  and  C_9
REMARK    2  A    between atoms: C_2  and  O_18
REMARK    3  A    between atoms: N_8  and  C_11
REMARK    4  A    between atoms: C_11  and  C_13
REMARK    5  A    between atoms: O_18  and  C_19
REMARK                            x       y       z     vdW  Elec       q    Type
REMARK                         _______ _______ _______ _____ _____    ______ ____
ROOT
ATOM      1  C   UNL     1      35.005 -19.807 -20.543  0.00  0.00    +0.054 C 
ATOM      2  C   UNL     1      33.970 -22.117 -19.374  0.00  0.00    +0.145 C 
ATOM      3  C   UNL     1      35.867 -20.787 -20.055  0.00  0.00    +0.008 C 
ATOM      4  C   UNL     1      33.625 -19.981 -20.449  0.00  0.00    +0.008 C 
ATOM      5  C   UNL     1      35.350 -21.942 -19.469  0.00  0.00    +0.038 C 
ATOM      6  C   UNL     1      33.107 -21.136 -19.863  0.00  0.00    +0.038 C 
ENDROOT
BRANCH   1   9
ATOM      7  O   UNL     1      36.710 -18.583 -21.590  0.00  0.00    -0.270 OA
ATOM      8  N   UNL     1      34.692 -17.495 -21.239  0.00  0.00    -0.296 N 
ATOM      9  C   UNL     1      35.545 -18.601 -21.153  0.00  0.00    +0.246 C 
ATOM     10  H   UNL     1      33.783 -17.579 -20.872  0.00  0.00    +0.150 HD
BRANCH   8  11
ATOM     11  C   UNL     1      35.074 -16.236 -21.838  0.00  0.00    +0.136 C 
BRANCH  11  13
ATOM     12  N   UNL     1      33.861 -14.965 -23.503  0.00  0.00    -0.246 NA
ATOM     13  C   UNL     1      34.545 -16.095 -23.235  0.00  0.00    +0.079 C 
ATOM     14  C   UNL     1      34.780 -17.106 -24.146  0.00  0.00    +0.016 C 
ATOM     15  C   UNL     1      34.276 -16.945 -25.432  0.00  0.00    +0.003 C 
ATOM     16  C   UNL     1      33.386 -14.843 -24.763  0.00  0.00    +0.099 C 
ATOM     17  C   UNL     1      33.565 -15.795 -25.755  0.00  0.00    +0.021 C 
ENDBRANCH  11  13
ENDBRANCH   8  11
ENDBRANCH   1   9
BRANCH   2  18
ATOM     18  O   UNL     1      33.463 -23.244 -18.802  0.00  0.00    -0.453 OA
BRANCH  18  19
ATOM     19  C   UNL     1      33.204 -23.214 -17.442  0.00  0.00    +0.145 C 
ATOM     20  C   UNL     1      31.895 -23.093 -17.009  0.00  0.00    +0.037 C 
ATOM     21  C   UNL     1      34.258 -23.305 -16.552  0.00  0.00    +0.037 C 
ATOM     22  C   UNL     1      31.633 -23.062 -15.639  0.00  0.00    +0.003 C 
ATOM     23  C   UNL     1      33.996 -23.274 -15.182  0.00  0.00    +0.003 C 
ATOM     24  C   UNL     1      32.683 -23.153 -14.726  0.00  0.00    +0.000 C 
ENDBRANCH  18  19
ENDBRANCH   2  18
TORSDOF 5
ENDMDL
MODEL 8
REMARK VINA RESULT:     -10.8      5.165      7.937
REMARK  Name = 2352168
REMARK  5 active torsions:
REMARK  status: ('A' for Active; 'I' for Inactive)
REMARK    1  A    between atoms: C_1  and  C_9
REMARK    2  A    between atoms: C_2  and  O_18
REMARK    3  A    between atoms: N_8  and  C_11
REMARK    4  A    between atoms: C_11  and  C_13
REMARK    5  A    between atoms: O_18  and  C_19
REMARK                            x       y       z     vdW  Elec       q    Type
REMARK                         _______ _______ _______ _____ _____    ______ ____
ROOT
ATOM      1  C   UNL     1      33.746 -14.758 -22.226  0.00  0.00    +0.054 C 
ATOM      2  C   UNL     1      31.946 -12.664 -21.837  0.00  0.00    +0.145 C 
ATOM      3  C   UNL     1      33.212 -14.524 -20.959  0.00  0.00    +0.008 C 
ATOM      4  C   UNL     1      33.380 -13.946 -23.299  0.00  0.00    +0.008 C 
ATOM      5  C   UNL     1      32.313 -13.477 -20.765  0.00  0.00    +0.038 C 
ATOM      6  C   UNL     1      32.481 -12.898 -23.104  0.00  0.00    +0.038 C 
ENDROOT
BRANCH   1   9
ATOM      7  O   UNL     1      35.441 -15.857 -23.416  0.00  0.00    -0.270 OA
ATOM      8  N   UNL     1      34.707 -16.859 -21.458  0.00  0.00    -0.296 N 
ATOM      9  C   UNL     1      34.686 -15.851 -22.428  0.00  0.00    +0.246 C 
ATOM     10  H   UNL     1      34.080 -16.791 -20.702  0.00  0.00    +0.150 HD
BRANCH   8  11
ATOM     11  C   UNL     1      35.599 -17.996 -21.506  0.00  0.00    +0.136 C 
BRANCH  11  13
ATOM     12  N   UNL     1      35.857 -20.040 -20.237  0.00  0.00    -0.246 NA
ATOM     13  C   UNL     1      34.998 -19.208 -20.858  0.00  0.00    +0.079 C 
ATOM     14  C   UNL     1      33.632 -19.401 -20.932  0.00  0.00    +0.016 C 
ATOM     15  C   UNL     1      33.107 -20.534 -20.322  0.00  0.00    +0.003 C 
ATOM     16  C   UNL     1      35.310 -21.131 -19.654  0.00  0.00    +0.099 C 
ATOM     17  C   UNL     1      33.955 -21.422 -19.668  0.00  0.00    +0.021 C 
ENDBRANCH  11  13
ENDBRANCH   8  11
ENDBRANCH   1   9
BRANCH   2  18
ATOM     18  O   UNL     1      31.070 -11.640 -21.648  0.00  0.00    -0.453 OA
BRANCH  18  19
ATOM     19  C   UNL     1      31.593 -10.379 -21.413  0.00  0.00    +0.145 C 
ATOM     20  C   UNL     1      31.704  -9.929 -20.110  0.00  0.00    +0.037 C 
ATOM     21  C   UNL     1      31.989  -9.603 -22.486  0.00  0.00    +0.037 C 
ATOM     22  C   UNL     1      32.230  -8.659 -19.873  0.00  0.00    +0.003 C 
ATOM     23  C   UNL     1      32.515  -8.333 -22.249  0.00  0.00    +0.003 C 
ATOM     24  C   UNL     1      32.635  -7.861 -20.942  0.00  0.00    +0.000 C 
ENDBRANCH  18  19
ENDBRANCH   2  18
TORSDOF 5
ENDMDL
MODEL 9
REMARK VINA RESULT:     -10.7      1.298      2.612
REMARK  Name = 2352168
REMARK  5 active torsions:
REMARK  status: ('A' for Active; 'I' for Inactive)
REMARK    1  A    between atoms: C_1  and  C_9
REMARK    2  A    between atoms: C_2  and  O_18
REMARK    3  A    between atoms: N_8  and  C_11
REMARK    4  A    between atoms: C_11  and  C_13
REMARK    5  A    between atoms: O_18  and  C_19
REMARK                            x       y       z     vdW  Elec       q    Type
REMARK                         _______ _______ _______ _____ _____    ______ ____
ROOT
ATOM      1  C   UNL     1      34.504 -21.471 -19.686  0.00  0.00    +0.054 C 
ATOM      2  C   UNL     1      35.538 -19.233 -20.991  0.00  0.00    +0.145 C 
ATOM      3  C   UNL     1      35.884 -21.292 -19.776  0.00  0.00    +0.008 C 
ATOM      4  C   UNL     1      33.640 -20.531 -20.248  0.00  0.00    +0.008 C 
ATOM      5  C   UNL     1      36.401 -20.174 -20.429  0.00  0.00    +0.038 C 
ATOM      6  C   UNL     1      34.158 -19.413 -20.902  0.00  0.00    +0.038 C 
ENDROOT
BRANCH   1   9
ATOM      7  O   UNL     1      33.944 -23.745 -19.573  0.00  0.00    -0.270 OA
ATOM      8  N   UNL     1      33.502 -22.455 -17.698  0.00  0.00    -0.296 N 
ATOM      9  C   UNL     1      33.965 -22.639 -19.006  0.00  0.00    +0.246 C 
ATOM     10  H   UNL     1      33.547 -21.551 -17.311  0.00  0.00    +0.150 HD
BRANCH   8  11
ATOM     11  C   UNL     1      32.961 -23.521 -16.885  0.00  0.00    +0.136 C 
BRANCH  11  13
ATOM     12  N   UNL     1      35.136 -24.111 -16.002  0.00  0.00    -0.246 NA
ATOM     13  C   UNL     1      33.847 -23.841 -15.717  0.00  0.00    +0.079 C 
ATOM     14  C   UNL     1      33.307 -23.841 -14.446  0.00  0.00    +0.016 C 
ATOM     15  C   UNL     1      34.154 -24.142 -13.385  0.00  0.00    +0.003 C 
ATOM     16  C   UNL     1      35.930 -24.399 -14.946  0.00  0.00    +0.099 C 
ATOM     17  C   UNL     1      35.493 -24.428 -13.632  0.00  0.00    +0.021 C 
ENDBRANCH  11  13
ENDBRANCH   8  11
ENDBRANCH   1   9
BRANCH   2  18
ATOM     18  O   UNL     1      36.042 -18.143 -21.630  0.00  0.00    -0.453 OA
BRANCH  18  19
ATOM     19  C   UNL     1      35.435 -17.751 -22.812  0.00  0.00    +0.145 C 
ATOM     20  C   UNL     1      35.064 -16.428 -22.971  0.00  0.00    +0.037 C 
ATOM     21  C   UNL     1      35.215 -18.691 -23.801  0.00  0.00    +0.037 C 
ATOM     22  C   UNL     1      34.452 -16.033 -24.161  0.00  0.00    +0.003 C 
ATOM     23  C   UNL     1      34.603 -18.296 -24.991  0.00  0.00    +0.003 C 
ATOM     24  C   UNL     1      34.221 -16.967 -25.170  0.00  0.00    +0.000 C 
ENDBRANCH  18  19
ENDBRANCH   2  18
TORSDOF 5
ENDMDL
