MODEL 1
REMARK VINA RESULT:      -8.6      0.000      0.000
REMARK  Name = 3109
REMARK  3 active torsions:
REMARK  status: ('A' for Active; 'I' for Inactive)
REMARK    1  A    between atoms: S_1  and  C_4
REMARK    2  A    between atoms: S_1  and  S_9
REMARK    3  A    between atoms: S_9  and  C_12
REMARK                            x       y       z     vdW  Elec       q    Type
REMARK                         _______ _______ _______ _____ _____    ______ ____
ROOT
ATOM      1  S   UNL     1      36.086 -18.416 -21.899  0.00  0.00    -0.028 S 
ENDROOT
BRANCH   1   4
ATOM      2  O   UNL     1      36.874 -20.680 -20.107  0.00  0.00    -0.163 OA
ATOM      3  N   UNL     1      35.609 -20.544 -20.212  0.00  0.00    -0.122 N 
ATOM      4  C   UNL     1      35.045 -19.556 -20.995  0.00  0.00    +0.138 C 
ATOM      5  C   UNL     1      33.664 -19.423 -21.098  0.00  0.00    +0.028 C 
ATOM      6  C   UNL     1      34.780 -21.409 -19.524  0.00  0.00    +0.122 C 
ATOM      7  C   UNL     1      32.839 -20.298 -20.401  0.00  0.00    +0.004 C 
ATOM      8  C   UNL     1      33.396 -21.297 -19.611  0.00  0.00    +0.022 C 
ENDBRANCH   1   4
BRANCH   1   9
ATOM      9  S   UNL     1      35.103 -18.304 -23.703  0.00  0.00    -0.028 S 
BRANCH   9  12
ATOM     10  O   UNL     1      33.717 -16.776 -25.873  0.00  0.00    -0.163 OA
ATOM     11  N   UNL     1      33.921 -16.080 -24.823  0.00  0.00    -0.122 N 
ATOM     12  C   UNL     1      34.551 -16.608 -23.710  0.00  0.00    +0.138 C 
ATOM     13  C   UNL     1      34.762 -15.828 -22.575  0.00  0.00    +0.028 C 
ATOM     14  C   UNL     1      33.502 -14.763 -24.798  0.00  0.00    +0.122 C 
ATOM     15  C   UNL     1      34.336 -14.504 -22.560  0.00  0.00    +0.004 C 
ATOM     16  C   UNL     1      33.703 -13.967 -23.675  0.00  0.00    +0.022 C 
ENDBRANCH   9  12
ENDBRANCH   1   9
TORSDOF 3
ENDMDL
MODEL 2
REMARK VINA RESULT:      -8.6      0.050      6.378
REMARK  Name = 3109
REMARK  3 active torsions:
REMARK  status: ('A' for Active; 'I' for Inactive)
REMARK    1  A    between atoms: S_1  and  C_4
REMARK    2  A    between atoms: S_1  and  S_9
REMARK    3  A    between atoms: S_9  and  C_12
REMARK                            x       y       z     vdW  Elec       q    Type
REMARK                         _______ _______ _______ _____ _____    ______ ____
ROOT
ATOM      1  S   UNL     1      35.024 -18.288 -23.690  0.00  0.00    -0.028 S 
ENDROOT
BRANCH   1   4
ATOM      2  O   UNL     1      33.697 -16.711 -25.860  0.00  0.00    -0.163 OA
ATOM      3  N   UNL     1      33.909 -16.027 -24.804  0.00  0.00    -0.122 N 
ATOM      4  C   UNL     1      34.514 -16.574 -23.690  0.00  0.00    +0.138 C 
ATOM      5  C   UNL     1      34.737 -15.812 -22.548  0.00  0.00    +0.028 C 
ATOM      6  C   UNL     1      33.524 -14.700 -24.773  0.00  0.00    +0.122 C 
ATOM      7  C   UNL     1      34.345 -14.478 -22.527  0.00  0.00    +0.004 C 
ATOM      8  C   UNL     1      33.737 -13.917 -23.644  0.00  0.00    +0.022 C 
ENDBRANCH   1   4
BRANCH   1   9
ATOM      9  S   UNL     1      36.044 -18.415 -21.907  0.00  0.00    -0.028 S 
BRANCH   9  12
ATOM     10  O   UNL     1      36.876 -20.666 -20.119  0.00  0.00    -0.163 OA
ATOM     11  N   UNL     1      35.609 -20.540 -20.208  0.00  0.00    -0.122 N 
ATOM     12  C   UNL     1      35.028 -19.557 -20.989  0.00  0.00    +0.138 C 
ATOM     13  C   UNL     1      33.642 -19.439 -21.070  0.00  0.00    +0.028 C 
ATOM     14  C   UNL     1      34.796 -21.410 -19.506  0.00  0.00    +0.122 C 
ATOM     15  C   UNL     1      32.833 -20.319 -20.359  0.00  0.00    +0.004 C 
ATOM     16  C   UNL     1      33.410 -21.310 -19.572  0.00  0.00    +0.022 C 
ENDBRANCH   9  12
ENDBRANCH   1   9
TORSDOF 3
ENDMDL
MODEL 3
REMARK VINA RESULT:      -8.2      1.513      6.403
REMARK  Name = 3109
REMARK  3 active torsions:
REMARK  status: ('A' for Active; 'I' for Inactive)
REMARK    1  A    between atoms: S_1  and  C_4
REMARK    2  A    between atoms: S_1  and  S_9
REMARK    3  A    between atoms: S_9  and  C_12
REMARK                            x       y       z     vdW  Elec       q    Type
REMARK                         _______ _______ _______ _____ _____    ______ ____
ROOT
ATOM      1  S   UNL     1      34.966 -16.937 -21.224  0.00  0.00    -0.028 S 
ENDROOT
BRANCH   1   4
ATOM      2  O   UNL     1      33.533 -14.525 -22.266  0.00  0.00    -0.163 OA
ATOM      3  N   UNL     1      33.856 -15.349 -23.185  0.00  0.00    -0.122 N 
ATOM      4  C   UNL     1      34.524 -16.526 -22.908  0.00  0.00    +0.138 C 
ATOM      5  C   UNL     1      34.868 -17.413 -23.922  0.00  0.00    +0.028 C 
ATOM      6  C   UNL     1      33.530 -15.058 -24.496  0.00  0.00    +0.122 C 
ATOM      7  C   UNL     1      34.536 -17.110 -25.238  0.00  0.00    +0.004 C 
ATOM      8  C   UNL     1      33.863 -15.928 -25.529  0.00  0.00    +0.022 C 
ENDBRANCH   1   4
BRANCH   1   9
ATOM      9  S   UNL     1      36.074 -18.649 -21.495  0.00  0.00    -0.028 S 
BRANCH   9  12
ATOM     10  O   UNL     1      36.914 -21.068 -19.945  0.00  0.00    -0.163 OA
ATOM     11  N   UNL     1      35.646 -20.926 -20.002  0.00  0.00    -0.122 N 
ATOM     12  C   UNL     1      35.062 -19.869 -20.676  0.00  0.00    +0.138 C 
ATOM     13  C   UNL     1      33.677 -19.734 -20.725  0.00  0.00    +0.028 C 
ATOM     14  C   UNL     1      34.837 -21.855 -19.375  0.00  0.00    +0.122 C 
ATOM     15  C   UNL     1      32.871 -20.674 -20.091  0.00  0.00    +0.004 C 
ATOM     16  C   UNL     1      33.451 -21.740 -19.411  0.00  0.00    +0.022 C 
ENDBRANCH   9  12
ENDBRANCH   1   9
TORSDOF 3
ENDMDL
MODEL 4
REMARK VINA RESULT:      -8.0      1.977      6.372
REMARK  Name = 3109
REMARK  3 active torsions:
REMARK  status: ('A' for Active; 'I' for Inactive)
REMARK    1  A    between atoms: S_1  and  C_4
REMARK    2  A    between atoms: S_1  and  S_9
REMARK    3  A    between atoms: S_9  and  C_12
REMARK                            x       y       z     vdW  Elec       q    Type
REMARK                         _______ _______ _______ _____ _____    ______ ____
ROOT
ATOM      1  S   UNL     1      35.252 -17.190 -21.064  0.00  0.00    -0.028 S 
ENDROOT
BRANCH   1   4
ATOM      2  O   UNL     1      35.393 -15.791 -23.706  0.00  0.00    -0.163 OA
ATOM      3  N   UNL     1      34.456 -15.352 -22.958  0.00  0.00    -0.122 N 
ATOM      4  C   UNL     1      34.228 -15.868 -21.698  0.00  0.00    +0.138 C 
ATOM      5  C   UNL     1      33.202 -15.377 -20.896  0.00  0.00    +0.028 C 
ATOM      6  C   UNL     1      33.647 -14.332 -23.421  0.00  0.00    +0.122 C 
ATOM      7  C   UNL     1      32.394 -14.351 -21.372  0.00  0.00    +0.004 C 
ATOM      8  C   UNL     1      32.615 -13.824 -22.639  0.00  0.00    +0.022 C 
ENDBRANCH   1   4
BRANCH   1   9
ATOM      9  S   UNL     1      34.407 -18.834 -21.966  0.00  0.00    -0.028 S 
BRANCH   9  12
ATOM     10  O   UNL     1      32.421 -20.583 -20.566  0.00  0.00    -0.163 OA
ATOM     11  N   UNL     1      33.626 -20.811 -20.211  0.00  0.00    -0.122 N 
ATOM     12  C   UNL     1      34.688 -20.103 -20.744  0.00  0.00    +0.138 C 
ATOM     13  C   UNL     1      35.995 -20.369 -20.341  0.00  0.00    +0.028 C 
ATOM     14  C   UNL     1      33.875 -21.789 -19.267  0.00  0.00    +0.122 C 
ATOM     15  C   UNL     1      36.235 -21.356 -19.391  0.00  0.00    +0.004 C 
ATOM     16  C   UNL     1      35.172 -22.071 -18.850  0.00  0.00    +0.022 C 
ENDBRANCH   9  12
ENDBRANCH   1   9
TORSDOF 3
ENDMDL
MODEL 5
REMARK VINA RESULT:      -8.0      1.956      2.414
REMARK  Name = 3109
REMARK  3 active torsions:
REMARK  status: ('A' for Active; 'I' for Inactive)
REMARK    1  A    between atoms: S_1  and  C_4
REMARK    2  A    between atoms: S_1  and  S_9
REMARK    3  A    between atoms: S_9  and  C_12
REMARK                            x       y       z     vdW  Elec       q    Type
REMARK                         _______ _______ _______ _____ _____    ______ ____
ROOT
ATOM      1  S   UNL     1      34.413 -18.639 -21.996  0.00  0.00    -0.028 S 
ENDROOT
BRANCH   1   4
ATOM      2  O   UNL     1      32.441 -20.443 -20.650  0.00  0.00    -0.163 OA
ATOM      3  N   UNL     1      33.647 -20.676 -20.304  0.00  0.00    -0.122 N 
ATOM      4  C   UNL     1      34.705 -19.949 -20.813  0.00  0.00    +0.138 C 
ATOM      5  C   UNL     1      36.013 -20.216 -20.424  0.00  0.00    +0.028 C 
ATOM      6  C   UNL     1      33.904 -21.683 -19.393  0.00  0.00    +0.122 C 
ATOM      7  C   UNL     1      36.260 -21.232 -19.507  0.00  0.00    +0.004 C 
ATOM      8  C   UNL     1      35.203 -21.970 -18.988  0.00  0.00    +0.022 C 
ENDBRANCH   1   4
BRANCH   1   9
ATOM      9  S   UNL     1      35.045 -16.987 -20.944  0.00  0.00    -0.028 S 
BRANCH   9  12
ATOM     10  O   UNL     1      35.420 -15.804 -23.668  0.00  0.00    -0.163 OA
ATOM     11  N   UNL     1      34.458 -15.270 -23.019  0.00  0.00    -0.122 N 
ATOM     12  C   UNL     1      34.129 -15.679 -21.740  0.00  0.00    +0.138 C 
ATOM     13  C   UNL     1      33.076 -15.082 -21.050  0.00  0.00    +0.028 C 
ATOM     14  C   UNL     1      33.730 -14.256 -23.611  0.00  0.00    +0.122 C 
ATOM     15  C   UNL     1      32.348 -14.062 -21.655  0.00  0.00    +0.004 C 
ATOM     16  C   UNL     1      32.674 -13.646 -22.941  0.00  0.00    +0.022 C 
ENDBRANCH   9  12
ENDBRANCH   1   9
TORSDOF 3
ENDMDL
MODEL 6
REMARK VINA RESULT:      -7.7      2.120      2.362
REMARK  Name = 3109
REMARK  3 active torsions:
REMARK  status: ('A' for Active; 'I' for Inactive)
REMARK    1  A    between atoms: S_1  and  C_4
REMARK    2  A    between atoms: S_1  and  S_9
REMARK    3  A    between atoms: S_9  and  C_12
REMARK                            x       y       z     vdW  Elec       q    Type
REMARK                         _______ _______ _______ _____ _____    ______ ____
ROOT
ATOM      1  S   UNL     1      35.291 -17.830 -22.079  0.00  0.00    -0.028 S 
ENDROOT
BRANCH   1   4
ATOM      2  O   UNL     1      37.111 -19.694 -20.604  0.00  0.00    -0.163 OA
ATOM      3  N   UNL     1      35.877 -19.997 -20.479  0.00  0.00    -0.122 N 
ATOM      4  C   UNL     1      34.879 -19.260 -21.085  0.00  0.00    +0.138 C 
ATOM      5  C   UNL     1      33.540 -19.605 -20.937  0.00  0.00    +0.028 C 
ATOM      6  C   UNL     1      35.528 -21.095 -19.716  0.00  0.00    +0.122 C 
ATOM      7  C   UNL     1      33.201 -20.712 -20.167  0.00  0.00    +0.004 C 
ATOM      8  C   UNL     1      34.197 -21.462 -19.552  0.00  0.00    +0.022 C 
ENDBRANCH   1   4
BRANCH   1   9
ATOM      9  S   UNL     1      34.680 -16.291 -20.858  0.00  0.00    -0.028 S 
BRANCH   9  12
ATOM     10  O   UNL     1      32.631 -14.163 -20.370  0.00  0.00    -0.163 OA
ATOM     11  N   UNL     1      32.965 -14.263 -21.599  0.00  0.00    -0.122 N 
ATOM     12  C   UNL     1      33.898 -15.191 -22.026  0.00  0.00    +0.138 C 
ATOM     13  C   UNL     1      34.247 -15.283 -23.371  0.00  0.00    +0.028 C 
ATOM     14  C   UNL     1      32.378 -13.424 -22.525  0.00  0.00    +0.122 C 
ATOM     15  C   UNL     1      33.650 -14.433 -24.296  0.00  0.00    +0.004 C 
ATOM     16  C   UNL     1      32.711 -13.498 -23.874  0.00  0.00    +0.022 C 
ENDBRANCH   9  12
ENDBRANCH   1   9
TORSDOF 3
ENDMDL
MODEL 7
REMARK VINA RESULT:      -7.5      3.615      7.262
REMARK  Name = 3109
REMARK  3 active torsions:
REMARK  status: ('A' for Active; 'I' for Inactive)
REMARK    1  A    between atoms: S_1  and  C_4
REMARK    2  A    between atoms: S_1  and  S_9
REMARK    3  A    between atoms: S_9  and  C_12
REMARK                            x       y       z     vdW  Elec       q    Type
REMARK                         _______ _______ _______ _____ _____    ______ ____
ROOT
ATOM      1  S   UNL     1      33.407 -13.871 -23.733  0.00  0.00    -0.028 S 
ENDROOT
BRANCH   1   4
ATOM      2  O   UNL     1      33.587 -10.963 -24.421  0.00  0.00    -0.163 OA
ATOM      3  N   UNL     1      32.892 -11.187 -23.374  0.00  0.00    -0.122 N 
ATOM      4  C   UNL     1      32.691 -12.465 -22.891  0.00  0.00    +0.138 C 
ATOM      5  C   UNL     1      31.931 -12.689 -21.748  0.00  0.00    +0.028 C 
ATOM      6  C   UNL     1      32.324 -10.121 -22.703  0.00  0.00    +0.122 C 
ATOM      7  C   UNL     1      31.364 -11.609 -21.081  0.00  0.00    +0.004 C 
ATOM      8  C   UNL     1      31.560 -10.318 -21.558  0.00  0.00    +0.022 C 
ENDBRANCH   1   4
BRANCH   1   9
ATOM      9  S   UNL     1      34.469 -14.764 -22.214  0.00  0.00    -0.028 S 
BRANCH   9  12
ATOM     10  O   UNL     1      35.192 -17.270 -20.746  0.00  0.00    -0.163 OA
ATOM     11  N   UNL     1      35.026 -17.455 -21.998  0.00  0.00    -0.122 N 
ATOM     12  C   UNL     1      34.690 -16.416 -22.848  0.00  0.00    +0.138 C 
ATOM     13  C   UNL     1      34.513 -16.641 -24.212  0.00  0.00    +0.028 C 
ATOM     14  C   UNL     1      35.188 -18.725 -22.518  0.00  0.00    +0.122 C 
ATOM     15  C   UNL     1      34.678 -17.923 -24.725  0.00  0.00    +0.004 C 
ATOM     16  C   UNL     1      35.017 -18.972 -23.877  0.00  0.00    +0.022 C 
ENDBRANCH   9  12
ENDBRANCH   1   9
TORSDOF 3
ENDMDL
MODEL 8
REMARK VINA RESULT:      -7.5      3.524      4.593
REMARK  Name = 3109
REMARK  3 active torsions:
REMARK  status: ('A' for Active; 'I' for Inactive)
REMARK    1  A    between atoms: S_1  and  C_4
REMARK    2  A    between atoms: S_1  and  S_9
REMARK    3  A    between atoms: S_9  and  C_12
REMARK                            x       y       z     vdW  Elec       q    Type
REMARK                         _______ _______ _______ _____ _____    ______ ____
ROOT
ATOM      1  S   UNL     1      34.560 -14.866 -21.706  0.00  0.00    -0.028 S 
ENDROOT
BRANCH   1   4
ATOM      2  O   UNL     1      35.327 -17.579 -20.699  0.00  0.00    -0.163 OA
ATOM      3  N   UNL     1      35.111 -17.556 -21.957  0.00  0.00    -0.122 N 
ATOM      4  C   UNL     1      34.747 -16.396 -22.613  0.00  0.00    +0.138 C 
ATOM      5  C   UNL     1      34.517 -16.390 -23.985  0.00  0.00    +0.028 C 
ATOM      6  C   UNL     1      35.246 -18.722 -22.684  0.00  0.00    +0.122 C 
ATOM      7  C   UNL     1      34.655 -17.570 -24.707  0.00  0.00    +0.004 C 
ATOM      8  C   UNL     1      35.021 -18.743 -24.057  0.00  0.00    +0.022 C 
ENDBRANCH   1   4
BRANCH   1   9
ATOM      9  S   UNL     1      32.611 -14.368 -22.135  0.00  0.00    -0.028 S 
BRANCH   9  12
ATOM     10  O   UNL     1      31.239 -11.840 -21.306  0.00  0.00    -0.163 OA
ATOM     11  N   UNL     1      32.063 -11.670 -22.266  0.00  0.00    -0.122 N 
ATOM     12  C   UNL     1      32.794 -12.720 -22.792  0.00  0.00    +0.138 C 
ATOM     13  C   UNL     1      33.688 -12.511 -23.840  0.00  0.00    +0.028 C 
ATOM     14  C   UNL     1      32.227 -10.404 -22.794  0.00  0.00    +0.122 C 
ATOM     15  C   UNL     1      33.846 -11.232 -24.364  0.00  0.00    +0.004 C 
ATOM     16  C   UNL     1      33.114 -10.172 -23.841  0.00  0.00    +0.022 C 
ENDBRANCH   9  12
ENDBRANCH   1   9
TORSDOF 3
ENDMDL
MODEL 9
REMARK VINA RESULT:      -7.5      3.662      4.647
REMARK  Name = 3109
REMARK  3 active torsions:
REMARK  status: ('A' for Active; 'I' for Inactive)
REMARK    1  A    between atoms: S_1  and  C_4
REMARK    2  A    between atoms: S_1  and  S_9
REMARK    3  A    between atoms: S_9  and  C_12
REMARK                            x       y       z     vdW  Elec       q    Type
REMARK                         _______ _______ _______ _____ _____    ______ ____
ROOT
ATOM      1  S   UNL     1      34.476 -14.628 -22.110  0.00  0.00    -0.028 S 
ENDROOT
BRANCH   1   4
ATOM      2  O   UNL     1      35.333 -17.038 -20.555  0.00  0.00    -0.163 OA
ATOM      3  N   UNL     1      35.175 -17.276 -21.799  0.00  0.00    -0.122 N 
ATOM      4  C   UNL     1      34.783 -16.293 -22.686  0.00  0.00    +0.138 C 
ATOM      5  C   UNL     1      34.617 -16.571 -24.039  0.00  0.00    +0.028 C 
ATOM      6  C   UNL     1      35.403 -18.553 -22.274  0.00  0.00    +0.122 C 
ATOM      7  C   UNL     1      34.849 -17.860 -24.506  0.00  0.00    +0.004 C 
ATOM      8  C   UNL     1      35.245 -18.857 -23.622  0.00  0.00    +0.022 C 
ENDBRANCH   1   4
BRANCH   1   9
ATOM      9  S   UNL     1      33.250 -13.898 -23.593  0.00  0.00    -0.028 S 
BRANCH   9  12
ATOM     10  O   UNL     1      33.651 -11.047 -24.411  0.00  0.00    -0.163 OA
ATOM     11  N   UNL     1      32.916 -11.171 -23.375  0.00  0.00    -0.122 N 
ATOM     12  C   UNL     1      32.616 -12.411 -22.840  0.00  0.00    +0.138 C 
ATOM     13  C   UNL     1      31.812 -12.522 -21.708  0.00  0.00    +0.028 C 
ATOM     14  C   UNL     1      32.409 -10.036 -22.771  0.00  0.00    +0.122 C 
ATOM     15  C   UNL     1      31.305 -11.374 -21.108  0.00  0.00    +0.004 C 
ATOM     16  C   UNL     1      31.604 -10.124 -21.640  0.00  0.00    +0.022 C 
ENDBRANCH   9  12
ENDBRANCH   1   9
TORSDOF 3
ENDMDL
