MODEL 1
REMARK VINA RESULT:      -8.3      0.000      0.000
REMARK  Name = 5282440
REMARK  5 active torsions:
REMARK  status: ('A' for Active; 'I' for Inactive)
REMARK    1  A    between atoms: C_1  and  C_13
REMARK    2  A    between atoms: C_4  and  C_7
REMARK    3  A    between atoms: C_8  and  C_10
REMARK    4  A    between atoms: C_10  and  O_11
REMARK    5  A    between atoms: C_13  and  N_14
REMARK                            x       y       z     vdW  Elec       q    Type
REMARK                         _______ _______ _______ _____ _____    ______ ____
ROOT
ATOM      1  C   UNL     1      34.930 -17.829 -21.545  0.00  0.00    -0.002 C 
ATOM      2  C   UNL     1      36.105 -18.520 -21.246  0.00  0.00    -0.003 C 
ATOM      3  C   UNL     1      33.691 -18.407 -21.268  0.00  0.00    -0.003 C 
ATOM      4  C   UNL     1      34.801 -20.367 -20.393  0.00  0.00    +0.000 C 
ATOM      5  C   UNL     1      36.039 -19.789 -20.670  0.00  0.00    -0.000 C 
ATOM      6  C   UNL     1      33.626 -19.676 -20.693  0.00  0.00    -0.000 C 
ENDROOT
BRANCH   4   7
ATOM      7  C   UNL     1      34.733 -21.689 -19.793  0.00  0.00    +0.007 C 
ATOM      8  C   UNL     1      33.794 -22.037 -18.917  0.00  0.00    +0.082 C 
BRANCH   8  10
ATOM      9  O   UNL     1      33.859 -23.699 -17.172  0.00  0.00    -0.245 OA
ATOM     10  C   UNL     1      33.825 -23.403 -18.354  0.00  0.00    +0.338 C 
BRANCH  10  11
ATOM     11  O   UNL     1      33.808 -24.292 -19.375  0.00  0.00    -0.477 OA
ATOM     12  H   UNL     1      34.594 -24.736 -19.623  0.00  0.00    +0.295 HD
ENDBRANCH  10  11
ENDBRANCH   8  10
ENDBRANCH   4   7
BRANCH   1  13
ATOM     13  C   UNL     1      34.999 -16.473 -22.162  0.00  0.00    +0.124 C 
BRANCH  13  14
ATOM     14  N   UNL     1      34.598 -16.492 -23.572  0.00  0.00    -0.264 N 
ATOM     15  N   UNL     1      34.392 -17.200 -25.642  0.00  0.00    -0.225 NA
ATOM     16  C   UNL     1      33.875 -15.535 -24.195  0.00  0.00    +0.088 C 
ATOM     17  C   UNL     1      34.892 -17.471 -24.458  0.00  0.00    +0.168 C 
ATOM     18  C   UNL     1      33.757 -15.994 -25.487  0.00  0.00    +0.117 C 
ENDBRANCH  13  14
ENDBRANCH   1  13
TORSDOF 5
ENDMDL
MODEL 2
REMARK VINA RESULT:      -8.2      4.811      7.406
REMARK  Name = 5282440
REMARK  5 active torsions:
REMARK  status: ('A' for Active; 'I' for Inactive)
REMARK    1  A    between atoms: C_1  and  C_13
REMARK    2  A    between atoms: C_4  and  C_7
REMARK    3  A    between atoms: C_8  and  C_10
REMARK    4  A    between atoms: C_10  and  O_11
REMARK    5  A    between atoms: C_13  and  N_14
REMARK                            x       y       z     vdW  Elec       q    Type
REMARK                         _______ _______ _______ _____ _____    ______ ____
ROOT
ATOM      1  C   UNL     1      35.430 -18.842 -21.821  0.00  0.00    -0.002 C 
ATOM      2  C   UNL     1      35.132 -19.324 -23.096  0.00  0.00    -0.003 C 
ATOM      3  C   UNL     1      35.305 -17.482 -21.542  0.00  0.00    -0.003 C 
ATOM      4  C   UNL     1      34.584 -17.082 -23.813  0.00  0.00    +0.000 C 
ATOM      5  C   UNL     1      34.709 -18.442 -24.092  0.00  0.00    -0.000 C 
ATOM      6  C   UNL     1      34.883 -16.601 -22.537  0.00  0.00    -0.000 C 
ENDROOT
BRANCH   4   7
ATOM      7  C   UNL     1      34.143 -16.164 -24.850  0.00  0.00    +0.007 C 
ATOM      8  C   UNL     1      33.520 -15.019 -24.584  0.00  0.00    +0.082 C 
BRANCH   8  10
ATOM      9  O   UNL     1      33.459 -13.020 -25.931  0.00  0.00    -0.245 OA
ATOM     10  C   UNL     1      33.099 -14.164 -25.714  0.00  0.00    +0.338 C 
BRANCH  10  11
ATOM     11  O   UNL     1      32.235 -14.864 -26.486  0.00  0.00    -0.477 OA
ATOM     12  H   UNL     1      31.341 -14.960 -26.222  0.00  0.00    +0.295 HD
ENDBRANCH  10  11
ENDBRANCH   8  10
ENDBRANCH   4   7
BRANCH   1  13
ATOM     13  C   UNL     1      35.883 -19.784 -20.757  0.00  0.00    +0.124 C 
BRANCH  13  14
ATOM     14  N   UNL     1      34.768 -20.554 -20.196  0.00  0.00    -0.264 N 
ATOM     15  N   UNL     1      32.702 -21.132 -19.720  0.00  0.00    -0.225 NA
ATOM     16  C   UNL     1      34.885 -21.679 -19.455  0.00  0.00    +0.088 C 
ATOM     17  C   UNL     1      33.457 -20.251 -20.338  0.00  0.00    +0.168 C 
ATOM     18  C   UNL     1      33.585 -22.025 -19.168  0.00  0.00    +0.117 C 
ENDBRANCH  13  14
ENDBRANCH   1  13
TORSDOF 5
ENDMDL
MODEL 3
REMARK VINA RESULT:      -8.1      2.063      2.793
REMARK  Name = 5282440
REMARK  5 active torsions:
REMARK  status: ('A' for Active; 'I' for Inactive)
REMARK    1  A    between atoms: C_1  and  C_13
REMARK    2  A    between atoms: C_4  and  C_7
REMARK    3  A    between atoms: C_8  and  C_10
REMARK    4  A    between atoms: C_10  and  O_11
REMARK    5  A    between atoms: C_13  and  N_14
REMARK                            x       y       z     vdW  Elec       q    Type
REMARK                         _______ _______ _______ _____ _____    ______ ____
ROOT
ATOM      1  C   UNL     1      35.298 -18.960 -21.706  0.00  0.00    -0.002 C 
ATOM      2  C   UNL     1      36.578 -19.107 -21.170  0.00  0.00    -0.003 C 
ATOM      3  C   UNL     1      34.243 -19.727 -21.212  0.00  0.00    -0.003 C 
ATOM      4  C   UNL     1      35.746 -20.788 -19.647  0.00  0.00    +0.000 C 
ATOM      5  C   UNL     1      36.801 -20.021 -20.140  0.00  0.00    -0.000 C 
ATOM      6  C   UNL     1      34.467 -20.642 -20.184  0.00  0.00    -0.000 C 
ENDROOT
BRANCH   4   7
ATOM      7  C   UNL     1      35.980 -21.742 -18.574  0.00  0.00    +0.007 C 
ATOM      8  C   UNL     1      36.829 -21.512 -17.576  0.00  0.00    +0.082 C 
BRANCH   8  10
ATOM      9  O   UNL     1      38.009 -22.758 -15.882  0.00  0.00    -0.245 OA
ATOM     10  C   UNL     1      37.005 -22.555 -16.545  0.00  0.00    +0.338 C 
BRANCH  10  11
ATOM     11  O   UNL     1      35.857 -23.266 -16.447  0.00  0.00    -0.477 OA
ATOM     12  H   UNL     1      35.068 -22.845 -16.167  0.00  0.00    +0.295 HD
ENDBRANCH  10  11
ENDBRANCH   8  10
ENDBRANCH   4   7
BRANCH   1  13
ATOM     13  C   UNL     1      35.059 -17.983 -22.807  0.00  0.00    +0.124 C 
BRANCH  13  14
ATOM     14  N   UNL     1      34.816 -16.631 -22.295  0.00  0.00    -0.264 N 
ATOM     15  N   UNL     1      34.476 -14.460 -22.300  0.00  0.00    -0.225 NA
ATOM     16  C   UNL     1      34.685 -16.297 -20.991  0.00  0.00    +0.088 C 
ATOM     17  C   UNL     1      34.688 -15.517 -23.052  0.00  0.00    +0.168 C 
ATOM     18  C   UNL     1      34.473 -14.938 -21.014  0.00  0.00    +0.117 C 
ENDBRANCH  13  14
ENDBRANCH   1  13
TORSDOF 5
ENDMDL
MODEL 4
REMARK VINA RESULT:      -8.1      1.674      2.516
REMARK  Name = 5282440
REMARK  5 active torsions:
REMARK  status: ('A' for Active; 'I' for Inactive)
REMARK    1  A    between atoms: C_1  and  C_13
REMARK    2  A    between atoms: C_4  and  C_7
REMARK    3  A    between atoms: C_8  and  C_10
REMARK    4  A    between atoms: C_10  and  O_11
REMARK    5  A    between atoms: C_13  and  N_14
REMARK                            x       y       z     vdW  Elec       q    Type
REMARK                         _______ _______ _______ _____ _____    ______ ____
ROOT
ATOM      1  C   UNL     1      34.956 -19.214 -21.623  0.00  0.00    -0.002 C 
ATOM      2  C   UNL     1      33.582 -19.417 -21.487  0.00  0.00    -0.003 C 
ATOM      3  C   UNL     1      35.849 -19.940 -20.835  0.00  0.00    -0.003 C 
ATOM      4  C   UNL     1      33.996 -21.071 -19.775  0.00  0.00    +0.000 C 
ATOM      5  C   UNL     1      33.103 -20.346 -20.563  0.00  0.00    -0.000 C 
ATOM      6  C   UNL     1      35.370 -20.867 -19.911  0.00  0.00    -0.000 C 
ENDROOT
BRANCH   4   7
ATOM      7  C   UNL     1      33.497 -22.038 -18.811  0.00  0.00    +0.007 C 
ATOM      8  C   UNL     1      34.244 -22.526 -17.824  0.00  0.00    +0.082 C 
BRANCH   8  10
ATOM      9  O   UNL     1      32.454 -23.705 -16.720  0.00  0.00    -0.245 OA
ATOM     10  C   UNL     1      33.645 -23.518 -16.908  0.00  0.00    +0.338 C 
BRANCH  10  11
ATOM     11  O   UNL     1      34.641 -24.200 -16.297  0.00  0.00    -0.477 OA
ATOM     12  H   UNL     1      34.528 -24.513 -15.421  0.00  0.00    +0.295 HD
ENDBRANCH  10  11
ENDBRANCH   8  10
ENDBRANCH   4   7
BRANCH   1  13
ATOM     13  C   UNL     1      35.468 -18.221 -22.611  0.00  0.00    +0.124 C 
BRANCH  13  14
ATOM     14  N   UNL     1      35.066 -16.853 -22.269  0.00  0.00    -0.264 N 
ATOM     15  N   UNL     1      34.488 -14.751 -22.541  0.00  0.00    -0.225 NA
ATOM     16  C   UNL     1      34.871 -16.382 -21.016  0.00  0.00    +0.088 C 
ATOM     17  C   UNL     1      34.831 -15.860 -23.157  0.00  0.00    +0.168 C 
ATOM     18  C   UNL     1      34.511 -15.068 -21.207  0.00  0.00    +0.117 C 
ENDBRANCH  13  14
ENDBRANCH   1  13
TORSDOF 5
ENDMDL
MODEL 5
REMARK VINA RESULT:      -8.1      1.795      2.747
REMARK  Name = 5282440
REMARK  5 active torsions:
REMARK  status: ('A' for Active; 'I' for Inactive)
REMARK    1  A    between atoms: C_1  and  C_13
REMARK    2  A    between atoms: C_4  and  C_7
REMARK    3  A    between atoms: C_8  and  C_10
REMARK    4  A    between atoms: C_10  and  O_11
REMARK    5  A    between atoms: C_13  and  N_14
REMARK                            x       y       z     vdW  Elec       q    Type
REMARK                         _______ _______ _______ _____ _____    ______ ____
ROOT
ATOM      1  C   UNL     1      34.640 -19.361 -21.478  0.00  0.00    -0.002 C 
ATOM      2  C   UNL     1      33.321 -19.610 -21.100  0.00  0.00    -0.003 C 
ATOM      3  C   UNL     1      35.681 -20.084 -20.896  0.00  0.00    -0.003 C 
ATOM      4  C   UNL     1      34.084 -21.307 -19.557  0.00  0.00    +0.000 C 
ATOM      5  C   UNL     1      33.043 -20.583 -20.139  0.00  0.00    -0.000 C 
ATOM      6  C   UNL     1      35.404 -21.056 -19.935  0.00  0.00    -0.000 C 
ENDROOT
BRANCH   4   7
ATOM      7  C   UNL     1      33.795 -22.320 -18.556  0.00  0.00    +0.007 C 
ATOM      8  C   UNL     1      34.558 -22.513 -17.483  0.00  0.00    +0.082 C 
BRANCH   8  10
ATOM      9  O   UNL     1      34.935 -24.402 -16.033  0.00  0.00    -0.245 OA
ATOM     10  C   UNL     1      34.184 -23.582 -16.534  0.00  0.00    +0.338 C 
BRANCH  10  11
ATOM     11  O   UNL     1      32.852 -23.508 -16.302  0.00  0.00    -0.477 OA
ATOM     12  H   UNL     1      32.445 -24.110 -15.710  0.00  0.00    +0.295 HD
ENDBRANCH  10  11
ENDBRANCH   8  10
ENDBRANCH   4   7
BRANCH   1  13
ATOM     13  C   UNL     1      34.937 -18.320 -22.504  0.00  0.00    +0.124 C 
BRANCH  13  14
ATOM     14  N   UNL     1      34.764 -16.964 -21.973  0.00  0.00    -0.264 N 
ATOM     15  N   UNL     1      34.732 -15.310 -20.527  0.00  0.00    -0.225 NA
ATOM     16  C   UNL     1      34.373 -15.885 -22.689  0.00  0.00    +0.088 C 
ATOM     17  C   UNL     1      34.971 -16.592 -20.690  0.00  0.00    +0.168 C 
ATOM     18  C   UNL     1      34.358 -14.862 -21.769  0.00  0.00    +0.117 C 
ENDBRANCH  13  14
ENDBRANCH   1  13
TORSDOF 5
ENDMDL
MODEL 6
REMARK VINA RESULT:      -8.1      1.395      2.155
REMARK  Name = 5282440
REMARK  5 active torsions:
REMARK  status: ('A' for Active; 'I' for Inactive)
REMARK    1  A    between atoms: C_1  and  C_13
REMARK    2  A    between atoms: C_4  and  C_7
REMARK    3  A    between atoms: C_8  and  C_10
REMARK    4  A    between atoms: C_10  and  O_11
REMARK    5  A    between atoms: C_13  and  N_14
REMARK                            x       y       z     vdW  Elec       q    Type
REMARK                         _______ _______ _______ _____ _____    ______ ____
ROOT
ATOM      1  C   UNL     1      34.632 -16.409 -22.482  0.00  0.00    -0.002 C 
ATOM      2  C   UNL     1      33.706 -16.705 -21.481  0.00  0.00    -0.003 C 
ATOM      3  C   UNL     1      35.564 -17.370 -22.875  0.00  0.00    -0.003 C 
ATOM      4  C   UNL     1      34.645 -18.921 -21.267  0.00  0.00    +0.000 C 
ATOM      5  C   UNL     1      33.713 -17.961 -20.874  0.00  0.00    -0.000 C 
ATOM      6  C   UNL     1      35.572 -18.624 -22.267  0.00  0.00    -0.000 C 
ENDROOT
BRANCH   4   7
ATOM      7  C   UNL     1      34.653 -20.229 -20.633  0.00  0.00    +0.007 C 
ATOM      8  C   UNL     1      33.608 -20.715 -19.968  0.00  0.00    +0.082 C 
BRANCH   8  10
ATOM      9  O   UNL     1      34.698 -22.786 -19.386  0.00  0.00    -0.245 OA
ATOM     10  C   UNL     1      33.726 -22.051 -19.346  0.00  0.00    +0.338 C 
BRANCH  10  11
ATOM     11  O   UNL     1      32.565 -22.337 -18.712  0.00  0.00    -0.477 OA
ATOM     12  H   UNL     1      31.791 -21.847 -18.908  0.00  0.00    +0.295 HD
ENDBRANCH  10  11
ENDBRANCH   8  10
ENDBRANCH   4   7
BRANCH   1  13
ATOM     13  C   UNL     1      34.625 -15.066 -23.131  0.00  0.00    +0.124 C 
BRANCH  13  14
ATOM     14  N   UNL     1      33.939 -15.089 -24.427  0.00  0.00    -0.264 N 
ATOM     15  N   UNL     1      33.271 -15.822 -26.388  0.00  0.00    -0.225 NA
ATOM     16  C   UNL     1      33.154 -14.103 -24.916  0.00  0.00    +0.088 C 
ATOM     17  C   UNL     1      33.991 -16.099 -25.324  0.00  0.00    +0.168 C 
ATOM     18  C   UNL     1      32.746 -14.578 -26.141  0.00  0.00    +0.117 C 
ENDBRANCH  13  14
ENDBRANCH   1  13
TORSDOF 5
ENDMDL
MODEL 7
REMARK VINA RESULT:      -8.0      4.717      7.579
REMARK  Name = 5282440
REMARK  5 active torsions:
REMARK  status: ('A' for Active; 'I' for Inactive)
REMARK    1  A    between atoms: C_1  and  C_13
REMARK    2  A    between atoms: C_4  and  C_7
REMARK    3  A    between atoms: C_8  and  C_10
REMARK    4  A    between atoms: C_10  and  O_11
REMARK    5  A    between atoms: C_13  and  N_14
REMARK                            x       y       z     vdW  Elec       q    Type
REMARK                         _______ _______ _______ _____ _____    ______ ____
ROOT
ATOM      1  C   UNL     1      34.235 -21.582 -19.471  0.00  0.00    -0.002 C 
ATOM      2  C   UNL     1      33.122 -20.826 -19.840  0.00  0.00    -0.003 C 
ATOM      3  C   UNL     1      35.491 -21.274 -19.992  0.00  0.00    -0.003 C 
ATOM      4  C   UNL     1      34.523 -19.455 -21.254  0.00  0.00    +0.000 C 
ATOM      5  C   UNL     1      33.267 -19.763 -20.732  0.00  0.00    -0.000 C 
ATOM      6  C   UNL     1      35.635 -20.212 -20.884  0.00  0.00    -0.000 C 
ENDROOT
BRANCH   4   7
ATOM      7  C   UNL     1      34.673 -18.348 -22.184  0.00  0.00    +0.007 C 
ATOM      8  C   UNL     1      34.832 -18.522 -23.493  0.00  0.00    +0.082 C 
BRANCH   8  10
ATOM      9  O   UNL     1      34.588 -17.196 -25.492  0.00  0.00    -0.245 OA
ATOM     10  C   UNL     1      34.993 -17.328 -24.349  0.00  0.00    +0.338 C 
BRANCH  10  11
ATOM     11  O   UNL     1      35.672 -16.386 -23.655  0.00  0.00    -0.477 OA
ATOM     12  H   UNL     1      35.259 -15.940 -22.942  0.00  0.00    +0.295 HD
ENDBRANCH  10  11
ENDBRANCH   8  10
ENDBRANCH   4   7
BRANCH   1  13
ATOM     13  C   UNL     1      34.081 -22.719 -18.518  0.00  0.00    +0.124 C 
BRANCH  13  14
ATOM     14  N   UNL     1      34.989 -22.599 -17.372  0.00  0.00    -0.264 N 
ATOM     15  N   UNL     1      36.789 -22.092 -16.218  0.00  0.00    -0.225 NA
ATOM     16  C   UNL     1      34.723 -23.018 -16.114  0.00  0.00    +0.088 C 
ATOM     17  C   UNL     1      36.225 -22.053 -17.405  0.00  0.00    +0.168 C 
ATOM     18  C   UNL     1      35.858 -22.693 -15.408  0.00  0.00    +0.117 C 
ENDBRANCH  13  14
ENDBRANCH   1  13
TORSDOF 5
ENDMDL
MODEL 8
REMARK VINA RESULT:      -8.0      8.358     10.120
REMARK  Name = 5282440
REMARK  5 active torsions:
REMARK  status: ('A' for Active; 'I' for Inactive)
REMARK    1  A    between atoms: C_1  and  C_13
REMARK    2  A    between atoms: C_4  and  C_7
REMARK    3  A    between atoms: C_8  and  C_10
REMARK    4  A    between atoms: C_10  and  O_11
REMARK    5  A    between atoms: C_13  and  N_14
REMARK                            x       y       z     vdW  Elec       q    Type
REMARK                         _______ _______ _______ _____ _____    ______ ____
ROOT
ATOM      1  C   UNL     1      34.384 -23.641 -14.645  0.00  0.00    -0.002 C 
ATOM      2  C   UNL     1      34.057 -23.259 -15.946  0.00  0.00    -0.003 C 
ATOM      3  C   UNL     1      33.388 -24.087 -13.777  0.00  0.00    -0.003 C 
ATOM      4  C   UNL     1      31.735 -23.769 -15.510  0.00  0.00    +0.000 C 
ATOM      5  C   UNL     1      32.732 -23.323 -16.378  0.00  0.00    -0.000 C 
ATOM      6  C   UNL     1      32.064 -24.150 -14.209  0.00  0.00    -0.000 C 
ENDROOT
BRANCH   4   7
ATOM      7  C   UNL     1      30.354 -23.835 -15.960  0.00  0.00    +0.007 C 
ATOM      8  C   UNL     1      29.736 -22.812 -16.544  0.00  0.00    +0.082 C 
BRANCH   8  10
ATOM      9  O   UNL     1      27.794 -24.010 -17.324  0.00  0.00    -0.245 OA
ATOM     10  C   UNL     1      28.324 -22.978 -16.949  0.00  0.00    +0.338 C 
BRANCH  10  11
ATOM     11  O   UNL     1      27.698 -21.783 -16.836  0.00  0.00    -0.477 OA
ATOM     12  H   UNL     1      28.025 -21.136 -16.242  0.00  0.00    +0.295 HD
ENDBRANCH  10  11
ENDBRANCH   8  10
ENDBRANCH   4   7
BRANCH   1  13
ATOM     13  C   UNL     1      35.801 -23.571 -14.183  0.00  0.00    +0.124 C 
BRANCH  13  14
ATOM     14  N   UNL     1      36.397 -24.904 -14.045  0.00  0.00    -0.264 N 
ATOM     15  N   UNL     1      37.294 -26.667 -13.089  0.00  0.00    -0.225 NA
ATOM     16  C   UNL     1      36.629 -25.768 -15.060  0.00  0.00    +0.088 C 
ATOM     17  C   UNL     1      36.803 -25.465 -12.884  0.00  0.00    +0.168 C 
ATOM     18  C   UNL     1      37.190 -26.863 -14.443  0.00  0.00    +0.117 C 
ENDBRANCH  13  14
ENDBRANCH   1  13
TORSDOF 5
ENDMDL
MODEL 9
REMARK VINA RESULT:      -7.9      1.879      2.663
REMARK  Name = 5282440
REMARK  5 active torsions:
REMARK  status: ('A' for Active; 'I' for Inactive)
REMARK    1  A    between atoms: C_1  and  C_13
REMARK    2  A    between atoms: C_4  and  C_7
REMARK    3  A    between atoms: C_8  and  C_10
REMARK    4  A    between atoms: C_10  and  O_11
REMARK    5  A    between atoms: C_13  and  N_14
REMARK                            x       y       z     vdW  Elec       q    Type
REMARK                         _______ _______ _______ _____ _____    ______ ____
ROOT
ATOM      1  C   UNL     1      34.877 -16.875 -23.039  0.00  0.00    -0.002 C 
ATOM      2  C   UNL     1      35.171 -16.768 -21.679  0.00  0.00    -0.003 C 
ATOM      3  C   UNL     1      34.577 -18.119 -23.592  0.00  0.00    -0.003 C 
ATOM      4  C   UNL     1      34.863 -19.152 -21.427  0.00  0.00    +0.000 C 
ATOM      5  C   UNL     1      35.163 -17.907 -20.874  0.00  0.00    -0.000 C 
ATOM      6  C   UNL     1      34.571 -19.257 -22.787  0.00  0.00    -0.000 C 
ENDROOT
BRANCH   4   7
ATOM      7  C   UNL     1      34.856 -20.339 -20.588  0.00  0.00    +0.007 C 
ATOM      8  C   UNL     1      33.746 -20.833 -20.046  0.00  0.00    +0.082 C 
BRANCH   8  10
ATOM      9  O   UNL     1      34.848 -22.715 -19.018  0.00  0.00    -0.245 OA
ATOM     10  C   UNL     1      33.851 -22.036 -19.194  0.00  0.00    +0.338 C 
BRANCH  10  11
ATOM     11  O   UNL     1      32.644 -22.271 -18.627  0.00  0.00    -0.477 OA
ATOM     12  H   UNL     1      31.859 -22.124 -19.116  0.00  0.00    +0.295 HD
ENDBRANCH  10  11
ENDBRANCH   8  10
ENDBRANCH   4   7
BRANCH   1  13
ATOM     13  C   UNL     1      34.886 -15.657 -23.901  0.00  0.00    +0.124 C 
BRANCH  13  14
ATOM     14  N   UNL     1      33.942 -14.642 -23.423  0.00  0.00    -0.264 N 
ATOM     15  N   UNL     1      32.949 -12.693 -23.214  0.00  0.00    -0.225 NA
ATOM     16  C   UNL     1      32.965 -14.847 -22.511  0.00  0.00    +0.088 C 
ATOM     17  C   UNL     1      33.909 -13.351 -23.824  0.00  0.00    +0.168 C 
ATOM     18  C   UNL     1      32.356 -13.619 -22.393  0.00  0.00    +0.117 C 
ENDBRANCH  13  14
ENDBRANCH   1  13
TORSDOF 5
ENDMDL
