MODEL 1
REMARK VINA RESULT:     -12.2      0.000      0.000
REMARK  Name = 11963557
REMARK  4 active torsions:
REMARK  status: ('A' for Active; 'I' for Inactive)
REMARK    1  A    between atoms: C_11  and  C_19
REMARK    2  A    between atoms: C_13  and  C_30
REMARK    3  A    between atoms: C_16  and  N_22
REMARK    4  A    between atoms: C_30  and  C_32
REMARK                            x       y       z     vdW  Elec       q    Type
REMARK                         _______ _______ _______ _____ _____    ______ ____
ROOT
ATOM      1  O   UNL     1      35.381 -19.455 -23.079  0.00  0.00    -0.270 OA
ATOM      2  O   UNL     1      31.731 -12.426 -20.257  0.00  0.00    -0.274 OA
ATOM      3  N   UNL     1      32.557 -13.538 -22.042  0.00  0.00    -0.233 N 
ATOM      4  N   UNL     1      34.352 -17.830 -21.734  0.00  0.00    -0.264 N 
ATOM      5  N   UNL     1      33.979 -15.726 -24.513  0.00  0.00    -0.273 N 
ATOM      6  N   UNL     1      34.394 -16.924 -23.980  0.00  0.00    -0.157 NA
ATOM      7  C   UNL     1      33.479 -15.561 -22.287  0.00  0.00    +0.067 A 
ATOM      8  C   UNL     1      33.462 -14.967 -23.526  0.00  0.00    +0.093 A 
ATOM      9  C   UNL     1      34.089 -16.814 -22.642  0.00  0.00    +0.157 A 
ATOM     10  C   UNL     1      32.940 -14.728 -21.358  0.00  0.00    +0.076 C 
ATOM     11  C   UNL     1      34.965 -19.067 -21.975  0.00  0.00    +0.251 C 
ATOM     12  C   UNL     1      32.910 -13.754 -23.389  0.00  0.00    +0.091 C 
ATOM     13  C   UNL     1      31.961 -12.419 -21.457  0.00  0.00    +0.238 C 
ATOM     14  H   UNL     1      34.074 -17.662 -20.805  0.00  0.00    +0.157 HD
ATOM     15  H   UNL     1      34.048 -15.464 -25.460  0.00  0.00    +0.189 HD
ENDROOT
BRANCH  11  19
ATOM     16  C   UNL     1      35.462 -21.593 -18.565  0.00  0.00    +0.048 C 
ATOM     17  C   UNL     1      36.563 -20.932 -19.146  0.00  0.00    +0.015 C 
ATOM     18  C   UNL     1      34.192 -21.396 -19.143  0.00  0.00    +0.015 C 
ATOM     19  C   UNL     1      35.134 -19.927 -20.815  0.00  0.00    +0.054 C 
ATOM     20  C   UNL     1      36.400 -20.107 -20.259  0.00  0.00    +0.006 C 
ATOM     21  C   UNL     1      34.030 -20.572 -20.257  0.00  0.00    +0.006 C 
BRANCH  16  22
ATOM     22  N   UNL     1      35.624 -22.419 -17.448  0.00  0.00    -0.312 N 
ATOM     23  N   UNL     1      35.912 -23.896 -15.020  0.00  0.00    +0.388 N 
ATOM     24  C   UNL     1      36.773 -22.172 -16.567  0.00  0.00    +0.068 C 
ATOM     25  C   UNL     1      34.447 -23.010 -16.803  0.00  0.00    +0.068 C 
ATOM     26  C   UNL     1      37.097 -23.421 -15.745  0.00  0.00    -0.056 C 
ATOM     27  C   UNL     1      34.846 -24.231 -15.972  0.00  0.00    -0.056 C 
ATOM     28  C   UNL     1      36.247 -25.057 -14.195  0.00  0.00    -0.101 C 
ATOM     29  H   UNL     1      35.583 -23.153 -14.404  0.00  0.00    -0.080 HD
ENDBRANCH  16  22
ENDBRANCH  11  19
BRANCH  13  30
ATOM     30  C   UNL     1      31.652 -11.289 -22.390  0.00  0.00    +0.119 C 
BRANCH  30  32
ATOM     31  S   UNL     1      32.848  -8.811 -22.606  0.00  0.00    -0.090 S 
ATOM     32  C   UNL     1      32.023 -10.003 -21.714  0.00  0.00    +0.016 C 
ATOM     33  C   UNL     1      31.782  -9.638 -20.420  0.00  0.00    +0.003 C 
ATOM     34  C   UNL     1      32.287  -8.334 -20.144  0.00  0.00    +0.007 C 
ATOM     35  C   UNL     1      32.892  -7.770 -21.247  0.00  0.00    +0.035 C 
ENDBRANCH  30  32
ENDBRANCH  13  30
TORSDOF 4
ENDMDL
MODEL 2
REMARK VINA RESULT:     -12.0      1.282      1.965
REMARK  Name = 11963557
REMARK  4 active torsions:
REMARK  status: ('A' for Active; 'I' for Inactive)
REMARK    1  A    between atoms: C_11  and  C_19
REMARK    2  A    between atoms: C_13  and  C_30
REMARK    3  A    between atoms: C_16  and  N_22
REMARK    4  A    between atoms: C_30  and  C_32
REMARK                            x       y       z     vdW  Elec       q    Type
REMARK                         _______ _______ _______ _____ _____    ______ ____
ROOT
ATOM      1  O   UNL     1      35.187 -19.043 -23.891  0.00  0.00    -0.270 OA
ATOM      2  O   UNL     1      31.983 -11.732 -21.248  0.00  0.00    -0.274 OA
ATOM      3  N   UNL     1      32.668 -12.964 -23.014  0.00  0.00    -0.233 N 
ATOM      4  N   UNL     1      34.298 -17.311 -22.579  0.00  0.00    -0.264 N 
ATOM      5  N   UNL     1      33.867 -15.329 -25.440  0.00  0.00    -0.273 N 
ATOM      6  N   UNL     1      34.260 -16.517 -24.868  0.00  0.00    -0.157 NA
ATOM      7  C   UNL     1      33.491 -15.035 -23.202  0.00  0.00    +0.067 A 
ATOM      8  C   UNL     1      33.435 -14.502 -24.468  0.00  0.00    +0.093 A 
ATOM      9  C   UNL     1      34.030 -16.329 -23.524  0.00  0.00    +0.157 A 
ATOM     10  C   UNL     1      33.036 -14.135 -22.291  0.00  0.00    +0.076 C 
ATOM     11  C   UNL     1      34.846 -18.584 -22.788  0.00  0.00    +0.251 C 
ATOM     12  C   UNL     1      32.941 -13.260 -24.364  0.00  0.00    +0.091 C 
ATOM     13  C   UNL     1      32.150 -11.793 -22.457  0.00  0.00    +0.238 C 
ATOM     14  H   UNL     1      34.076 -17.086 -21.647  0.00  0.00    +0.157 HD
ATOM     15  H   UNL     1      33.898 -15.117 -26.400  0.00  0.00    +0.189 HD
ENDROOT
BRANCH  11  19
ATOM     16  C   UNL     1      35.415 -20.964 -19.286  0.00  0.00    +0.048 C 
ATOM     17  C   UNL     1      34.140 -20.828 -19.873  0.00  0.00    +0.015 C 
ATOM     18  C   UNL     1      36.496 -20.290 -19.889  0.00  0.00    +0.015 C 
ATOM     19  C   UNL     1      35.039 -19.393 -21.596  0.00  0.00    +0.054 C 
ATOM     20  C   UNL     1      33.955 -20.051 -21.016  0.00  0.00    +0.006 C 
ATOM     21  C   UNL     1      36.310 -19.513 -21.033  0.00  0.00    +0.006 C 
BRANCH  16  22
ATOM     22  N   UNL     1      35.602 -21.743 -18.140  0.00  0.00    -0.312 N 
ATOM     23  N   UNL     1      36.021 -23.538 -15.958  0.00  0.00    +0.388 N 
ATOM     24  C   UNL     1      34.618 -22.794 -17.851  0.00  0.00    +0.068 C 
ATOM     25  C   UNL     1      36.959 -21.993 -17.644  0.00  0.00    +0.068 C 
ATOM     26  C   UNL     1      34.659 -23.176 -16.370  0.00  0.00    -0.056 C 
ATOM     27  C   UNL     1      36.926 -22.402 -16.169  0.00  0.00    -0.056 C 
ATOM     28  C   UNL     1      36.039 -23.954 -14.555  0.00  0.00    -0.101 C 
ATOM     29  H   UNL     1      36.339 -24.323 -16.526  0.00  0.00    -0.080 HD
ENDBRANCH  16  22
ENDBRANCH  11  19
BRANCH  13  30
ATOM     30  C   UNL     1      31.840 -10.697 -23.429  0.00  0.00    +0.119 C 
BRANCH  30  32
ATOM     31  S   UNL     1      32.761  -8.351 -22.304  0.00  0.00    -0.090 S 
ATOM     32  C   UNL     1      32.937  -9.677 -23.357  0.00  0.00    +0.016 C 
ATOM     33  C   UNL     1      34.113  -9.662 -24.052  0.00  0.00    +0.003 C 
ATOM     34  C   UNL     1      34.903  -8.525 -23.713  0.00  0.00    +0.007 C 
ATOM     35  C   UNL     1      34.286  -7.729 -22.773  0.00  0.00    +0.035 C 
ENDBRANCH  30  32
ENDBRANCH  13  30
TORSDOF 4
ENDMDL
MODEL 3
REMARK VINA RESULT:     -11.6      1.727      2.927
REMARK  Name = 11963557
REMARK  4 active torsions:
REMARK  status: ('A' for Active; 'I' for Inactive)
REMARK    1  A    between atoms: C_11  and  C_19
REMARK    2  A    between atoms: C_13  and  C_30
REMARK    3  A    between atoms: C_16  and  N_22
REMARK    4  A    between atoms: C_30  and  C_32
REMARK                            x       y       z     vdW  Elec       q    Type
REMARK                         _______ _______ _______ _____ _____    ______ ____
ROOT
ATOM      1  O   UNL     1      36.141 -21.893 -21.100  0.00  0.00    -0.270 OA
ATOM      2  O   UNL     1      33.213 -14.025 -20.643  0.00  0.00    -0.274 OA
ATOM      3  N   UNL     1      33.993 -15.673 -21.977  0.00  0.00    -0.233 N 
ATOM      4  N   UNL     1      35.244 -19.859 -20.346  0.00  0.00    -0.264 N 
ATOM      5  N   UNL     1      35.272 -18.602 -23.620  0.00  0.00    -0.273 N 
ATOM      6  N   UNL     1      35.513 -19.636 -22.744  0.00  0.00    -0.157 NA
ATOM      7  C   UNL     1      34.678 -17.764 -21.575  0.00  0.00    +0.067 A 
ATOM      8  C   UNL     1      34.798 -17.548 -22.927  0.00  0.00    +0.093 A 
ATOM      9  C   UNL     1      35.152 -19.121 -21.518  0.00  0.00    +0.157 A 
ATOM     10  C   UNL     1      34.194 -16.653 -20.961  0.00  0.00    +0.076 C 
ATOM     11  C   UNL     1      35.717 -21.169 -20.184  0.00  0.00    +0.251 C 
ATOM     12  C   UNL     1      34.388 -16.296 -23.176  0.00  0.00    +0.091 C 
ATOM     13  C   UNL     1      33.505 -14.381 -21.775  0.00  0.00    +0.238 C 
ATOM     14  H   UNL     1      34.940 -19.407 -19.527  0.00  0.00    +0.157 HD
ATOM     15  H   UNL     1      35.421 -18.629 -24.592  0.00  0.00    +0.189 HD
ENDROOT
BRANCH  11  19
ATOM     16  C   UNL     1      35.728 -22.660 -16.181  0.00  0.00    +0.048 C 
ATOM     17  C   UNL     1      36.835 -21.955 -16.696  0.00  0.00    +0.015 C 
ATOM     18  C   UNL     1      34.618 -22.860 -17.027  0.00  0.00    +0.015 C 
ATOM     19  C   UNL     1      35.721 -21.677 -18.823  0.00  0.00    +0.054 C 
ATOM     20  C   UNL     1      36.830 -21.468 -18.003  0.00  0.00    +0.006 C 
ATOM     21  C   UNL     1      34.615 -22.373 -18.334  0.00  0.00    +0.006 C 
BRANCH  16  22
ATOM     22  N   UNL     1      35.731 -23.149 -14.870  0.00  0.00    -0.312 N 
ATOM     23  N   UNL     1      35.792 -24.380 -12.294  0.00  0.00    +0.388 N 
ATOM     24  C   UNL     1      34.694 -24.117 -14.492  0.00  0.00    +0.068 C 
ATOM     25  C   UNL     1      36.997 -23.257 -14.138  0.00  0.00    +0.068 C 
ATOM     26  C   UNL     1      34.513 -24.143 -12.973  0.00  0.00    -0.056 C 
ATOM     27  C   UNL     1      36.741 -23.311 -12.629  0.00  0.00    -0.056 C 
ATOM     28  C   UNL     1      35.598 -24.457 -10.845  0.00  0.00    -0.101 C 
ATOM     29  H   UNL     1      36.174 -25.271 -12.611  0.00  0.00    -0.080 HD
ENDBRANCH  16  22
ENDBRANCH  11  19
BRANCH  13  30
ATOM     30  C   UNL     1      33.383 -13.537 -23.005  0.00  0.00    +0.119 C 
BRANCH  30  32
ATOM     31  S   UNL     1      33.060 -10.817 -23.349  0.00  0.00    -0.090 S 
ATOM     32  C   UNL     1      32.603 -12.305 -22.658  0.00  0.00    +0.016 C 
ATOM     33  C   UNL     1      31.526 -12.203 -21.824  0.00  0.00    +0.003 C 
ATOM     34  C   UNL     1      31.053 -10.861 -21.746  0.00  0.00    +0.007 C 
ATOM     35  C   UNL     1      31.797 -10.004 -22.527  0.00  0.00    +0.035 C 
ENDBRANCH  30  32
ENDBRANCH  13  30
TORSDOF 4
ENDMDL
MODEL 4
REMARK VINA RESULT:     -10.7      3.768     11.694
REMARK  Name = 11963557
REMARK  4 active torsions:
REMARK  status: ('A' for Active; 'I' for Inactive)
REMARK    1  A    between atoms: C_11  and  C_19
REMARK    2  A    between atoms: C_13  and  C_30
REMARK    3  A    between atoms: C_16  and  N_22
REMARK    4  A    between atoms: C_30  and  C_32
REMARK                            x       y       z     vdW  Elec       q    Type
REMARK                         _______ _______ _______ _____ _____    ______ ____
ROOT
ATOM      1  O   UNL     1      33.144 -15.005 -26.121  0.00  0.00    -0.270 OA
ATOM      2  O   UNL     1      36.526 -18.874 -19.466  0.00  0.00    -0.274 OA
ATOM      3  N   UNL     1      35.770 -19.080 -21.585  0.00  0.00    -0.233 N 
ATOM      4  N   UNL     1      34.096 -15.477 -24.028  0.00  0.00    -0.264 N 
ATOM      5  N   UNL     1      34.465 -18.847 -24.926  0.00  0.00    -0.273 N 
ATOM      6  N   UNL     1      34.074 -17.569 -25.251  0.00  0.00    -0.157 NA
ATOM      7  C   UNL     1      34.913 -17.620 -23.048  0.00  0.00    +0.067 A 
ATOM      8  C   UNL     1      34.938 -18.848 -23.664  0.00  0.00    +0.093 A 
ATOM      9  C   UNL     1      34.348 -16.840 -24.115  0.00  0.00    +0.157 A 
ATOM     10  C   UNL     1      35.408 -17.716 -21.785  0.00  0.00    +0.076 C 
ATOM     11  C   UNL     1      33.525 -14.640 -24.996  0.00  0.00    +0.251 C 
ATOM     12  C   UNL     1      35.451 -19.729 -22.794  0.00  0.00    +0.091 C 
ATOM     13  C   UNL     1      36.321 -19.612 -20.418  0.00  0.00    +0.238 C 
ATOM     14  H   UNL     1      34.350 -15.045 -23.181  0.00  0.00    +0.157 HD
ATOM     15  H   UNL     1      34.407 -19.632 -25.516  0.00  0.00    +0.189 HD
ENDROOT
BRANCH  11  19
ATOM     16  C   UNL     1      33.031 -10.551 -23.865  0.00  0.00    +0.048 C 
ATOM     17  C   UNL     1      33.669 -10.898 -25.073  0.00  0.00    +0.015 C 
ATOM     18  C   UNL     1      32.561 -11.593 -23.041  0.00  0.00    +0.015 C 
ATOM     19  C   UNL     1      33.357 -13.249 -24.611  0.00  0.00    +0.054 C 
ATOM     20  C   UNL     1      33.830 -12.233 -25.442  0.00  0.00    +0.006 C 
ATOM     21  C   UNL     1      32.723 -12.929 -23.411  0.00  0.00    +0.006 C 
BRANCH  16  22
ATOM     22  N   UNL     1      32.868  -9.212 -23.494  0.00  0.00    -0.312 N 
ATOM     23  N   UNL     1      32.643  -6.540 -22.507  0.00  0.00    +0.388 N 
ATOM     24  C   UNL     1      31.939  -8.907 -22.398  0.00  0.00    +0.068 C 
ATOM     25  C   UNL     1      33.979  -8.270 -23.663  0.00  0.00    +0.068 C 
ATOM     26  C   UNL     1      31.489  -7.446 -22.468  0.00  0.00    -0.056 C 
ATOM     27  C   UNL     1      33.463  -6.829 -23.690  0.00  0.00    -0.056 C 
ATOM     28  C   UNL     1      32.201  -5.145 -22.518  0.00  0.00    -0.101 C 
ATOM     29  H   UNL     1      33.207  -6.688 -21.671  0.00  0.00    -0.080 HD
ENDBRANCH  16  22
ENDBRANCH  11  19
BRANCH  13  30
ATOM     30  C   UNL     1      36.615 -21.080 -20.454  0.00  0.00    +0.119 C 
BRANCH  30  32
ATOM     31  S   UNL     1      36.627 -21.899 -17.818  0.00  0.00    -0.090 S 
ATOM     32  C   UNL     1      35.868 -21.739 -19.334  0.00  0.00    +0.016 C 
ATOM     33  C   UNL     1      34.603 -22.255 -19.360  0.00  0.00    +0.003 C 
ATOM     34  C   UNL     1      34.237 -22.802 -18.096  0.00  0.00    +0.007 C 
ATOM     35  C   UNL     1      35.246 -22.674 -17.166  0.00  0.00    +0.035 C 
ENDBRANCH  30  32
ENDBRANCH  13  30
TORSDOF 4
ENDMDL
MODEL 5
REMARK VINA RESULT:     -10.2      4.106     11.348
REMARK  Name = 11963557
REMARK  4 active torsions:
REMARK  status: ('A' for Active; 'I' for Inactive)
REMARK    1  A    between atoms: C_11  and  C_19
REMARK    2  A    between atoms: C_13  and  C_30
REMARK    3  A    between atoms: C_16  and  N_22
REMARK    4  A    between atoms: C_30  and  C_32
REMARK                            x       y       z     vdW  Elec       q    Type
REMARK                         _______ _______ _______ _____ _____    ______ ____
ROOT
ATOM      1  O   UNL     1      36.631 -18.389 -22.211  0.00  0.00    -0.270 OA
ATOM      2  O   UNL     1      30.929 -22.105 -17.273  0.00  0.00    -0.274 OA
ATOM      3  N   UNL     1      32.923 -22.286 -18.320  0.00  0.00    -0.233 N 
ATOM      4  N   UNL     1      34.754 -18.842 -20.876  0.00  0.00    -0.264 N 
ATOM      5  N   UNL     1      35.999 -22.042 -20.163  0.00  0.00    -0.273 N 
ATOM      6  N   UNL     1      36.145 -20.823 -20.786  0.00  0.00    -0.157 NA
ATOM      7  C   UNL     1      34.104 -20.887 -19.606  0.00  0.00    +0.067 A 
ATOM      8  C   UNL     1      34.826 -22.051 -19.499  0.00  0.00    +0.093 A 
ATOM      9  C   UNL     1      35.001 -20.138 -20.443  0.00  0.00    +0.157 A 
ATOM     10  C   UNL     1      32.943 -20.987 -18.906  0.00  0.00    +0.076 C 
ATOM     11  C   UNL     1      35.547 -18.044 -21.712  0.00  0.00    +0.251 C 
ATOM     12  C   UNL     1      34.125 -22.896 -18.729  0.00  0.00    +0.091 C 
ATOM     13  C   UNL     1      31.904 -22.800 -17.517  0.00  0.00    +0.238 C 
ATOM     14  H   UNL     1      33.918 -18.432 -20.557  0.00  0.00    +0.157 HD
ATOM     15  H   UNL     1      36.643 -22.785 -20.198  0.00  0.00    +0.189 HD
ENDROOT
BRANCH  11  19
ATOM     16  C   UNL     1      33.985 -14.171 -22.615  0.00  0.00    +0.048 C 
ATOM     17  C   UNL     1      34.396 -15.046 -23.642  0.00  0.00    +0.015 C 
ATOM     18  C   UNL     1      34.106 -14.613 -21.282  0.00  0.00    +0.015 C 
ATOM     19  C   UNL     1      35.016 -16.726 -22.019  0.00  0.00    +0.054 C 
ATOM     20  C   UNL     1      34.906 -16.311 -23.346  0.00  0.00    +0.006 C 
ATOM     21  C   UNL     1      34.616 -15.877 -20.988  0.00  0.00    +0.006 C 
BRANCH  16  22
ATOM     22  N   UNL     1      33.474 -12.904 -22.911  0.00  0.00    -0.312 N 
ATOM     23  N   UNL     1      32.304 -10.425 -23.715  0.00  0.00    +0.388 N 
ATOM     24  C   UNL     1      33.885 -12.269 -24.170  0.00  0.00    +0.068 C 
ATOM     25  C   UNL     1      32.150 -12.519 -22.410  0.00  0.00    +0.068 C 
ATOM     26  C   UNL     1      33.682 -10.754 -24.099  0.00  0.00    -0.056 C 
ATOM     27  C   UNL     1      32.003 -10.995 -22.396  0.00  0.00    -0.056 C 
ATOM     28  C   UNL     1      32.108  -8.975 -23.703  0.00  0.00    -0.101 C 
ATOM     29  H   UNL     1      31.666 -10.826 -24.401  0.00  0.00    -0.080 HD
ENDBRANCH  16  22
ENDBRANCH  11  19
BRANCH  13  30
ATOM     30  C   UNL     1      32.116 -24.197 -17.019  0.00  0.00    +0.119 C 
BRANCH  30  32
ATOM     31  S   UNL     1      32.029 -23.757 -14.295  0.00  0.00    -0.090 S 
ATOM     32  C   UNL     1      31.355 -24.362 -15.738  0.00  0.00    +0.016 C 
ATOM     33  C   UNL     1      30.141 -24.960 -15.556  0.00  0.00    +0.003 C 
ATOM     34  C   UNL     1      29.742 -24.924 -14.188  0.00  0.00    +0.007 C 
ATOM     35  C   UNL     1      30.677 -24.297 -13.394  0.00  0.00    +0.035 C 
ENDBRANCH  30  32
ENDBRANCH  13  30
TORSDOF 4
ENDMDL
MODEL 6
REMARK VINA RESULT:     -10.2      2.258      3.839
REMARK  Name = 11963557
REMARK  4 active torsions:
REMARK  status: ('A' for Active; 'I' for Inactive)
REMARK    1  A    between atoms: C_11  and  C_19
REMARK    2  A    between atoms: C_13  and  C_30
REMARK    3  A    between atoms: C_16  and  N_22
REMARK    4  A    between atoms: C_30  and  C_32
REMARK                            x       y       z     vdW  Elec       q    Type
REMARK                         _______ _______ _______ _____ _____    ______ ____
ROOT
ATOM      1  O   UNL     1      34.554 -16.689 -25.717  0.00  0.00    -0.270 OA
ATOM      2  O   UNL     1      32.769  -9.443 -21.845  0.00  0.00    -0.274 OA
ATOM      3  N   UNL     1      33.182 -10.480 -23.809  0.00  0.00    -0.233 N 
ATOM      4  N   UNL     1      34.018 -15.058 -24.117  0.00  0.00    -0.264 N 
ATOM      5  N   UNL     1      33.885 -12.606 -26.620  0.00  0.00    -0.273 N 
ATOM      6  N   UNL     1      34.072 -13.919 -26.254  0.00  0.00    -0.157 NA
ATOM      7  C   UNL     1      33.618 -12.607 -24.348  0.00  0.00    +0.067 A 
ATOM      8  C   UNL     1      33.629 -11.880 -25.514  0.00  0.00    +0.093 A 
ATOM      9  C   UNL     1      33.909 -13.908 -24.887  0.00  0.00    +0.157 A 
ATOM     10  C   UNL     1      33.352 -11.797 -23.289  0.00  0.00    +0.076 C 
ATOM     11  C   UNL     1      34.325 -16.358 -24.542  0.00  0.00    +0.251 C 
ATOM     12  C   UNL     1      33.368 -10.603 -25.200  0.00  0.00    +0.091 C 
ATOM     13  C   UNL     1      32.895  -9.340 -23.056  0.00  0.00    +0.238 C 
ATOM     14  H   UNL     1      33.861 -14.947 -23.151  0.00  0.00    +0.157 HD
ATOM     15  H   UNL     1      33.931 -12.254 -27.538  0.00  0.00    +0.189 HD
ENDROOT
BRANCH  11  19
ATOM     16  C   UNL     1      34.541 -19.319 -21.471  0.00  0.00    +0.048 C 
ATOM     17  C   UNL     1      34.737 -19.661 -22.824  0.00  0.00    +0.015 C 
ATOM     18  C   UNL     1      34.270 -17.971 -21.161  0.00  0.00    +0.015 C 
ATOM     19  C   UNL     1      34.398 -17.365 -23.497  0.00  0.00    +0.054 C 
ATOM     20  C   UNL     1      34.667 -18.694 -23.827  0.00  0.00    +0.006 C 
ATOM     21  C   UNL     1      34.200 -17.005 -22.164  0.00  0.00    +0.006 C 
BRANCH  16  22
ATOM     22  N   UNL     1      34.612 -20.289 -20.465  0.00  0.00    -0.312 N 
ATOM     23  N   UNL     1      34.736 -22.448 -18.599  0.00  0.00    +0.388 N 
ATOM     24  C   UNL     1      33.432 -21.133 -20.235  0.00  0.00    +0.068 C 
ATOM     25  C   UNL     1      35.903 -20.900 -20.134  0.00  0.00    +0.068 C 
ATOM     26  C   UNL     1      33.471 -21.739 -18.831  0.00  0.00    -0.056 C 
ATOM     27  C   UNL     1      35.862 -21.516 -18.733  0.00  0.00    -0.056 C 
ATOM     28  C   UNL     1      34.741 -23.070 -17.274  0.00  0.00    -0.101 C 
ATOM     29  H   UNL     1      34.834 -23.185 -19.296  0.00  0.00    -0.080 HD
ENDBRANCH  16  22
ENDBRANCH  11  19
BRANCH  13  30
ATOM     30  C   UNL     1      32.764  -8.068 -23.835  0.00  0.00    +0.119 C 
BRANCH  30  32
ATOM     31  S   UNL     1      30.851  -6.088 -23.646  0.00  0.00    -0.090 S 
ATOM     32  C   UNL     1      32.080  -7.052 -22.970  0.00  0.00    +0.016 C 
ATOM     33  C   UNL     1      32.318  -6.778 -21.653  0.00  0.00    +0.003 C 
ATOM     34  C   UNL     1      31.464  -5.742 -21.175  0.00  0.00    +0.007 C 
ATOM     35  C   UNL     1      30.616  -5.277 -22.156  0.00  0.00    +0.035 C 
ENDBRANCH  30  32
ENDBRANCH  13  30
TORSDOF 4
ENDMDL
MODEL 7
REMARK VINA RESULT:      -9.9      5.405     14.605
REMARK  Name = 11963557
REMARK  4 active torsions:
REMARK  status: ('A' for Active; 'I' for Inactive)
REMARK    1  A    between atoms: C_11  and  C_19
REMARK    2  A    between atoms: C_13  and  C_30
REMARK    3  A    between atoms: C_16  and  N_22
REMARK    4  A    between atoms: C_30  and  C_32
REMARK                            x       y       z     vdW  Elec       q    Type
REMARK                         _______ _______ _______ _____ _____    ______ ____
ROOT
ATOM      1  O   UNL     1      31.771  -6.528 -20.572  0.00  0.00    -0.270 OA
ATOM      2  O   UNL     1      32.430 -14.566 -22.951  0.00  0.00    -0.274 OA
ATOM      3  N   UNL     1      32.171 -13.122 -21.232  0.00  0.00    -0.233 N 
ATOM      4  N   UNL     1      31.954  -8.502 -21.829  0.00  0.00    -0.264 N 
ATOM      5  N   UNL     1      31.774 -10.418 -18.898  0.00  0.00    -0.273 N 
ATOM      6  N   UNL     1      31.763  -9.188 -19.513  0.00  0.00    -0.157 NA
ATOM      7  C   UNL     1      32.027 -10.892 -21.122  0.00  0.00    +0.067 A 
ATOM      8  C   UNL     1      31.927 -11.372 -19.838  0.00  0.00    +0.093 A 
ATOM      9  C   UNL     1      31.916  -9.485 -20.849  0.00  0.00    +0.157 A 
ATOM     10  C   UNL     1      32.177 -11.920 -21.999  0.00  0.00    +0.076 C 
ATOM     11  C   UNL     1      31.884  -7.112 -21.663  0.00  0.00    +0.251 C 
ATOM     12  C   UNL     1      32.012 -12.708 -19.895  0.00  0.00    +0.091 C 
ATOM     13  C   UNL     1      32.300 -14.414 -21.745  0.00  0.00    +0.238 C 
ATOM     14  H   UNL     1      32.043  -8.820 -22.756  0.00  0.00    +0.157 HD
ATOM     15  H   UNL     1      31.686 -10.576 -17.931  0.00  0.00    +0.189 HD
ENDROOT
BRANCH  11  19
ATOM     16  C   UNL     1      32.163  -4.791 -25.239  0.00  0.00    +0.048 C 
ATOM     17  C   UNL     1      31.222  -4.474 -24.238  0.00  0.00    +0.015 C 
ATOM     18  C   UNL     1      33.009  -5.898 -25.024  0.00  0.00    +0.015 C 
ATOM     19  C   UNL     1      31.978  -6.323 -22.880  0.00  0.00    +0.054 C 
ATOM     20  C   UNL     1      31.131  -5.232 -23.071  0.00  0.00    +0.006 C 
ATOM     21  C   UNL     1      32.917  -6.656 -23.856  0.00  0.00    +0.006 C 
BRANCH  16  22
ATOM     22  N   UNL     1      32.255  -4.032 -26.409  0.00  0.00    -0.312 N 
ATOM     23  N   UNL     1      32.626  -2.338 -28.679  0.00  0.00    +0.388 N 
ATOM     24  C   UNL     1      31.846  -2.622 -26.352  0.00  0.00    +0.068 C 
ATOM     25  C   UNL     1      33.282  -4.353 -27.406  0.00  0.00    +0.068 C 
ATOM     26  C   UNL     1      31.513  -2.103 -27.752  0.00  0.00    -0.056 C 
ATOM     27  C   UNL     1      32.904  -3.776 -28.773  0.00  0.00    -0.056 C 
ATOM     28  C   UNL     1      32.319  -1.789 -30.000  0.00  0.00    -0.101 C 
ATOM     29  H   UNL     1      33.457  -1.864 -28.324  0.00  0.00    -0.080 HD
ENDBRANCH  16  22
ENDBRANCH  11  19
BRANCH  13  30
ATOM     30  C   UNL     1      32.265 -15.517 -20.733  0.00  0.00    +0.119 C 
BRANCH  30  32
ATOM     31  S   UNL     1      34.911 -15.961 -21.381  0.00  0.00    -0.090 S 
ATOM     32  C   UNL     1      33.328 -16.514 -21.083  0.00  0.00    +0.016 C 
ATOM     33  C   UNL     1      33.199 -17.869 -21.203  0.00  0.00    +0.003 C 
ATOM     34  C   UNL     1      34.438 -18.481 -21.551  0.00  0.00    +0.007 C 
ATOM     35  C   UNL     1      35.453 -17.558 -21.679  0.00  0.00    +0.035 C 
ENDBRANCH  30  32
ENDBRANCH  13  30
TORSDOF 4
ENDMDL
MODEL 8
REMARK VINA RESULT:      -9.9      2.377      3.338
REMARK  Name = 11963557
REMARK  4 active torsions:
REMARK  status: ('A' for Active; 'I' for Inactive)
REMARK    1  A    between atoms: C_11  and  C_19
REMARK    2  A    between atoms: C_13  and  C_30
REMARK    3  A    between atoms: C_16  and  N_22
REMARK    4  A    between atoms: C_30  and  C_32
REMARK                            x       y       z     vdW  Elec       q    Type
REMARK                         _______ _______ _______ _____ _____    ______ ____
ROOT
ATOM      1  O   UNL     1      36.288 -21.346 -20.667  0.00  0.00    -0.270 OA
ATOM      2  O   UNL     1      32.071 -14.197 -22.006  0.00  0.00    -0.274 OA
ATOM      3  N   UNL     1      33.815 -15.500 -22.610  0.00  0.00    -0.233 N 
ATOM      4  N   UNL     1      34.714 -19.607 -20.592  0.00  0.00    -0.264 N 
ATOM      5  N   UNL     1      36.401 -17.932 -23.169  0.00  0.00    -0.273 N 
ATOM      6  N   UNL     1      36.291 -19.020 -22.336  0.00  0.00    -0.157 NA
ATOM      7  C   UNL     1      34.555 -17.486 -21.894  0.00  0.00    +0.067 A 
ATOM      8  C   UNL     1      35.400 -17.072 -22.896  0.00  0.00    +0.093 A 
ATOM      9  C   UNL     1      35.178 -18.741 -21.574  0.00  0.00    +0.157 A 
ATOM     10  C   UNL     1      33.580 -16.561 -21.688  0.00  0.00    +0.076 C 
ATOM     11  C   UNL     1      35.264 -20.831 -20.189  0.00  0.00    +0.251 C 
ATOM     12  C   UNL     1      34.963 -15.882 -23.331  0.00  0.00    +0.091 C 
ATOM     13  C   UNL     1      33.042 -14.344 -22.734  0.00  0.00    +0.238 C 
ATOM     14  H   UNL     1      33.897 -19.325 -20.120  0.00  0.00    +0.157 HD
ATOM     15  H   UNL     1      37.097 -17.801 -23.853  0.00  0.00    +0.189 HD
ENDROOT
BRANCH  11  19
ATOM     16  C   UNL     1      33.227 -22.828 -17.008  0.00  0.00    +0.048 C 
ATOM     17  C   UNL     1      34.634 -22.738 -17.027  0.00  0.00    +0.015 C 
ATOM     18  C   UNL     1      32.513 -22.239 -18.071  0.00  0.00    +0.015 C 
ATOM     19  C   UNL     1      34.571 -21.511 -19.107  0.00  0.00    +0.054 C 
ATOM     20  C   UNL     1      35.298 -22.086 -18.065  0.00  0.00    +0.006 C 
ATOM     21  C   UNL     1      33.178 -21.587 -19.109  0.00  0.00    +0.006 C 
BRANCH  16  22
ATOM     22  N   UNL     1      32.560 -23.481 -15.967  0.00  0.00    -0.312 N 
ATOM     23  N   UNL     1      31.189 -25.026 -13.994  0.00  0.00    +0.388 N 
ATOM     24  C   UNL     1      31.169 -23.896 -16.191  0.00  0.00    +0.068 C 
ATOM     25  C   UNL     1      33.320 -24.300 -15.017  0.00  0.00    +0.068 C 
ATOM     26  C   UNL     1      30.448 -24.099 -14.857  0.00  0.00    -0.056 C 
ATOM     27  C   UNL     1      32.529 -24.491 -13.720  0.00  0.00    -0.056 C 
ATOM     28  C   UNL     1      30.464 -25.255 -12.744  0.00  0.00    -0.101 C 
ATOM     29  H   UNL     1      31.284 -25.920 -14.475  0.00  0.00    -0.080 HD
ENDBRANCH  16  22
ENDBRANCH  11  19
BRANCH  13  30
ATOM     30  C   UNL     1      33.495 -13.372 -23.779  0.00  0.00    +0.119 C 
BRANCH  30  32
ATOM     31  S   UNL     1      33.809 -10.647 -24.078  0.00  0.00    -0.090 S 
ATOM     32  C   UNL     1      33.053 -11.999 -23.371  0.00  0.00    +0.016 C 
ATOM     33  C   UNL     1      32.084 -11.665 -22.468  0.00  0.00    +0.003 C 
ATOM     34  C   UNL     1      31.951 -10.251 -22.347  0.00  0.00    +0.007 C 
ATOM     35  C   UNL     1      32.829  -9.577 -23.168  0.00  0.00    +0.035 C 
ENDBRANCH  30  32
ENDBRANCH  13  30
TORSDOF 4
ENDMDL
MODEL 9
REMARK VINA RESULT:      -9.7      3.084      4.540
REMARK  Name = 11963557
REMARK  4 active torsions:
REMARK  status: ('A' for Active; 'I' for Inactive)
REMARK    1  A    between atoms: C_11  and  C_19
REMARK    2  A    between atoms: C_13  and  C_30
REMARK    3  A    between atoms: C_16  and  N_22
REMARK    4  A    between atoms: C_30  and  C_32
REMARK                            x       y       z     vdW  Elec       q    Type
REMARK                         _______ _______ _______ _____ _____    ______ ____
ROOT
ATOM      1  O   UNL     1      35.988 -21.379 -20.338  0.00  0.00    -0.270 OA
ATOM      2  O   UNL     1      32.251 -14.053 -22.091  0.00  0.00    -0.274 OA
ATOM      3  N   UNL     1      34.040 -15.390 -22.437  0.00  0.00    -0.233 N 
ATOM      4  N   UNL     1      34.469 -19.594 -20.465  0.00  0.00    -0.264 N 
ATOM      5  N   UNL     1      36.621 -17.881 -22.641  0.00  0.00    -0.273 N 
ATOM      6  N   UNL     1      36.340 -18.996 -21.885  0.00  0.00    -0.157 NA
ATOM      7  C   UNL     1      34.593 -17.423 -21.687  0.00  0.00    +0.067 A 
ATOM      8  C   UNL     1      35.610 -17.001 -22.509  0.00  0.00    +0.093 A 
ATOM      9  C   UNL     1      35.119 -18.709 -21.316  0.00  0.00    +0.157 A 
ATOM     10  C   UNL     1      33.621 -16.476 -21.615  0.00  0.00    +0.076 C 
ATOM     11  C   UNL     1      34.909 -20.849 -20.024  0.00  0.00    +0.251 C 
ATOM     12  C   UNL     1      35.286 -15.782 -22.964  0.00  0.00    +0.091 C 
ATOM     13  C   UNL     1      33.329 -14.206 -22.645  0.00  0.00    +0.238 C 
ATOM     14  H   UNL     1      33.590 -19.303 -20.130  0.00  0.00    +0.157 HD
ATOM     15  H   UNL     1      37.429 -17.749 -23.188  0.00  0.00    +0.189 HD
ENDROOT
BRANCH  11  19
ATOM     16  C   UNL     1      32.301 -22.893 -17.328  0.00  0.00    +0.048 C 
ATOM     17  C   UNL     1      33.683 -23.171 -17.352  0.00  0.00    +0.015 C 
ATOM     18  C   UNL     1      31.806 -21.921 -18.220  0.00  0.00    +0.015 C 
ATOM     19  C   UNL     1      34.022 -21.544 -19.107  0.00  0.00    +0.054 C 
ATOM     20  C   UNL     1      34.534 -22.503 -18.233  0.00  0.00    +0.006 C 
ATOM     21  C   UNL     1      32.658 -21.254 -19.100  0.00  0.00    +0.006 C 
BRANCH  16  22
ATOM     22  N   UNL     1      31.447 -23.562 -16.445  0.00  0.00    -0.312 N 
ATOM     23  N   UNL     1      29.726 -24.722 -14.482  0.00  0.00    +0.388 N 
ATOM     24  C   UNL     1      31.990 -23.987 -15.148  0.00  0.00    +0.068 C 
ATOM     25  C   UNL     1      30.009 -23.274 -16.466  0.00  0.00    +0.068 C 
ATOM     26  C   UNL     1      31.139 -25.112 -14.554  0.00  0.00    -0.056 C 
ATOM     27  C   UNL     1      29.222 -24.422 -15.828  0.00  0.00    -0.056 C 
ATOM     28  C   UNL     1      28.931 -25.783 -13.863  0.00  0.00    -0.101 C 
ATOM     29  H   UNL     1      29.644 -23.885 -13.905  0.00  0.00    -0.080 HD
ENDBRANCH  16  22
ENDBRANCH  11  19
BRANCH  13  30
ATOM     30  C   UNL     1      33.982 -13.212 -23.556  0.00  0.00    +0.119 C 
BRANCH  30  32
ATOM     31  S   UNL     1      33.638 -12.240 -26.116  0.00  0.00    -0.090 S 
ATOM     32  C   UNL     1      33.523 -13.483 -24.957  0.00  0.00    +0.016 C 
ATOM     33  C   UNL     1      32.999 -14.640 -25.458  0.00  0.00    +0.003 C 
ATOM     34  C   UNL     1      32.679 -14.512 -26.841  0.00  0.00    +0.007 C 
ATOM     35  C   UNL     1      32.977 -13.257 -27.325  0.00  0.00    +0.035 C 
ENDBRANCH  30  32
ENDBRANCH  13  30
TORSDOF 4
ENDMDL
