MODEL 1
REMARK VINA RESULT:     -10.2      0.000      0.000
REMARK  Name = 5326566
REMARK  0 active torsions:
REMARK  status: ('A' for Active; 'I' for Inactive)
REMARK                            x       y       z     vdW  Elec       q    Type
REMARK                         _______ _______ _______ _____ _____    ______ ____
ROOT
ATOM      1  O   UNL     1      38.601 -22.678 -12.047  0.00  0.00    -0.264 OA
ATOM      2  O   UNL     1      35.241 -24.965  -9.851  0.00  0.00    -0.247 OA
ATOM      3  N   UNL     1      37.165 -22.608 -14.337  0.00  0.00    -0.395 NA
ATOM      4  N   UNL     1      34.646 -23.787 -14.333  0.00  0.00    -0.383 NA
ATOM      5  N   UNL     1      34.940 -24.388 -12.054  0.00  0.00    -0.280 N 
ATOM      6  N   UNL     1      36.925 -23.824 -10.932  0.00  0.00    -0.272 N 
ATOM      7  C   UNL     1      36.406 -22.604 -15.445  0.00  0.00    +0.139 C 
ATOM      8  C   UNL     1      35.131 -23.201 -15.443  0.00  0.00    +0.140 C 
ATOM      9  C   UNL     1      34.851 -22.577 -17.775  0.00  0.00    -0.044 C 
ATOM     10  C   UNL     1      36.107 -21.989 -17.776  0.00  0.00    -0.044 C 
ATOM     11  C   UNL     1      36.874 -22.007 -16.612  0.00  0.00    +0.083 C 
ATOM     12  C   UNL     1      34.372 -23.177 -16.610  0.00  0.00    +0.083 C 
ATOM     13  C   UNL     1      36.655 -23.202 -13.242  0.00  0.00    +0.233 A 
ATOM     14  C   UNL     1      35.413 -23.786 -13.228  0.00  0.00    +0.229 A 
ATOM     15  C   UNL     1      37.492 -23.201 -12.037  0.00  0.00    +0.295 A 
ATOM     16  C   UNL     1      33.998 -22.581 -19.000  0.00  0.00    +0.026 C 
ATOM     17  C   UNL     1      36.654 -21.337 -19.001  0.00  0.00    +0.026 C 
ATOM     18  C   UNL     1      35.669 -24.430 -10.876  0.00  0.00    +0.329 A 
ATOM     19  H   UNL     1      34.046 -24.802 -12.067  0.00  0.00    +0.173 HD
ATOM     20  H   UNL     1      37.462 -23.840 -10.107  0.00  0.00    +0.174 HD
ENDROOT
TORSDOF 0
ENDMDL
MODEL 2
REMARK VINA RESULT:     -10.1      2.757      4.189
REMARK  Name = 5326566
REMARK  0 active torsions:
REMARK  status: ('A' for Active; 'I' for Inactive)
REMARK                            x       y       z     vdW  Elec       q    Type
REMARK                         _______ _______ _______ _____ _____    ______ ____
ROOT
ATOM      1  O   UNL     1      37.659 -25.981 -11.687  0.00  0.00    -0.264 OA
ATOM      2  O   UNL     1      40.798 -25.450 -15.035  0.00  0.00    -0.247 OA
ATOM      3  N   UNL     1      35.704 -24.958 -13.250  0.00  0.00    -0.395 NA
ATOM      4  N   UNL     1      36.380 -24.156 -15.827  0.00  0.00    -0.383 NA
ATOM      5  N   UNL     1      38.628 -24.813 -15.432  0.00  0.00    -0.280 N 
ATOM      6  N   UNL     1      39.244 -25.722 -13.356  0.00  0.00    -0.272 N 
ATOM      7  C   UNL     1      34.776 -24.442 -14.072  0.00  0.00    +0.139 C 
ATOM      8  C   UNL     1      35.118 -24.036 -15.376  0.00  0.00    +0.140 C 
ATOM      9  C   UNL     1      32.812 -23.370 -15.758  0.00  0.00    -0.044 C 
ATOM     10  C   UNL     1      32.476 -23.770 -14.474  0.00  0.00    -0.044 C 
ATOM     11  C   UNL     1      33.460 -24.302 -13.641  0.00  0.00    +0.083 C 
ATOM     12  C   UNL     1      34.128 -23.506 -16.200  0.00  0.00    +0.083 C 
ATOM     13  C   UNL     1      36.958 -25.065 -13.727  0.00  0.00    +0.233 A 
ATOM     14  C   UNL     1      37.303 -24.674 -14.996  0.00  0.00    +0.229 A 
ATOM     15  C   UNL     1      37.965 -25.630 -12.821  0.00  0.00    +0.295 A 
ATOM     16  C   UNL     1      31.789 -22.793 -16.681  0.00  0.00    +0.026 C 
ATOM     17  C   UNL     1      31.079 -23.641 -13.964  0.00  0.00    +0.026 C 
ATOM     18  C   UNL     1      39.637 -25.336 -14.639  0.00  0.00    +0.329 A 
ATOM     19  H   UNL     1      38.853 -24.525 -16.347  0.00  0.00    +0.173 HD
ATOM     20  H   UNL     1      39.943 -26.098 -12.773  0.00  0.00    +0.174 HD
ENDROOT
TORSDOF 0
ENDMDL
MODEL 3
REMARK VINA RESULT:      -9.6      1.348      2.719
REMARK  Name = 5326566
REMARK  0 active torsions:
REMARK  status: ('A' for Active; 'I' for Inactive)
REMARK                            x       y       z     vdW  Elec       q    Type
REMARK                         _______ _______ _______ _____ _____    ______ ____
ROOT
ATOM      1  O   UNL     1      33.419 -24.636 -12.974  0.00  0.00    -0.264 OA
ATOM      2  O   UNL     1      37.549 -24.251 -10.940  0.00  0.00    -0.247 OA
ATOM      3  N   UNL     1      34.345 -23.503 -15.247  0.00  0.00    -0.395 NA
ATOM      4  N   UNL     1      37.015 -22.724 -15.323  0.00  0.00    -0.383 NA
ATOM      5  N   UNL     1      37.295 -23.500 -13.095  0.00  0.00    -0.280 N 
ATOM      6  N   UNL     1      35.484 -24.451 -11.941  0.00  0.00    -0.272 N 
ATOM      7  C   UNL     1      34.862 -22.935 -16.350  0.00  0.00    +0.139 C 
ATOM      8  C   UNL     1      36.213 -22.542 -16.388  0.00  0.00    +0.140 C 
ATOM      9  C   UNL     1      35.904 -21.754 -18.666  0.00  0.00    -0.044 C 
ATOM     10  C   UNL     1      34.573 -22.143 -18.628  0.00  0.00    -0.044 C 
ATOM     11  C   UNL     1      34.063 -22.730 -17.471  0.00  0.00    +0.083 C 
ATOM     12  C   UNL     1      36.713 -21.956 -17.548  0.00  0.00    +0.083 C 
ATOM     13  C   UNL     1      35.170 -23.674 -14.198  0.00  0.00    +0.233 A 
ATOM     14  C   UNL     1      36.489 -23.294 -14.224  0.00  0.00    +0.229 A 
ATOM     15  C   UNL     1      34.596 -24.295 -12.998  0.00  0.00    +0.295 A 
ATOM     16  C   UNL     1      36.490 -21.120 -19.885  0.00  0.00    +0.026 C 
ATOM     17  C   UNL     1      33.676 -21.944 -19.803  0.00  0.00    +0.026 C 
ATOM     18  C   UNL     1      36.830 -24.078 -11.925  0.00  0.00    +0.329 A 
ATOM     19  H   UNL     1      38.238 -23.219 -13.136  0.00  0.00    +0.173 HD
ATOM     20  H   UNL     1      35.129 -24.865 -11.121  0.00  0.00    +0.174 HD
ENDROOT
TORSDOF 0
ENDMDL
MODEL 4
REMARK VINA RESULT:      -9.3     10.777     13.044
REMARK  Name = 5326566
REMARK  0 active torsions:
REMARK  status: ('A' for Active; 'I' for Inactive)
REMARK                            x       y       z     vdW  Elec       q    Type
REMARK                         _______ _______ _______ _____ _____    ______ ____
ROOT
ATOM      1  O   UNL     1      34.039 -15.761 -26.251  0.00  0.00    -0.264 OA
ATOM      2  O   UNL     1      35.483 -19.209 -23.536  0.00  0.00    -0.247 OA
ATOM      3  N   UNL     1      33.201 -14.328 -24.117  0.00  0.00    -0.395 NA
ATOM      4  N   UNL     1      33.545 -15.432 -21.587  0.00  0.00    -0.383 NA
ATOM      5  N   UNL     1      34.533 -17.355 -22.571  0.00  0.00    -0.280 N 
ATOM      6  N   UNL     1      34.769 -17.498 -24.903  0.00  0.00    -0.272 N 
ATOM      7  C   UNL     1      32.804 -13.662 -23.020  0.00  0.00    +0.139 C 
ATOM      8  C   UNL     1      32.979 -14.221 -21.739  0.00  0.00    +0.140 C 
ATOM      9  C   UNL     1      31.965 -12.244 -20.754  0.00  0.00    -0.044 C 
ATOM     10  C   UNL     1      31.794 -11.694 -22.016  0.00  0.00    -0.044 C 
ATOM     11  C   UNL     1      32.215 -12.407 -23.138  0.00  0.00    +0.083 C 
ATOM     12  C   UNL     1      32.555 -13.501 -20.625  0.00  0.00    +0.083 C 
ATOM     13  C   UNL     1      33.764 -15.537 -23.935  0.00  0.00    +0.233 A 
ATOM     14  C   UNL     1      33.939 -16.091 -22.692  0.00  0.00    +0.229 A 
ATOM     15  C   UNL     1      34.194 -16.255 -25.140  0.00  0.00    +0.295 A 
ATOM     16  C   UNL     1      31.526 -11.515 -19.527  0.00  0.00    +0.026 C 
ATOM     17  C   UNL     1      31.166 -10.352 -22.196  0.00  0.00    +0.026 C 
ATOM     18  C   UNL     1      34.965 -18.098 -23.658  0.00  0.00    +0.329 A 
ATOM     19  H   UNL     1      34.648 -17.734 -21.668  0.00  0.00    +0.173 HD
ATOM     20  H   UNL     1      35.068 -18.006 -25.692  0.00  0.00    +0.174 HD
ENDROOT
TORSDOF 0
ENDMDL
MODEL 5
REMARK VINA RESULT:      -9.2      2.498      3.878
REMARK  Name = 5326566
REMARK  0 active torsions:
REMARK  status: ('A' for Active; 'I' for Inactive)
REMARK                            x       y       z     vdW  Elec       q    Type
REMARK                         _______ _______ _______ _____ _____    ______ ____
ROOT
ATOM      1  O   UNL     1      36.086 -25.330 -10.988  0.00  0.00    -0.264 OA
ATOM      2  O   UNL     1      39.625 -25.974 -13.888  0.00  0.00    -0.247 OA
ATOM      3  N   UNL     1      34.505 -24.439 -12.992  0.00  0.00    -0.395 NA
ATOM      4  N   UNL     1      35.582 -24.330 -15.555  0.00  0.00    -0.383 NA
ATOM      5  N   UNL     1      37.641 -25.167 -14.715  0.00  0.00    -0.280 N 
ATOM      6  N   UNL     1      37.870 -25.659 -12.430  0.00  0.00    -0.272 N 
ATOM      7  C   UNL     1      33.767 -24.005 -14.027  0.00  0.00    +0.139 C 
ATOM      8  C   UNL     1      34.312 -23.950 -15.324  0.00  0.00    +0.140 C 
ATOM      9  C   UNL     1      32.198 -23.094 -16.161  0.00  0.00    -0.044 C 
ATOM     10  C   UNL     1      31.661 -23.149 -14.883  0.00  0.00    -0.044 C 
ATOM     11  C   UNL     1      32.449 -23.604 -13.827  0.00  0.00    +0.083 C 
ATOM     12  C   UNL     1      33.517 -23.495 -16.372  0.00  0.00    +0.083 C 
ATOM     13  C   UNL     1      35.772 -24.812 -13.252  0.00  0.00    +0.233 A 
ATOM     14  C   UNL     1      36.314 -24.764 -14.511  0.00  0.00    +0.229 A 
ATOM     15  C   UNL     1      36.570 -25.285 -12.114  0.00  0.00    +0.295 A 
ATOM     16  C   UNL     1      31.388 -22.612 -17.320  0.00  0.00    +0.026 C 
ATOM     17  C   UNL     1      30.254 -22.729 -14.617  0.00  0.00    +0.026 C 
ATOM     18  C   UNL     1      38.460 -25.624 -13.695  0.00  0.00    +0.329 A 
ATOM     19  H   UNL     1      38.009 -25.123 -15.627  0.00  0.00    +0.173 HD
ATOM     20  H   UNL     1      38.431 -25.981 -11.687  0.00  0.00    +0.174 HD
ENDROOT
TORSDOF 0
ENDMDL
MODEL 6
REMARK VINA RESULT:      -9.1      3.099      4.117
REMARK  Name = 5326566
REMARK  0 active torsions:
REMARK  status: ('A' for Active; 'I' for Inactive)
REMARK                            x       y       z     vdW  Elec       q    Type
REMARK                         _______ _______ _______ _____ _____    ______ ____
ROOT
ATOM      1  O   UNL     1      35.388 -24.570 -14.714  0.00  0.00    -0.264 OA
ATOM      2  O   UNL     1      30.844 -25.207 -14.175  0.00  0.00    -0.247 OA
ATOM      3  N   UNL     1      34.992 -23.032 -16.901  0.00  0.00    -0.395 NA
ATOM      4  N   UNL     1      32.373 -22.586 -17.727  0.00  0.00    -0.383 NA
ATOM      5  N   UNL     1      31.588 -23.916 -15.922  0.00  0.00    -0.280 N 
ATOM      6  N   UNL     1      33.113 -24.898 -14.430  0.00  0.00    -0.272 N 
ATOM      7  C   UNL     1      34.734 -22.275 -17.981  0.00  0.00    +0.139 C 
ATOM      8  C   UNL     1      33.408 -22.050 -18.398  0.00  0.00    +0.140 C 
ATOM      9  C   UNL     1      34.234 -20.693 -20.238  0.00  0.00    -0.044 C 
ATOM     10  C   UNL     1      35.539 -20.915 -19.826  0.00  0.00    -0.044 C 
ATOM     11  C   UNL     1      35.779 -21.704 -18.702  0.00  0.00    +0.083 C 
ATOM     12  C   UNL     1      33.179 -21.260 -19.523  0.00  0.00    +0.083 C 
ATOM     13  C   UNL     1      33.938 -23.555 -16.249  0.00  0.00    +0.233 A 
ATOM     14  C   UNL     1      32.642 -23.342 -16.646  0.00  0.00    +0.229 A 
ATOM     15  C   UNL     1      34.231 -24.379 -15.071  0.00  0.00    +0.295 A 
ATOM     16  C   UNL     1      33.934 -19.856 -21.438  0.00  0.00    +0.026 C 
ATOM     17  C   UNL     1      36.694 -20.326 -20.565  0.00  0.00    +0.026 C 
ATOM     18  C   UNL     1      31.780 -24.707 -14.800  0.00  0.00    +0.329 A 
ATOM     19  H   UNL     1      30.666 -23.750 -16.226  0.00  0.00    +0.173 HD
ATOM     20  H   UNL     1      33.276 -25.456 -13.635  0.00  0.00    +0.174 HD
ENDROOT
TORSDOF 0
ENDMDL
MODEL 7
REMARK VINA RESULT:      -9.1      9.393     11.854
REMARK  Name = 5326566
REMARK  0 active torsions:
REMARK  status: ('A' for Active; 'I' for Inactive)
REMARK                            x       y       z     vdW  Elec       q    Type
REMARK                         _______ _______ _______ _____ _____    ______ ____
ROOT
ATOM      1  O   UNL     1      34.773 -19.782 -24.502  0.00  0.00    -0.264 OA
ATOM      2  O   UNL     1      36.010 -19.570 -20.056  0.00  0.00    -0.247 OA
ATOM      3  N   UNL     1      34.305 -17.121 -24.580  0.00  0.00    -0.395 NA
ATOM      4  N   UNL     1      34.728 -15.652 -22.256  0.00  0.00    -0.383 NA
ATOM      5  N   UNL     1      35.383 -17.640 -21.130  0.00  0.00    -0.280 N 
ATOM      6  N   UNL     1      35.397 -19.692 -22.273  0.00  0.00    -0.272 N 
ATOM      7  C   UNL     1      34.090 -15.795 -24.559  0.00  0.00    +0.139 C 
ATOM      8  C   UNL     1      34.304 -15.052 -23.383  0.00  0.00    +0.140 C 
ATOM      9  C   UNL     1      33.630 -13.032 -24.553  0.00  0.00    -0.044 C 
ATOM     10  C   UNL     1      33.420 -13.764 -25.712  0.00  0.00    -0.044 C 
ATOM     11  C   UNL     1      33.651 -15.139 -25.706  0.00  0.00    +0.083 C 
ATOM     12  C   UNL     1      34.070 -13.679 -23.399  0.00  0.00    +0.083 C 
ATOM     13  C   UNL     1      34.729 -17.695 -23.439  0.00  0.00    +0.233 A 
ATOM     14  C   UNL     1      34.941 -16.981 -22.287  0.00  0.00    +0.229 A 
ATOM     15  C   UNL     1      34.961 -19.143 -23.473  0.00  0.00    +0.295 A 
ATOM     16  C   UNL     1      33.392 -11.558 -24.516  0.00  0.00    +0.026 C 
ATOM     17  C   UNL     1      32.949 -13.108 -26.966  0.00  0.00    +0.026 C 
ATOM     18  C   UNL     1      35.624 -19.003 -21.080  0.00  0.00    +0.329 A 
ATOM     19  H   UNL     1      35.528 -17.107 -20.314  0.00  0.00    +0.173 HD
ATOM     20  H   UNL     1      35.562 -20.663 -22.263  0.00  0.00    +0.174 HD
ENDROOT
TORSDOF 0
ENDMDL
MODEL 8
REMARK VINA RESULT:      -9.1      3.706      5.055
REMARK  Name = 5326566
REMARK  0 active torsions:
REMARK  status: ('A' for Active; 'I' for Inactive)
REMARK                            x       y       z     vdW  Elec       q    Type
REMARK                         _______ _______ _______ _____ _____    ______ ____
ROOT
ATOM      1  O   UNL     1      29.683 -23.168 -16.624  0.00  0.00    -0.264 OA
ATOM      2  O   UNL     1      32.001 -25.267 -13.224  0.00  0.00    -0.247 OA
ATOM      3  N   UNL     1      31.981 -22.393 -17.818  0.00  0.00    -0.395 NA
ATOM      4  N   UNL     1      34.384 -23.116 -16.618  0.00  0.00    -0.383 NA
ATOM      5  N   UNL     1      33.179 -24.214 -14.889  0.00  0.00    -0.280 N 
ATOM      6  N   UNL     1      30.831 -24.226 -14.913  0.00  0.00    -0.272 N 
ATOM      7  C   UNL     1      33.155 -22.036 -18.366  0.00  0.00    +0.139 C 
ATOM      8  C   UNL     1      34.371 -22.403 -17.758  0.00  0.00    +0.140 C 
ATOM      9  C   UNL     1      35.583 -21.274 -19.536  0.00  0.00    -0.044 C 
ATOM     10  C   UNL     1      34.385 -20.913 -20.134  0.00  0.00    -0.044 C 
ATOM     11  C   UNL     1      33.181 -21.297 -19.545  0.00  0.00    +0.083 C 
ATOM     12  C   UNL     1      35.568 -22.015 -18.355  0.00  0.00    +0.083 C 
ATOM     13  C   UNL     1      32.025 -23.106 -16.678  0.00  0.00    +0.233 A 
ATOM     14  C   UNL     1      33.203 -23.469 -16.077  0.00  0.00    +0.229 A 
ATOM     15  C   UNL     1      30.737 -23.491 -16.088  0.00  0.00    +0.295 A 
ATOM     16  C   UNL     1      36.894 -20.881 -20.134  0.00  0.00    +0.026 C 
ATOM     17  C   UNL     1      34.359 -20.121 -21.399  0.00  0.00    +0.026 C 
ATOM     18  C   UNL     1      32.007 -24.615 -14.269  0.00  0.00    +0.329 A 
ATOM     19  H   UNL     1      34.038 -24.463 -14.475  0.00  0.00    +0.173 HD
ATOM     20  H   UNL     1      29.984 -24.500 -14.492  0.00  0.00    +0.174 HD
ENDROOT
TORSDOF 0
ENDMDL
MODEL 9
REMARK VINA RESULT:      -8.9      3.567      5.744
REMARK  Name = 5326566
REMARK  0 active torsions:
REMARK  status: ('A' for Active; 'I' for Inactive)
REMARK                            x       y       z     vdW  Elec       q    Type
REMARK                         _______ _______ _______ _____ _____    ______ ____
ROOT
ATOM      1  O   UNL     1      30.720 -23.877 -12.656  0.00  0.00    -0.264 OA
ATOM      2  O   UNL     1      29.631 -22.513 -16.933  0.00  0.00    -0.247 OA
ATOM      3  N   UNL     1      33.327 -24.146 -13.321  0.00  0.00    -0.395 NA
ATOM      4  N   UNL     1      34.074 -23.555 -15.935  0.00  0.00    -0.383 NA
ATOM      5  N   UNL     1      31.817 -23.021 -16.450  0.00  0.00    -0.280 N 
ATOM      6  N   UNL     1      30.158 -23.191 -14.796  0.00  0.00    -0.272 N 
ATOM      7  C   UNL     1      34.607 -24.261 -13.710  0.00  0.00    +0.139 C 
ATOM      8  C   UNL     1      34.985 -23.961 -15.032  0.00  0.00    +0.140 C 
ATOM      9  C   UNL     1      37.288 -24.512 -14.484  0.00  0.00    -0.044 C 
ATOM     10  C   UNL     1      36.915 -24.806 -13.181  0.00  0.00    -0.044 C 
ATOM     11  C   UNL     1      35.579 -24.678 -12.804  0.00  0.00    +0.083 C 
ATOM     12  C   UNL     1      36.323 -24.092 -15.399  0.00  0.00    +0.083 C 
ATOM     13  C   UNL     1      32.437 -23.737 -14.244  0.00  0.00    +0.233 A 
ATOM     14  C   UNL     1      32.794 -23.442 -15.536  0.00  0.00    +0.229 A 
ATOM     15  C   UNL     1      31.040 -23.615 -13.810  0.00  0.00    +0.295 A 
ATOM     16  C   UNL     1      38.708 -24.638 -14.929  0.00  0.00    +0.026 C 
ATOM     17  C   UNL     1      37.918 -25.259 -12.173  0.00  0.00    +0.026 C 
ATOM     18  C   UNL     1      30.478 -22.882 -16.119  0.00  0.00    +0.329 A 
ATOM     19  H   UNL     1      32.096 -22.816 -17.372  0.00  0.00    +0.173 HD
ATOM     20  H   UNL     1      29.213 -23.098 -14.535  0.00  0.00    +0.174 HD
ENDROOT
TORSDOF 0
ENDMDL
