MODEL 1
REMARK VINA RESULT:      -8.9      0.000      0.000
REMARK  Name = 46937138
REMARK  10 active torsions:
REMARK  status: ('A' for Active; 'I' for Inactive)
REMARK    1  A    between atoms: C_1  and  C_3
REMARK    2  A    between atoms: C_1  and  C_16
REMARK    3  A    between atoms: C_6  and  N_11
REMARK    4  A    between atoms: C_8  and  O_12
REMARK    5  A    between atoms: N_15  and  C_18
REMARK    6  A    between atoms: C_18  and  C_19
REMARK    7  A    between atoms: C_19  and  C_20
REMARK    8  A    between atoms: C_20  and  C_21
REMARK    9  A    between atoms: C_21  and  C_22
REMARK   10  A    between atoms: C_22  and  C_25
REMARK                            x       y       z     vdW  Elec       q    Type
REMARK                         _______ _______ _______ _____ _____    ______ ____
ROOT
ATOM      1  C   UNL     1      37.030 -21.538 -17.003  0.00  0.00    +0.111 C 
ENDROOT
BRANCH   1   3
ATOM      2  I   UNL     1      33.361 -24.177 -13.850  0.00  0.00    -0.039 I 
ATOM      3  C   UNL     1      36.790 -22.662 -16.030  0.00  0.00    -0.011 C 
ATOM      4  C   UNL     1      37.843 -23.497 -15.658  0.00  0.00    +0.023 C 
ATOM      5  C   UNL     1      35.515 -22.870 -15.504  0.00  0.00    +0.005 C 
ATOM      6  C   UNL     1      37.621 -24.540 -14.758  0.00  0.00    +0.176 C 
ATOM      7  C   UNL     1      35.293 -23.913 -14.605  0.00  0.00    +0.065 C 
ATOM      8  C   UNL     1      36.346 -24.747 -14.232  0.00  0.00    +0.161 C 
BRANCH   6  11
ATOM      9  O   UNL     1      39.720 -24.863 -13.859  0.00  0.00    -0.126 OA
ATOM     10  O   UNL     1      38.626 -26.611 -14.615  0.00  0.00    -0.126 OA
ATOM     11  N   UNL     1      38.709 -25.380 -14.392  0.00  0.00    +0.061 N 
ENDBRANCH   6  11
BRANCH   8  12
ATOM     12  O   UNL     1      36.146 -25.773 -13.353  0.00  0.00    -0.504 OA
ATOM     13  H   UNL     1      35.276 -26.063 -13.161  0.00  0.00    +0.292 HD
ENDBRANCH   8  12
ENDBRANCH   1   3
BRANCH   1  16
ATOM     14  O   UNL     1      35.487 -22.620 -18.525  0.00  0.00    -0.275 OA
ATOM     15  N   UNL     1      36.511 -20.641 -19.179  0.00  0.00    -0.304 N 
ATOM     16  C   UNL     1      36.250 -21.684 -18.296  0.00  0.00    +0.227 C 
ATOM     17  H   UNL     1      37.141 -19.936 -18.901  0.00  0.00    +0.149 HD
BRANCH  15  18
ATOM     18  C   UNL     1      35.902 -20.546 -20.477  0.00  0.00    +0.089 C 
BRANCH  18  19
ATOM     19  C   UNL     1      34.460 -20.057 -20.409  0.00  0.00    +0.021 C 
BRANCH  19  20
ATOM     20  C   UNL     1      34.126 -19.055 -21.519  0.00  0.00    +0.002 C 
BRANCH  20  21
ATOM     21  C   UNL     1      35.363 -18.728 -22.360  0.00  0.00    +0.012 C 
BRANCH  21  22
ATOM     22  C   UNL     1      35.075 -18.779 -23.858  0.00  0.00    +0.114 C 
BRANCH  22  25
ATOM     23  O   UNL     1      34.958 -16.429 -23.800  0.00  0.00    -0.246 OA
ATOM     24  O   UNL     1      34.563 -17.484 -25.786  0.00  0.00    -0.246 OA
ATOM     25  C   UNL     1      34.846 -17.435 -24.557  0.00  0.00    +0.365 C 
ENDBRANCH  22  25
ENDBRANCH  21  22
ENDBRANCH  20  21
ENDBRANCH  19  20
ENDBRANCH  18  19
ENDBRANCH  15  18
ENDBRANCH   1  16
TORSDOF 10
ENDMDL
MODEL 2
REMARK VINA RESULT:      -8.9      5.532      6.920
REMARK  Name = 46937138
REMARK  10 active torsions:
REMARK  status: ('A' for Active; 'I' for Inactive)
REMARK    1  A    between atoms: C_1  and  C_3
REMARK    2  A    between atoms: C_1  and  C_16
REMARK    3  A    between atoms: C_6  and  N_11
REMARK    4  A    between atoms: C_8  and  O_12
REMARK    5  A    between atoms: N_15  and  C_18
REMARK    6  A    between atoms: C_18  and  C_19
REMARK    7  A    between atoms: C_19  and  C_20
REMARK    8  A    between atoms: C_20  and  C_21
REMARK    9  A    between atoms: C_21  and  C_22
REMARK   10  A    between atoms: C_22  and  C_25
REMARK                            x       y       z     vdW  Elec       q    Type
REMARK                         _______ _______ _______ _____ _____    ______ ____
ROOT
ATOM      1  C   UNL     1      35.745 -22.592 -15.736  0.00  0.00    +0.111 C 
ENDROOT
BRANCH   1   3
ATOM      2  I   UNL     1      40.137 -25.703 -14.549  0.00  0.00    -0.039 I 
ATOM      3  C   UNL     1      36.462 -23.403 -14.690  0.00  0.00    -0.011 C 
ATOM      4  C   UNL     1      35.922 -23.523 -13.409  0.00  0.00    +0.023 C 
ATOM      5  C   UNL     1      37.668 -24.033 -14.999  0.00  0.00    +0.005 C 
ATOM      6  C   UNL     1      36.586 -24.273 -12.439  0.00  0.00    +0.176 C 
ATOM      7  C   UNL     1      38.332 -24.782 -14.028  0.00  0.00    +0.065 C 
ATOM      8  C   UNL     1      37.792 -24.902 -12.749  0.00  0.00    +0.161 C 
BRANCH   6  11
ATOM      9  O   UNL     1      34.932 -24.994 -11.003  0.00  0.00    -0.126 OA
ATOM     10  O   UNL     1      36.617 -23.858 -10.170  0.00  0.00    -0.126 OA
ATOM     11  N   UNL     1      36.017 -24.380 -11.139  0.00  0.00    +0.061 N 
ENDBRANCH   6  11
BRANCH   8  12
ATOM     12  O   UNL     1      38.430 -25.632 -11.787  0.00  0.00    -0.504 OA
ATOM     13  H   UNL     1      38.876 -26.423 -12.017  0.00  0.00    +0.292 HD
ENDBRANCH   8  12
ENDBRANCH   1   3
BRANCH   1  16
ATOM     14  O   UNL     1      34.170 -23.813 -17.112  0.00  0.00    -0.275 OA
ATOM     15  N   UNL     1      33.416 -22.814 -15.156  0.00  0.00    -0.304 N 
ATOM     16  C   UNL     1      34.382 -23.151 -16.100  0.00  0.00    +0.227 C 
ATOM     17  H   UNL     1      33.688 -22.277 -14.376  0.00  0.00    +0.149 HD
BRANCH  15  18
ATOM     18  C   UNL     1      32.042 -23.217 -15.269  0.00  0.00    +0.089 C 
BRANCH  18  19
ATOM     19  C   UNL     1      31.533 -23.911 -14.011  0.00  0.00    +0.021 C 
BRANCH  19  20
ATOM     20  C   UNL     1      30.533 -25.030 -14.319  0.00  0.00    +0.002 C 
BRANCH  20  21
ATOM     21  C   UNL     1      29.915 -24.852 -15.709  0.00  0.00    +0.012 C 
BRANCH  21  22
ATOM     22  C   UNL     1      28.617 -24.050 -15.667  0.00  0.00    +0.114 C 
BRANCH  22  25
ATOM     23  O   UNL     1      27.566 -23.794 -17.758  0.00  0.00    -0.246 OA
ATOM     24  O   UNL     1      28.791 -22.049 -16.940  0.00  0.00    -0.246 OA
ATOM     25  C   UNL     1      28.292 -23.208 -16.905  0.00  0.00    +0.365 C 
ENDBRANCH  22  25
ENDBRANCH  21  22
ENDBRANCH  20  21
ENDBRANCH  19  20
ENDBRANCH  18  19
ENDBRANCH  15  18
ENDBRANCH   1  16
TORSDOF 10
ENDMDL
MODEL 3
REMARK VINA RESULT:      -8.8      3.176     10.421
REMARK  Name = 46937138
REMARK  10 active torsions:
REMARK  status: ('A' for Active; 'I' for Inactive)
REMARK    1  A    between atoms: C_1  and  C_3
REMARK    2  A    between atoms: C_1  and  C_16
REMARK    3  A    between atoms: C_6  and  N_11
REMARK    4  A    between atoms: C_8  and  O_12
REMARK    5  A    between atoms: N_15  and  C_18
REMARK    6  A    between atoms: C_18  and  C_19
REMARK    7  A    between atoms: C_19  and  C_20
REMARK    8  A    between atoms: C_20  and  C_21
REMARK    9  A    between atoms: C_21  and  C_22
REMARK   10  A    between atoms: C_22  and  C_25
REMARK                            x       y       z     vdW  Elec       q    Type
REMARK                         _______ _______ _______ _____ _____    ______ ____
ROOT
ATOM      1  C   UNL     1      36.642 -19.189 -20.958  0.00  0.00    +0.111 C 
ENDROOT
BRANCH   1   3
ATOM      2  I   UNL     1      33.391 -14.752 -20.626  0.00  0.00    -0.039 I 
ATOM      3  C   UNL     1      35.779 -18.208 -21.705  0.00  0.00    -0.011 C 
ATOM      4  C   UNL     1      35.627 -18.324 -23.087  0.00  0.00    +0.023 C 
ATOM      5  C   UNL     1      35.132 -17.181 -21.017  0.00  0.00    +0.005 C 
ATOM      6  C   UNL     1      34.829 -17.415 -23.780  0.00  0.00    +0.176 C 
ATOM      7  C   UNL     1      34.335 -16.271 -21.711  0.00  0.00    +0.065 C 
ATOM      8  C   UNL     1      34.183 -16.388 -23.092  0.00  0.00    +0.161 C 
BRANCH   6  11
ATOM      9  O   UNL     1      34.384 -18.673 -25.660  0.00  0.00    -0.126 OA
ATOM     10  O   UNL     1      34.875 -16.549 -25.918  0.00  0.00    -0.126 OA
ATOM     11  N   UNL     1      34.689 -17.552 -25.189  0.00  0.00    +0.061 N 
ENDBRANCH   6  11
BRANCH   8  12
ATOM     12  O   UNL     1      33.405 -15.505 -23.786  0.00  0.00    -0.504 OA
ATOM     13  H   UNL     1      33.622 -15.283 -24.669  0.00  0.00    +0.292 HD
ENDBRANCH   8  12
ENDBRANCH   1   3
BRANCH   1  16
ATOM     14  O   UNL     1      34.684 -20.527 -20.466  0.00  0.00    -0.275 OA
ATOM     15  N   UNL     1      36.591 -20.804 -19.170  0.00  0.00    -0.304 N 
ATOM     16  C   UNL     1      35.847 -20.234 -20.199  0.00  0.00    +0.227 C 
ATOM     17  H   UNL     1      37.519 -20.500 -19.036  0.00  0.00    +0.149 HD
BRANCH  15  18
ATOM     18  C   UNL     1      36.067 -21.818 -18.298  0.00  0.00    +0.089 C 
BRANCH  18  19
ATOM     19  C   UNL     1      36.791 -21.863 -16.956  0.00  0.00    +0.021 C 
BRANCH  19  20
ATOM     20  C   UNL     1      36.167 -22.870 -15.985  0.00  0.00    +0.002 C 
BRANCH  20  21
ATOM     21  C   UNL     1      37.219 -23.849 -15.453  0.00  0.00    +0.012 C 
BRANCH  21  22
ATOM     22  C   UNL     1      36.614 -24.903 -14.530  0.00  0.00    +0.114 C 
BRANCH  22  25
ATOM     23  O   UNL     1      37.620 -26.985 -14.089  0.00  0.00    -0.246 OA
ATOM     24  O   UNL     1      36.333 -26.780 -15.965  0.00  0.00    -0.246 OA
ATOM     25  C   UNL     1      36.873 -26.367 -14.901  0.00  0.00    +0.365 C 
ENDBRANCH  22  25
ENDBRANCH  21  22
ENDBRANCH  20  21
ENDBRANCH  19  20
ENDBRANCH  18  19
ENDBRANCH  15  18
ENDBRANCH   1  16
TORSDOF 10
ENDMDL
MODEL 4
REMARK VINA RESULT:      -8.7      3.108      4.086
REMARK  Name = 46937138
REMARK  10 active torsions:
REMARK  status: ('A' for Active; 'I' for Inactive)
REMARK    1  A    between atoms: C_1  and  C_3
REMARK    2  A    between atoms: C_1  and  C_16
REMARK    3  A    between atoms: C_6  and  N_11
REMARK    4  A    between atoms: C_8  and  O_12
REMARK    5  A    between atoms: N_15  and  C_18
REMARK    6  A    between atoms: C_18  and  C_19
REMARK    7  A    between atoms: C_19  and  C_20
REMARK    8  A    between atoms: C_20  and  C_21
REMARK    9  A    between atoms: C_21  and  C_22
REMARK   10  A    between atoms: C_22  and  C_25
REMARK                            x       y       z     vdW  Elec       q    Type
REMARK                         _______ _______ _______ _____ _____    ______ ____
ROOT
ATOM      1  C   UNL     1      32.721 -22.506 -18.042  0.00  0.00    +0.111 C 
ENDROOT
BRANCH   1   3
ATOM      2  I   UNL     1      36.329 -23.847 -14.098  0.00  0.00    -0.039 I 
ATOM      3  C   UNL     1      32.922 -23.121 -16.683  0.00  0.00    -0.011 C 
ATOM      4  C   UNL     1      31.828 -23.614 -15.972  0.00  0.00    +0.023 C 
ATOM      5  C   UNL     1      34.202 -23.196 -16.133  0.00  0.00    +0.005 C 
ATOM      6  C   UNL     1      32.014 -24.183 -14.712  0.00  0.00    +0.176 C 
ATOM      7  C   UNL     1      34.388 -23.763 -14.872  0.00  0.00    +0.065 C 
ATOM      8  C   UNL     1      33.294 -24.257 -14.162  0.00  0.00    +0.161 C 
BRANCH   6  11
ATOM      9  O   UNL     1      30.672 -24.268 -12.838  0.00  0.00    -0.126 OA
ATOM     10  O   UNL     1      30.134 -25.511 -14.567  0.00  0.00    -0.126 OA
ATOM     11  N   UNL     1      30.884 -24.679 -14.004  0.00  0.00    +0.061 N 
ENDBRANCH   6  11
BRANCH   8  12
ATOM     12  O   UNL     1      33.458 -24.816 -12.927  0.00  0.00    -0.504 OA
ATOM     13  H   UNL     1      34.221 -25.327 -12.741  0.00  0.00    +0.292 HD
ENDBRANCH   8  12
ENDBRANCH   1   3
BRANCH   1  16
ATOM     14  O   UNL     1      34.163 -23.759 -19.530  0.00  0.00    -0.275 OA
ATOM     15  N   UNL     1      34.655 -21.531 -19.097  0.00  0.00    -0.304 N 
ATOM     16  C   UNL     1      33.905 -22.696 -18.970  0.00  0.00    +0.227 C 
ATOM     17  H   UNL     1      34.364 -20.728 -18.605  0.00  0.00    +0.149 HD
BRANCH  15  18
ATOM     18  C   UNL     1      35.832 -21.446 -19.916  0.00  0.00    +0.089 C 
BRANCH  18  19
ATOM     19  C   UNL     1      35.924 -20.124 -20.670  0.00  0.00    +0.021 C 
BRANCH  19  20
ATOM     20  C   UNL     1      34.578 -19.689 -21.260  0.00  0.00    +0.002 C 
BRANCH  20  21
ATOM     21  C   UNL     1      34.688 -18.321 -21.939  0.00  0.00    +0.012 C 
BRANCH  21  22
ATOM     22  C   UNL     1      34.777 -18.433 -23.458  0.00  0.00    +0.114 C 
BRANCH  22  25
ATOM     23  O   UNL     1      34.718 -17.217 -25.473  0.00  0.00    -0.246 OA
ATOM     24  O   UNL     1      35.309 -16.117 -23.561  0.00  0.00    -0.246 OA
ATOM     25  C   UNL     1      34.948 -17.123 -24.233  0.00  0.00    +0.365 C 
ENDBRANCH  22  25
ENDBRANCH  21  22
ENDBRANCH  20  21
ENDBRANCH  19  20
ENDBRANCH  18  19
ENDBRANCH  15  18
ENDBRANCH   1  16
TORSDOF 10
ENDMDL
MODEL 5
REMARK VINA RESULT:      -8.7      1.963      2.707
REMARK  Name = 46937138
REMARK  10 active torsions:
REMARK  status: ('A' for Active; 'I' for Inactive)
REMARK    1  A    between atoms: C_1  and  C_3
REMARK    2  A    between atoms: C_1  and  C_16
REMARK    3  A    between atoms: C_6  and  N_11
REMARK    4  A    between atoms: C_8  and  O_12
REMARK    5  A    between atoms: N_15  and  C_18
REMARK    6  A    between atoms: C_18  and  C_19
REMARK    7  A    between atoms: C_19  and  C_20
REMARK    8  A    between atoms: C_20  and  C_21
REMARK    9  A    between atoms: C_21  and  C_22
REMARK   10  A    between atoms: C_22  and  C_25
REMARK                            x       y       z     vdW  Elec       q    Type
REMARK                         _______ _______ _______ _____ _____    ______ ____
ROOT
ATOM      1  C   UNL     1      36.915 -21.450 -16.921  0.00  0.00    +0.111 C 
ENDROOT
BRANCH   1   3
ATOM      2  I   UNL     1      39.461 -25.613 -14.360  0.00  0.00    -0.039 I 
ATOM      3  C   UNL     1      36.789 -22.582 -15.937  0.00  0.00    -0.011 C 
ATOM      4  C   UNL     1      35.570 -22.822 -15.304  0.00  0.00    +0.023 C 
ATOM      5  C   UNL     1      37.892 -23.389 -15.656  0.00  0.00    +0.005 C 
ATOM      6  C   UNL     1      35.453 -23.870 -14.390  0.00  0.00    +0.176 C 
ATOM      7  C   UNL     1      37.775 -24.437 -14.742  0.00  0.00    +0.065 C 
ATOM      8  C   UNL     1      36.555 -24.677 -14.110  0.00  0.00    +0.161 C 
BRANCH   6  11
ATOM      9  O   UNL     1      33.194 -24.326 -14.468  0.00  0.00    -0.126 OA
ATOM     10  O   UNL     1      34.139 -24.059 -12.504  0.00  0.00    -0.126 OA
ATOM     11  N   UNL     1      34.199 -24.097 -13.756  0.00  0.00    +0.061 N 
ENDBRANCH   6  11
BRANCH   8  12
ATOM     12  O   UNL     1      36.424 -25.699 -13.213  0.00  0.00    -0.504 OA
ATOM     13  H   UNL     1      37.043 -26.401 -13.207  0.00  0.00    +0.292 HD
ENDBRANCH   8  12
ENDBRANCH   1   3
BRANCH   1  16
ATOM     14  O   UNL     1      35.365 -22.613 -18.372  0.00  0.00    -0.275 OA
ATOM     15  N   UNL     1      36.471 -20.739 -19.180  0.00  0.00    -0.304 N 
ATOM     16  C   UNL     1      36.156 -21.688 -18.212  0.00  0.00    +0.227 C 
ATOM     17  H   UNL     1      37.120 -20.033 -18.953  0.00  0.00    +0.149 HD
BRANCH  15  18
ATOM     18  C   UNL     1      35.892 -20.743 -20.495  0.00  0.00    +0.089 C 
BRANCH  18  19
ATOM     19  C   UNL     1      34.537 -20.046 -20.535  0.00  0.00    +0.021 C 
BRANCH  19  20
ATOM     20  C   UNL     1      34.535 -18.816 -21.449  0.00  0.00    +0.002 C 
BRANCH  20  21
ATOM     21  C   UNL     1      34.866 -19.199 -22.894  0.00  0.00    +0.012 C 
BRANCH  21  22
ATOM     22  C   UNL     1      35.267 -17.992 -23.737  0.00  0.00    +0.114 C 
BRANCH  22  25
ATOM     23  O   UNL     1      34.892 -16.796 -25.729  0.00  0.00    -0.246 OA
ATOM     24  O   UNL     1      33.660 -18.681 -25.349  0.00  0.00    -0.246 OA
ATOM     25  C   UNL     1      34.534 -17.814 -25.070  0.00  0.00    +0.365 C 
ENDBRANCH  22  25
ENDBRANCH  21  22
ENDBRANCH  20  21
ENDBRANCH  19  20
ENDBRANCH  18  19
ENDBRANCH  15  18
ENDBRANCH   1  16
TORSDOF 10
ENDMDL
MODEL 6
REMARK VINA RESULT:      -8.7      5.640     11.542
REMARK  Name = 46937138
REMARK  10 active torsions:
REMARK  status: ('A' for Active; 'I' for Inactive)
REMARK    1  A    between atoms: C_1  and  C_3
REMARK    2  A    between atoms: C_1  and  C_16
REMARK    3  A    between atoms: C_6  and  N_11
REMARK    4  A    between atoms: C_8  and  O_12
REMARK    5  A    between atoms: N_15  and  C_18
REMARK    6  A    between atoms: C_18  and  C_19
REMARK    7  A    between atoms: C_19  and  C_20
REMARK    8  A    between atoms: C_20  and  C_21
REMARK    9  A    between atoms: C_21  and  C_22
REMARK   10  A    between atoms: C_22  and  C_25
REMARK                            x       y       z     vdW  Elec       q    Type
REMARK                         _______ _______ _______ _____ _____    ______ ____
ROOT
ATOM      1  C   UNL     1      32.998 -15.203 -21.138  0.00  0.00    +0.111 C 
ENDROOT
BRANCH   1   3
ATOM      2  I   UNL     1      33.260 -10.346 -23.729  0.00  0.00    -0.039 I 
ATOM      3  C   UNL     1      33.171 -14.490 -22.453  0.00  0.00    -0.011 C 
ATOM      4  C   UNL     1      33.360 -15.224 -23.623  0.00  0.00    +0.023 C 
ATOM      5  C   UNL     1      33.145 -13.096 -22.500  0.00  0.00    +0.005 C 
ATOM      6  C   UNL     1      33.521 -14.564 -24.842  0.00  0.00    +0.176 C 
ATOM      7  C   UNL     1      33.307 -12.437 -23.718  0.00  0.00    +0.065 C 
ATOM      8  C   UNL     1      33.495 -13.171 -24.889  0.00  0.00    +0.161 C 
BRANCH   6  11
ATOM      9  O   UNL     1      33.143 -14.972 -27.080  0.00  0.00    -0.126 OA
ATOM     10  O   UNL     1      34.447 -16.349 -25.973  0.00  0.00    -0.126 OA
ATOM     11  N   UNL     1      33.713 -15.333 -26.023  0.00  0.00    +0.061 N 
ENDBRANCH   6  11
BRANCH   8  12
ATOM     12  O   UNL     1      33.656 -12.540 -26.090  0.00  0.00    -0.504 OA
ATOM     13  H   UNL     1      33.356 -12.949 -26.878  0.00  0.00    +0.292 HD
ENDBRANCH   8  12
ENDBRANCH   1   3
BRANCH   1  16
ATOM     14  O   UNL     1      35.043 -15.637 -19.915  0.00  0.00    -0.275 OA
ATOM     15  N   UNL     1      34.260 -17.238 -21.403  0.00  0.00    -0.304 N 
ATOM     16  C   UNL     1      34.210 -16.019 -20.733  0.00  0.00    +0.227 C 
ATOM     17  H   UNL     1      33.541 -17.454 -22.042  0.00  0.00    +0.149 HD
BRANCH  15  18
ATOM     18  C   UNL     1      35.311 -18.196 -21.202  0.00  0.00    +0.089 C 
BRANCH  18  19
ATOM     19  C   UNL     1      34.789 -19.626 -21.123  0.00  0.00    +0.021 C 
BRANCH  19  20
ATOM     20  C   UNL     1      33.288 -19.689 -20.821  0.00  0.00    +0.002 C 
BRANCH  20  21
ATOM     21  C   UNL     1      32.905 -21.031 -20.191  0.00  0.00    +0.012 C 
BRANCH  21  22
ATOM     22  C   UNL     1      34.047 -21.638 -19.382  0.00  0.00    +0.114 C 
BRANCH  22  25
ATOM     23  O   UNL     1      32.406 -22.657 -18.037  0.00  0.00    -0.246 OA
ATOM     24  O   UNL     1      34.599 -23.142 -17.624  0.00  0.00    -0.246 OA
ATOM     25  C   UNL     1      33.652 -22.577 -18.238  0.00  0.00    +0.365 C 
ENDBRANCH  22  25
ENDBRANCH  21  22
ENDBRANCH  20  21
ENDBRANCH  19  20
ENDBRANCH  18  19
ENDBRANCH  15  18
ENDBRANCH   1  16
TORSDOF 10
ENDMDL
MODEL 7
REMARK VINA RESULT:      -8.6      7.758     11.202
REMARK  Name = 46937138
REMARK  10 active torsions:
REMARK  status: ('A' for Active; 'I' for Inactive)
REMARK    1  A    between atoms: C_1  and  C_3
REMARK    2  A    between atoms: C_1  and  C_16
REMARK    3  A    between atoms: C_6  and  N_11
REMARK    4  A    between atoms: C_8  and  O_12
REMARK    5  A    between atoms: N_15  and  C_18
REMARK    6  A    between atoms: C_18  and  C_19
REMARK    7  A    between atoms: C_19  and  C_20
REMARK    8  A    between atoms: C_20  and  C_21
REMARK    9  A    between atoms: C_21  and  C_22
REMARK   10  A    between atoms: C_22  and  C_25
REMARK                            x       y       z     vdW  Elec       q    Type
REMARK                         _______ _______ _______ _____ _____    ______ ____
ROOT
ATOM      1  C   UNL     1      32.694 -15.583 -21.129  0.00  0.00    +0.111 C 
ENDROOT
BRANCH   1   3
ATOM      2  I   UNL     1      31.248 -10.382 -20.022  0.00  0.00    -0.039 I 
ATOM      3  C   UNL     1      32.641 -14.163 -21.626  0.00  0.00    -0.011 C 
ATOM      4  C   UNL     1      33.130 -13.850 -22.894  0.00  0.00    +0.023 C 
ATOM      5  C   UNL     1      32.106 -13.160 -20.817  0.00  0.00    +0.005 C 
ATOM      6  C   UNL     1      33.082 -12.534 -23.354  0.00  0.00    +0.176 C 
ATOM      7  C   UNL     1      32.060 -11.844 -21.278  0.00  0.00    +0.065 C 
ATOM      8  C   UNL     1      32.548 -11.531 -22.546  0.00  0.00    +0.161 C 
BRANCH   6  11
ATOM      9  O   UNL     1      34.295 -11.215 -24.806  0.00  0.00    -0.126 OA
ATOM     10  O   UNL     1      33.308 -13.008 -25.601  0.00  0.00    -0.126 OA
ATOM     11  N   UNL     1      33.587 -12.238 -24.651  0.00  0.00    +0.061 N 
ENDBRANCH   6  11
BRANCH   8  12
ATOM     12  O   UNL     1      32.509 -10.248 -23.012  0.00  0.00    -0.504 OA
ATOM     13  H   UNL     1      32.848 -10.048 -23.862  0.00  0.00    +0.292 HD
ENDBRANCH   8  12
ENDBRANCH   1   3
BRANCH   1  16
ATOM     14  O   UNL     1      34.902 -15.345 -20.161  0.00  0.00    -0.275 OA
ATOM     15  N   UNL     1      34.346 -17.336 -21.220  0.00  0.00    -0.304 N 
ATOM     16  C   UNL     1      34.095 -16.043 -20.770  0.00  0.00    +0.227 C 
ATOM     17  H   UNL     1      33.631 -17.814 -21.701  0.00  0.00    +0.149 HD
BRANCH  15  18
ATOM     18  C   UNL     1      35.601 -18.004 -21.013  0.00  0.00    +0.089 C 
BRANCH  18  19
ATOM     19  C   UNL     1      35.715 -19.292 -21.821  0.00  0.00    +0.021 C 
BRANCH  19  20
ATOM     20  C   UNL     1      34.584 -19.448 -22.843  0.00  0.00    +0.002 C 
BRANCH  20  21
ATOM     21  C   UNL     1      35.081 -19.173 -24.265  0.00  0.00    +0.012 C 
BRANCH  21  22
ATOM     22  C   UNL     1      34.137 -18.261 -25.043  0.00  0.00    +0.114 C 
BRANCH  22  25
ATOM     23  O   UNL     1      35.184 -16.374 -24.104  0.00  0.00    -0.246 OA
ATOM     24  O   UNL     1      34.086 -16.127 -26.091  0.00  0.00    -0.246 OA
ATOM     25  C   UNL     1      34.506 -16.775 -25.093  0.00  0.00    +0.365 C 
ENDBRANCH  22  25
ENDBRANCH  21  22
ENDBRANCH  20  21
ENDBRANCH  19  20
ENDBRANCH  18  19
ENDBRANCH  15  18
ENDBRANCH   1  16
TORSDOF 10
ENDMDL
MODEL 8
REMARK VINA RESULT:      -8.6      5.389     11.509
REMARK  Name = 46937138
REMARK  10 active torsions:
REMARK  status: ('A' for Active; 'I' for Inactive)
REMARK    1  A    between atoms: C_1  and  C_3
REMARK    2  A    between atoms: C_1  and  C_16
REMARK    3  A    between atoms: C_6  and  N_11
REMARK    4  A    between atoms: C_8  and  O_12
REMARK    5  A    between atoms: N_15  and  C_18
REMARK    6  A    between atoms: C_18  and  C_19
REMARK    7  A    between atoms: C_19  and  C_20
REMARK    8  A    between atoms: C_20  and  C_21
REMARK    9  A    between atoms: C_21  and  C_22
REMARK   10  A    between atoms: C_22  and  C_25
REMARK                            x       y       z     vdW  Elec       q    Type
REMARK                         _______ _______ _______ _____ _____    ______ ____
ROOT
ATOM      1  C   UNL     1      32.686 -15.904 -20.998  0.00  0.00    +0.111 C 
ENDROOT
BRANCH   1   3
ATOM      2  I   UNL     1      31.298 -10.651 -20.077  0.00  0.00    -0.039 I 
ATOM      3  C   UNL     1      32.626 -14.506 -21.554  0.00  0.00    -0.011 C 
ATOM      4  C   UNL     1      33.081 -14.251 -22.847  0.00  0.00    +0.023 C 
ATOM      5  C   UNL     1      32.119 -13.466 -20.775  0.00  0.00    +0.005 C 
ATOM      6  C   UNL     1      33.028 -12.956 -23.363  0.00  0.00    +0.176 C 
ATOM      7  C   UNL     1      32.067 -12.170 -21.291  0.00  0.00    +0.065 C 
ATOM      8  C   UNL     1      32.521 -11.916 -22.584  0.00  0.00    +0.161 C 
BRANCH   6  11
ATOM      9  O   UNL     1      34.213 -11.712 -24.901  0.00  0.00    -0.126 OA
ATOM     10  O   UNL     1      33.183 -13.524 -25.593  0.00  0.00    -0.126 OA
ATOM     11  N   UNL     1      33.498 -12.719 -24.685  0.00  0.00    +0.061 N 
ENDBRANCH   6  11
BRANCH   8  12
ATOM     12  O   UNL     1      32.477 -10.654 -23.104  0.00  0.00    -0.504 OA
ATOM     13  H   UNL     1      32.953  -9.960 -22.693  0.00  0.00    +0.292 HD
ENDBRANCH   8  12
ENDBRANCH   1   3
BRANCH   1  16
ATOM     14  O   UNL     1      34.988 -15.773 -20.258  0.00  0.00    -0.275 OA
ATOM     15  N   UNL     1      34.264 -17.691 -21.349  0.00  0.00    -0.304 N 
ATOM     16  C   UNL     1      34.101 -16.417 -20.812  0.00  0.00    +0.227 C 
ATOM     17  H   UNL     1      33.488 -18.125 -21.774  0.00  0.00    +0.149 HD
BRANCH  15  18
ATOM     18  C   UNL     1      35.512 -18.401 -21.308  0.00  0.00    +0.089 C 
BRANCH  18  19
ATOM     19  C   UNL     1      35.343 -19.853 -20.875  0.00  0.00    +0.021 C 
BRANCH  19  20
ATOM     20  C   UNL     1      36.544 -20.374 -20.081  0.00  0.00    +0.002 C 
BRANCH  20  21
ATOM     21  C   UNL     1      36.115 -21.429 -19.057  0.00  0.00    +0.012 C 
BRANCH  21  22
ATOM     22  C   UNL     1      34.925 -22.254 -19.538  0.00  0.00    +0.114 C 
BRANCH  22  25
ATOM     23  O   UNL     1      32.712 -22.158 -18.742  0.00  0.00    -0.246 OA
ATOM     24  O   UNL     1      34.263 -23.282 -17.498  0.00  0.00    -0.246 OA
ATOM     25  C   UNL     1      33.867 -22.607 -18.489  0.00  0.00    +0.365 C 
ENDBRANCH  22  25
ENDBRANCH  21  22
ENDBRANCH  20  21
ENDBRANCH  19  20
ENDBRANCH  18  19
ENDBRANCH  15  18
ENDBRANCH   1  16
TORSDOF 10
ENDMDL
MODEL 9
REMARK VINA RESULT:      -8.6      5.221     10.015
REMARK  Name = 46937138
REMARK  10 active torsions:
REMARK  status: ('A' for Active; 'I' for Inactive)
REMARK    1  A    between atoms: C_1  and  C_3
REMARK    2  A    between atoms: C_1  and  C_16
REMARK    3  A    between atoms: C_6  and  N_11
REMARK    4  A    between atoms: C_8  and  O_12
REMARK    5  A    between atoms: N_15  and  C_18
REMARK    6  A    between atoms: C_18  and  C_19
REMARK    7  A    between atoms: C_19  and  C_20
REMARK    8  A    between atoms: C_20  and  C_21
REMARK    9  A    between atoms: C_21  and  C_22
REMARK   10  A    between atoms: C_22  and  C_25
REMARK                            x       y       z     vdW  Elec       q    Type
REMARK                         _______ _______ _______ _____ _____    ______ ____
ROOT
ATOM      1  C   UNL     1      35.163 -20.142 -20.723  0.00  0.00    +0.111 C 
ENDROOT
BRANCH   1   3
ATOM      2  I   UNL     1      34.048 -14.745 -20.724  0.00  0.00    -0.039 I 
ATOM      3  C   UNL     1      34.874 -18.921 -21.555  0.00  0.00    -0.011 C 
ATOM      4  C   UNL     1      34.837 -19.018 -22.946  0.00  0.00    +0.023 C 
ATOM      5  C   UNL     1      34.646 -17.692 -20.936  0.00  0.00    +0.005 C 
ATOM      6  C   UNL     1      34.570 -17.887 -23.717  0.00  0.00    +0.176 C 
ATOM      7  C   UNL     1      34.381 -16.561 -21.707  0.00  0.00    +0.065 C 
ATOM      8  C   UNL     1      34.343 -16.658 -23.098  0.00  0.00    +0.161 C 
BRANCH   6  11
ATOM      9  O   UNL     1      34.036 -19.041 -25.641  0.00  0.00    -0.126 OA
ATOM     10  O   UNL     1      35.011 -17.083 -25.834  0.00  0.00    -0.126 OA
ATOM     11  N   UNL     1      34.538 -18.009 -25.135  0.00  0.00    +0.061 N 
ENDBRANCH   6  11
BRANCH   8  12
ATOM     12  O   UNL     1      34.084 -15.560 -23.868  0.00  0.00    -0.504 OA
ATOM     13  H   UNL     1      33.710 -14.794 -23.481  0.00  0.00    +0.292 HD
ENDBRANCH   8  12
ENDBRANCH   1   3
BRANCH   1  16
ATOM     14  O   UNL     1      32.777 -20.493 -20.500  0.00  0.00    -0.275 OA
ATOM     15  N   UNL     1      34.226 -21.734 -19.176  0.00  0.00    -0.304 N 
ATOM     16  C   UNL     1      33.917 -20.786 -20.147  0.00  0.00    +0.227 C 
ATOM     17  H   UNL     1      35.174 -21.898 -18.963  0.00  0.00    +0.149 HD
BRANCH  15  18
ATOM     18  C   UNL     1      33.224 -22.485 -18.472  0.00  0.00    +0.089 C 
BRANCH  18  19
ATOM     19  C   UNL     1      33.758 -23.108 -17.187  0.00  0.00    +0.021 C 
BRANCH  19  20
ATOM     20  C   UNL     1      32.681 -23.242 -16.106  0.00  0.00    +0.002 C 
BRANCH  20  21
ATOM     21  C   UNL     1      31.295 -22.902 -16.660  0.00  0.00    +0.012 C 
BRANCH  21  22
ATOM     22  C   UNL     1      30.189 -23.121 -15.631  0.00  0.00    +0.114 C 
BRANCH  22  25
ATOM     23  O   UNL     1      28.648 -22.048 -17.051  0.00  0.00    -0.246 OA
ATOM     24  O   UNL     1      27.850 -23.531 -15.509  0.00  0.00    -0.246 OA
ATOM     25  C   UNL     1      28.753 -22.885 -16.109  0.00  0.00    +0.365 C 
ENDBRANCH  22  25
ENDBRANCH  21  22
ENDBRANCH  20  21
ENDBRANCH  19  20
ENDBRANCH  18  19
ENDBRANCH  15  18
ENDBRANCH   1  16
TORSDOF 10
ENDMDL
