MODEL 1
REMARK VINA RESULT:      -8.5      0.000      0.000
REMARK  Name = 54676868
REMARK  9 active torsions:
REMARK  status: ('A' for Active; 'I' for Inactive)
REMARK    1  A    between atoms: C_3  and  C_10
REMARK    2  A    between atoms: C_4  and  O_20
REMARK    3  A    between atoms: C_6  and  O_22
REMARK    4  A    between atoms: C_7  and  O_24
REMARK    5  A    between atoms: C_10  and  C_11
REMARK    6  A    between atoms: C_11  and  C_13
REMARK    7  A    between atoms: C_13  and  C_14
REMARK    8  A    between atoms: C_14  and  C_17
REMARK    9  A    between atoms: C_17  and  C_19
REMARK                            x       y       z     vdW  Elec       q    Type
REMARK                         _______ _______ _______ _____ _____    ______ ____
ROOT
ATOM      1  O   UNL     1      32.062 -20.069 -20.977  0.00  0.00    -0.267 OA
ATOM      2  N   UNL     1      33.144 -21.759 -19.853  0.00  0.00    -0.290 N 
ATOM      3  C   UNL     1      34.396 -19.796 -20.601  0.00  0.00    +0.127 A 
ATOM      4  C   UNL     1      35.504 -20.339 -20.062  0.00  0.00    +0.180 A 
ATOM      5  C   UNL     1      33.094 -20.536 -20.500  0.00  0.00    +0.266 A 
ATOM      6  C   UNL     1      35.444 -21.610 -19.360  0.00  0.00    +0.224 A 
ATOM      7  C   UNL     1      34.284 -22.278 -19.292  0.00  0.00    +0.243 A 
ATOM      8  H   UNL     1      32.315 -22.286 -19.791  0.00  0.00    +0.172 HD
ENDROOT
BRANCH   3  10
ATOM      9  O   UNL     1      33.897 -17.520 -20.833  0.00  0.00    -0.291 OA
ATOM     10  C   UNL     1      34.488 -18.494 -21.293  0.00  0.00    +0.180 C 
BRANCH  10  11
ATOM     11  C   UNL     1      35.359 -18.432 -22.544  0.00  0.00    +0.062 C 
ATOM     12  C   UNL     1      34.747 -19.381 -23.576  0.00  0.00    +0.008 C 
BRANCH  11  13
ATOM     13  C   UNL     1      35.458 -17.006 -23.124  0.00  0.00    +0.009 C 
BRANCH  13  14
ATOM     14  C   UNL     1      34.297 -16.613 -24.079  0.00  0.00    +0.017 C 
ATOM     15  C   UNL     1      34.750 -16.492 -25.539  0.00  0.00    +0.001 C 
BRANCH  14  17
ATOM     16 CL   UNL     1      34.583 -14.509 -22.298  0.00  0.00    -0.114 Cl
ATOM     17  C   UNL     1      33.585 -15.330 -23.551  0.00  0.00    +0.096 C 
BRANCH  17  19
ATOM     18 CL   UNL     1      33.835 -12.667 -24.206  0.00  0.00    -0.112 Cl
ATOM     19  C   UNL     1      33.217 -14.287 -24.612  0.00  0.00    +0.111 C 
ENDBRANCH  17  19
ENDBRANCH  14  17
ENDBRANCH  13  14
ENDBRANCH  11  13
ENDBRANCH  10  11
ENDBRANCH   3  10
BRANCH   4  20
ATOM     20  O   UNL     1      36.739 -19.721 -20.122  0.00  0.00    -0.503 OA
ATOM     21  H   UNL     1      37.073 -19.424 -20.945  0.00  0.00    +0.292 HD
ENDBRANCH   4  20
BRANCH   6  22
ATOM     22  O   UNL     1      36.622 -22.066 -18.814  0.00  0.00    -0.464 OA
ATOM     23  C   UNL     1      36.710 -21.724 -17.443  0.00  0.00    +0.253 C 
ENDBRANCH   6  22
BRANCH   7  24
ATOM     24  O   UNL     1      34.166 -23.490 -18.660  0.00  0.00    -0.455 OA
ATOM     25  C   UNL     1      33.362 -23.381 -17.499  0.00  0.00    +0.254 C 
ENDBRANCH   7  24
TORSDOF 9
ENDMDL
MODEL 2
REMARK VINA RESULT:      -8.3      1.538      1.999
REMARK  Name = 54676868
REMARK  9 active torsions:
REMARK  status: ('A' for Active; 'I' for Inactive)
REMARK    1  A    between atoms: C_3  and  C_10
REMARK    2  A    between atoms: C_4  and  O_20
REMARK    3  A    between atoms: C_6  and  O_22
REMARK    4  A    between atoms: C_7  and  O_24
REMARK    5  A    between atoms: C_10  and  C_11
REMARK    6  A    between atoms: C_11  and  C_13
REMARK    7  A    between atoms: C_13  and  C_14
REMARK    8  A    between atoms: C_14  and  C_17
REMARK    9  A    between atoms: C_17  and  C_19
REMARK                            x       y       z     vdW  Elec       q    Type
REMARK                         _______ _______ _______ _____ _____    ______ ____
ROOT
ATOM      1  O   UNL     1      32.225 -20.499 -20.785  0.00  0.00    -0.267 OA
ATOM      2  N   UNL     1      33.194 -21.856 -19.200  0.00  0.00    -0.290 N 
ATOM      3  C   UNL     1      34.595 -20.415 -20.593  0.00  0.00    +0.127 A 
ATOM      4  C   UNL     1      35.673 -20.888 -19.940  0.00  0.00    +0.180 A 
ATOM      5  C   UNL     1      33.231 -20.912 -20.213  0.00  0.00    +0.266 A 
ATOM      6  C   UNL     1      35.526 -21.845 -18.856  0.00  0.00    +0.224 A 
ATOM      7  C   UNL     1      34.308 -22.304 -18.536  0.00  0.00    +0.243 A 
ATOM      8  H   UNL     1      32.320 -22.226 -18.942  0.00  0.00    +0.172 HD
ENDROOT
BRANCH   3  10
ATOM      9  O   UNL     1      34.641 -19.781 -22.847  0.00  0.00    -0.291 OA
ATOM     10  C   UNL     1      34.778 -19.429 -21.678  0.00  0.00    +0.180 C 
BRANCH  10  11
ATOM     11  C   UNL     1      35.099 -17.994 -21.268  0.00  0.00    +0.062 C 
ATOM     12  C   UNL     1      36.153 -17.465 -22.242  0.00  0.00    +0.008 C 
BRANCH  11  13
ATOM     13  C   UNL     1      33.853 -17.084 -21.282  0.00  0.00    +0.009 C 
BRANCH  13  14
ATOM     14  C   UNL     1      34.134 -15.608 -21.678  0.00  0.00    +0.017 C 
ATOM     15  C   UNL     1      34.048 -14.652 -20.483  0.00  0.00    +0.001 C 
BRANCH  14  17
ATOM     16 CL   UNL     1      32.371 -13.639 -22.510  0.00  0.00    -0.114 Cl
ATOM     17  C   UNL     1      33.212 -15.191 -22.864  0.00  0.00    +0.096 C 
BRANCH  17  19
ATOM     18 CL   UNL     1      34.037 -16.605 -25.078  0.00  0.00    -0.112 Cl
ATOM     19  C   UNL     1      33.901 -15.048 -24.225  0.00  0.00    +0.111 C 
ENDBRANCH  17  19
ENDBRANCH  14  17
ENDBRANCH  13  14
ENDBRANCH  11  13
ENDBRANCH  10  11
ENDBRANCH   3  10
BRANCH   4  20
ATOM     20  O   UNL     1      36.960 -20.483 -20.239  0.00  0.00    -0.503 OA
ATOM     21  H   UNL     1      37.232 -20.411 -21.133  0.00  0.00    +0.292 HD
ENDBRANCH   4  20
BRANCH   6  22
ATOM     22  O   UNL     1      36.683 -22.243 -18.227  0.00  0.00    -0.464 OA
ATOM     23  C   UNL     1      36.894 -21.504 -17.039  0.00  0.00    +0.253 C 
ENDBRANCH   6  22
BRANCH   7  24
ATOM     24  O   UNL     1      34.104 -23.221 -17.536  0.00  0.00    -0.455 OA
ATOM     25  C   UNL     1      32.757 -23.208 -17.101  0.00  0.00    +0.254 C 
ENDBRANCH   7  24
TORSDOF 9
ENDMDL
MODEL 3
REMARK VINA RESULT:      -8.2      3.935      7.865
REMARK  Name = 54676868
REMARK  9 active torsions:
REMARK  status: ('A' for Active; 'I' for Inactive)
REMARK    1  A    between atoms: C_3  and  C_10
REMARK    2  A    between atoms: C_4  and  O_20
REMARK    3  A    between atoms: C_6  and  O_22
REMARK    4  A    between atoms: C_7  and  O_24
REMARK    5  A    between atoms: C_10  and  C_11
REMARK    6  A    between atoms: C_11  and  C_13
REMARK    7  A    between atoms: C_13  and  C_14
REMARK    8  A    between atoms: C_14  and  C_17
REMARK    9  A    between atoms: C_17  and  C_19
REMARK                            x       y       z     vdW  Elec       q    Type
REMARK                         _______ _______ _______ _____ _____    ______ ____
ROOT
ATOM      1  O   UNL     1      34.587 -17.535 -25.739  0.00  0.00    -0.267 OA
ATOM      2  N   UNL     1      33.720 -15.404 -25.751  0.00  0.00    -0.290 N 
ATOM      3  C   UNL     1      34.632 -16.338 -23.683  0.00  0.00    +0.127 A 
ATOM      4  C   UNL     1      34.332 -15.180 -23.066  0.00  0.00    +0.180 A 
ATOM      5  C   UNL     1      34.321 -16.494 -25.143  0.00  0.00    +0.266 A 
ATOM      6  C   UNL     1      33.742 -14.075 -23.805  0.00  0.00    +0.224 A 
ATOM      7  C   UNL     1      33.444 -14.227 -25.102  0.00  0.00    +0.243 A 
ATOM      8  H   UNL     1      33.476 -15.479 -26.701  0.00  0.00    +0.172 HD
ENDROOT
BRANCH   3  10
ATOM      9  O   UNL     1      36.424 -17.350 -22.565  0.00  0.00    -0.291 OA
ATOM     10  C   UNL     1      35.247 -17.436 -22.908  0.00  0.00    +0.180 C 
BRANCH  10  11
ATOM     11  C   UNL     1      34.352 -18.616 -22.544  0.00  0.00    +0.062 C 
ATOM     12  C   UNL     1      34.791 -19.805 -23.400  0.00  0.00    +0.008 C 
BRANCH  11  13
ATOM     13  C   UNL     1      34.433 -18.978 -21.046  0.00  0.00    +0.009 C 
BRANCH  13  14
ATOM     14  C   UNL     1      34.155 -20.473 -20.725  0.00  0.00    +0.017 C 
ATOM     15  C   UNL     1      32.960 -20.660 -19.782  0.00  0.00    +0.001 C 
BRANCH  14  17
ATOM     16 CL   UNL     1      36.816 -19.981 -20.133  0.00  0.00    -0.114 Cl
ATOM     17  C   UNL     1      35.456 -21.157 -20.208  0.00  0.00    +0.096 C 
BRANCH  17  19
ATOM     18 CL   UNL     1      36.823 -21.610 -17.860  0.00  0.00    -0.112 Cl
ATOM     19  C   UNL     1      35.352 -21.838 -18.838  0.00  0.00    +0.111 C 
ENDBRANCH  17  19
ENDBRANCH  14  17
ENDBRANCH  13  14
ENDBRANCH  11  13
ENDBRANCH  10  11
ENDBRANCH   3  10
BRANCH   4  20
ATOM     20  O   UNL     1      34.580 -14.967 -21.724  0.00  0.00    -0.503 OA
ATOM     21  H   UNL     1      34.687 -14.094 -21.401  0.00  0.00    +0.292 HD
ENDBRANCH   4  20
BRANCH   6  22
ATOM     22  O   UNL     1      33.502 -12.921 -23.094  0.00  0.00    -0.464 OA
ATOM     23  C   UNL     1      32.206 -12.938 -22.525  0.00  0.00    +0.253 C 
ENDBRANCH   6  22
BRANCH   7  24
ATOM     24  O   UNL     1      32.871 -13.229 -25.850  0.00  0.00    -0.455 OA
ATOM     25  C   UNL     1      33.228 -13.347 -27.215  0.00  0.00    +0.254 C 
ENDBRANCH   7  24
TORSDOF 9
ENDMDL
MODEL 4
REMARK VINA RESULT:      -8.2      3.222      5.655
REMARK  Name = 54676868
REMARK  9 active torsions:
REMARK  status: ('A' for Active; 'I' for Inactive)
REMARK    1  A    between atoms: C_3  and  C_10
REMARK    2  A    between atoms: C_4  and  O_20
REMARK    3  A    between atoms: C_6  and  O_22
REMARK    4  A    between atoms: C_7  and  O_24
REMARK    5  A    between atoms: C_10  and  C_11
REMARK    6  A    between atoms: C_11  and  C_13
REMARK    7  A    between atoms: C_13  and  C_14
REMARK    8  A    between atoms: C_14  and  C_17
REMARK    9  A    between atoms: C_17  and  C_19
REMARK                            x       y       z     vdW  Elec       q    Type
REMARK                         _______ _______ _______ _____ _____    ______ ____
ROOT
ATOM      1  O   UNL     1      35.606 -24.013 -16.216  0.00  0.00    -0.267 OA
ATOM      2  N   UNL     1      33.751 -23.828 -14.869  0.00  0.00    -0.290 N 
ATOM      3  C   UNL     1      33.632 -23.132 -17.210  0.00  0.00    +0.127 A 
ATOM      4  C   UNL     1      32.341 -22.803 -17.012  0.00  0.00    +0.180 A 
ATOM      5  C   UNL     1      34.427 -23.698 -16.070  0.00  0.00    +0.266 A 
ATOM      6  C   UNL     1      31.707 -23.022 -15.722  0.00  0.00    +0.224 A 
ATOM      7  C   UNL     1      32.427 -23.506 -14.701  0.00  0.00    +0.243 A 
ATOM      8  H   UNL     1      34.247 -24.171 -14.091  0.00  0.00    +0.172 HD
ENDROOT
BRANCH   3  10
ATOM      9  O   UNL     1      34.121 -23.771 -19.409  0.00  0.00    -0.291 OA
ATOM     10  C   UNL     1      34.242 -22.913 -18.538  0.00  0.00    +0.180 C 
BRANCH  10  11
ATOM     11  C   UNL     1      34.969 -21.590 -18.760  0.00  0.00    +0.062 C 
ATOM     12  C   UNL     1      36.419 -21.785 -18.313  0.00  0.00    +0.008 C 
BRANCH  11  13
ATOM     13  C   UNL     1      34.921 -21.130 -20.231  0.00  0.00    +0.009 C 
BRANCH  13  14
ATOM     14  C   UNL     1      34.151 -19.801 -20.470  0.00  0.00    +0.017 C 
ATOM     15  C   UNL     1      32.688 -20.032 -20.867  0.00  0.00    +0.001 C 
BRANCH  14  17
ATOM     16 CL   UNL     1      36.691 -18.906 -21.122  0.00  0.00    -0.114 Cl
ATOM     17  C   UNL     1      34.929 -18.911 -21.486  0.00  0.00    +0.096 C 
BRANCH  17  19
ATOM     18 CL   UNL     1      34.963 -17.878 -24.039  0.00  0.00    -0.112 Cl
ATOM     19  C   UNL     1      34.759 -19.283 -22.964  0.00  0.00    +0.111 C 
ENDBRANCH  17  19
ENDBRANCH  14  17
ENDBRANCH  13  14
ENDBRANCH  11  13
ENDBRANCH  10  11
ENDBRANCH   3  10
BRANCH   4  20
ATOM     20  O   UNL     1      31.549 -22.269 -18.010  0.00  0.00    -0.503 OA
ATOM     21  H   UNL     1      31.640 -22.572 -18.892  0.00  0.00    +0.292 HD
ENDBRANCH   4  20
BRANCH   6  22
ATOM     22  O   UNL     1      30.376 -22.686 -15.628  0.00  0.00    -0.464 OA
ATOM     23  C   UNL     1      29.553 -23.759 -16.048  0.00  0.00    +0.253 C 
ENDBRANCH   6  22
BRANCH   7  24
ATOM     24  O   UNL     1      31.892 -23.718 -13.455  0.00  0.00    -0.455 OA
ATOM     25  C   UNL     1      31.414 -25.045 -13.326  0.00  0.00    +0.254 C 
ENDBRANCH   7  24
TORSDOF 9
ENDMDL
MODEL 5
REMARK VINA RESULT:      -8.1      4.379      7.694
REMARK  Name = 54676868
REMARK  9 active torsions:
REMARK  status: ('A' for Active; 'I' for Inactive)
REMARK    1  A    between atoms: C_3  and  C_10
REMARK    2  A    between atoms: C_4  and  O_20
REMARK    3  A    between atoms: C_6  and  O_22
REMARK    4  A    between atoms: C_7  and  O_24
REMARK    5  A    between atoms: C_10  and  C_11
REMARK    6  A    between atoms: C_11  and  C_13
REMARK    7  A    between atoms: C_13  and  C_14
REMARK    8  A    between atoms: C_14  and  C_17
REMARK    9  A    between atoms: C_17  and  C_19
REMARK                            x       y       z     vdW  Elec       q    Type
REMARK                         _______ _______ _______ _____ _____    ______ ____
ROOT
ATOM      1  O   UNL     1      34.819 -15.776 -20.181  0.00  0.00    -0.267 OA
ATOM      2  N   UNL     1      33.597 -14.173 -21.292  0.00  0.00    -0.290 N 
ATOM      3  C   UNL     1      34.553 -16.052 -22.530  0.00  0.00    +0.127 A 
ATOM      4  C   UNL     1      34.012 -15.545 -23.653  0.00  0.00    +0.180 A 
ATOM      5  C   UNL     1      34.343 -15.338 -21.227  0.00  0.00    +0.266 A 
ATOM      6  C   UNL     1      33.204 -14.337 -23.610  0.00  0.00    +0.224 A 
ATOM      7  C   UNL     1      33.038 -13.690 -22.448  0.00  0.00    +0.243 A 
ATOM      8  H   UNL     1      33.461 -13.663 -20.462  0.00  0.00    +0.172 HD
ENDROOT
BRANCH   3  10
ATOM      9  O   UNL     1      36.569 -17.218 -22.777  0.00  0.00    -0.291 OA
ATOM     10  C   UNL     1      35.355 -17.291 -22.606  0.00  0.00    +0.180 C 
BRANCH  10  11
ATOM     11  C   UNL     1      34.612 -18.612 -22.427  0.00  0.00    +0.062 C 
ATOM     12  C   UNL     1      34.807 -19.424 -23.710  0.00  0.00    +0.008 C 
BRANCH  11  13
ATOM     13  C   UNL     1      35.115 -19.412 -21.208  0.00  0.00    +0.009 C 
BRANCH  13  14
ATOM     14  C   UNL     1      34.127 -20.493 -20.689  0.00  0.00    +0.017 C 
ATOM     15  C   UNL     1      32.709 -19.945 -20.488  0.00  0.00    +0.001 C 
BRANCH  14  17
ATOM     16 CL   UNL     1      33.913 -22.763 -19.116  0.00  0.00    -0.114 Cl
ATOM     17  C   UNL     1      34.706 -21.175 -19.413  0.00  0.00    +0.096 C 
BRANCH  17  19
ATOM     18 CL   UNL     1      36.840 -21.785 -17.783  0.00  0.00    -0.112 Cl
ATOM     19  C   UNL     1      36.222 -21.403 -19.409  0.00  0.00    +0.111 C 
ENDBRANCH  17  19
ENDBRANCH  14  17
ENDBRANCH  13  14
ENDBRANCH  11  13
ENDBRANCH  10  11
ENDBRANCH   3  10
BRANCH   4  20
ATOM     20  O   UNL     1      34.170 -16.141 -24.890  0.00  0.00    -0.503 OA
ATOM     21  H   UNL     1      35.028 -16.255 -25.248  0.00  0.00    +0.292 HD
ENDBRANCH   4  20
BRANCH   6  22
ATOM     22  O   UNL     1      32.665 -13.916 -24.804  0.00  0.00    -0.464 OA
ATOM     23  C   UNL     1      33.496 -12.950 -25.420  0.00  0.00    +0.253 C 
ENDBRANCH   6  22
BRANCH   7  24
ATOM     24  O   UNL     1      32.302 -12.537 -22.344  0.00  0.00    -0.455 OA
ATOM     25  C   UNL     1      31.770 -12.389 -21.040  0.00  0.00    +0.254 C 
ENDBRANCH   7  24
TORSDOF 9
ENDMDL
MODEL 6
REMARK VINA RESULT:      -7.9      1.777      2.945
REMARK  Name = 54676868
REMARK  9 active torsions:
REMARK  status: ('A' for Active; 'I' for Inactive)
REMARK    1  A    between atoms: C_3  and  C_10
REMARK    2  A    between atoms: C_4  and  O_20
REMARK    3  A    between atoms: C_6  and  O_22
REMARK    4  A    between atoms: C_7  and  O_24
REMARK    5  A    between atoms: C_10  and  C_11
REMARK    6  A    between atoms: C_11  and  C_13
REMARK    7  A    between atoms: C_13  and  C_14
REMARK    8  A    between atoms: C_14  and  C_17
REMARK    9  A    between atoms: C_17  and  C_19
REMARK                            x       y       z     vdW  Elec       q    Type
REMARK                         _______ _______ _______ _____ _____    ______ ____
ROOT
ATOM      1  O   UNL     1      37.092 -19.792 -20.208  0.00  0.00    -0.267 OA
ATOM      2  N   UNL     1      36.155 -21.353 -18.802  0.00  0.00    -0.290 N 
ATOM      3  C   UNL     1      34.781 -20.273 -20.512  0.00  0.00    +0.127 A 
ATOM      4  C   UNL     1      33.735 -21.005 -20.088  0.00  0.00    +0.180 A 
ATOM      5  C   UNL     1      36.114 -20.441 -19.843  0.00  0.00    +0.266 A 
ATOM      6  C   UNL     1      33.891 -21.974 -19.015  0.00  0.00    +0.224 A 
ATOM      7  C   UNL     1      35.077 -22.103 -18.404  0.00  0.00    +0.243 A 
ATOM      8  H   UNL     1      37.005 -21.471 -18.321  0.00  0.00    +0.172 HD
ENDROOT
BRANCH   3  10
ATOM      9  O   UNL     1      34.068 -19.682 -22.663  0.00  0.00    -0.291 OA
ATOM     10  C   UNL     1      34.593 -19.310 -21.617  0.00  0.00    +0.180 C 
BRANCH  10  11
ATOM     11  C   UNL     1      35.042 -17.872 -21.370  0.00  0.00    +0.062 C 
ATOM     12  C   UNL     1      35.938 -17.465 -22.541  0.00  0.00    +0.008 C 
BRANCH  11  13
ATOM     13  C   UNL     1      33.854 -16.897 -21.243  0.00  0.00    +0.009 C 
BRANCH  13  14
ATOM     14  C   UNL     1      34.160 -15.440 -21.690  0.00  0.00    +0.017 C 
ATOM     15  C   UNL     1      34.557 -14.536 -20.516  0.00  0.00    +0.001 C 
BRANCH  14  17
ATOM     16 CL   UNL     1      32.200 -13.482 -21.682  0.00  0.00    -0.114 Cl
ATOM     17  C   UNL     1      32.969 -14.877 -22.521  0.00  0.00    +0.096 C 
BRANCH  17  19
ATOM     18 CL   UNL     1      33.839 -15.794 -24.967  0.00  0.00    -0.112 Cl
ATOM     19  C   UNL     1      33.302 -14.435 -23.950  0.00  0.00    +0.111 C 
ENDBRANCH  17  19
ENDBRANCH  14  17
ENDBRANCH  13  14
ENDBRANCH  11  13
ENDBRANCH  10  11
ENDBRANCH   3  10
BRANCH   4  20
ATOM     20  O   UNL     1      32.477 -20.899 -20.649  0.00  0.00    -0.503 OA
ATOM     21  H   UNL     1      32.093 -21.637 -21.079  0.00  0.00    +0.292 HD
ENDBRANCH   4  20
BRANCH   6  22
ATOM     22  O   UNL     1      32.772 -22.698 -18.674  0.00  0.00    -0.464 OA
ATOM     23  C   UNL     1      32.521 -22.617 -17.283  0.00  0.00    +0.253 C 
ENDBRANCH   6  22
BRANCH   7  24
ATOM     24  O   UNL     1      35.284 -22.986 -17.374  0.00  0.00    -0.455 OA
ATOM     25  C   UNL     1      36.257 -22.493 -16.471  0.00  0.00    +0.254 C 
ENDBRANCH   7  24
TORSDOF 9
ENDMDL
MODEL 7
REMARK VINA RESULT:      -7.9      1.460      2.531
REMARK  Name = 54676868
REMARK  9 active torsions:
REMARK  status: ('A' for Active; 'I' for Inactive)
REMARK    1  A    between atoms: C_3  and  C_10
REMARK    2  A    between atoms: C_4  and  O_20
REMARK    3  A    between atoms: C_6  and  O_22
REMARK    4  A    between atoms: C_7  and  O_24
REMARK    5  A    between atoms: C_10  and  C_11
REMARK    6  A    between atoms: C_11  and  C_13
REMARK    7  A    between atoms: C_13  and  C_14
REMARK    8  A    between atoms: C_14  and  C_17
REMARK    9  A    between atoms: C_17  and  C_19
REMARK                            x       y       z     vdW  Elec       q    Type
REMARK                         _______ _______ _______ _____ _____    ______ ____
ROOT
ATOM      1  O   UNL     1      36.883 -19.290 -20.212  0.00  0.00    -0.267 OA
ATOM      2  N   UNL     1      36.513 -21.060 -18.791  0.00  0.00    -0.290 N 
ATOM      3  C   UNL     1      34.771 -20.375 -20.364  0.00  0.00    +0.127 A 
ATOM      4  C   UNL     1      33.996 -21.368 -19.887  0.00  0.00    +0.180 A 
ATOM      5  C   UNL     1      36.147 -20.183 -19.798  0.00  0.00    +0.266 A 
ATOM      6  C   UNL     1      34.491 -22.268 -18.858  0.00  0.00    +0.224 A 
ATOM      7  C   UNL     1      35.711 -22.078 -18.339  0.00  0.00    +0.243 A 
ATOM      8  H   UNL     1      37.399 -20.948 -18.376  0.00  0.00    +0.172 HD
ENDROOT
BRANCH   3  10
ATOM      9  O   UNL     1      33.084 -19.092 -21.360  0.00  0.00    -0.291 OA
ATOM     10  C   UNL     1      34.245 -19.488 -21.422  0.00  0.00    +0.180 C 
BRANCH  10  11
ATOM     11  C   UNL     1      35.210 -19.083 -22.532  0.00  0.00    +0.062 C 
ATOM     12  C   UNL     1      34.584 -19.511 -23.861  0.00  0.00    +0.008 C 
BRANCH  11  13
ATOM     13  C   UNL     1      35.496 -17.567 -22.541  0.00  0.00    +0.009 C 
BRANCH  13  14
ATOM     14  C   UNL     1      34.388 -16.702 -23.203  0.00  0.00    +0.017 C 
ATOM     15  C   UNL     1      34.841 -16.078 -24.528  0.00  0.00    +0.001 C 
BRANCH  14  17
ATOM     16 CL   UNL     1      34.724 -15.775 -20.613  0.00  0.00    -0.114 Cl
ATOM     17  C   UNL     1      33.852 -15.652 -22.183  0.00  0.00    +0.096 C 
BRANCH  17  19
ATOM     18 CL   UNL     1      32.320 -13.397 -22.575  0.00  0.00    -0.112 Cl
ATOM     19  C   UNL     1      33.914 -14.190 -22.637  0.00  0.00    +0.111 C 
ENDBRANCH  17  19
ENDBRANCH  14  17
ENDBRANCH  13  14
ENDBRANCH  11  13
ENDBRANCH  10  11
ENDBRANCH   3  10
BRANCH   4  20
ATOM     20  O   UNL     1      32.716 -21.601 -20.352  0.00  0.00    -0.503 OA
ATOM     21  H   UNL     1      32.415 -22.479 -20.473  0.00  0.00    +0.292 HD
ENDBRANCH   4  20
BRANCH   6  22
ATOM     22  O   UNL     1      33.638 -23.272 -18.459  0.00  0.00    -0.464 OA
ATOM     23  C   UNL     1      32.918 -22.893 -17.301  0.00  0.00    +0.253 C 
ENDBRANCH   6  22
BRANCH   7  24
ATOM     24  O   UNL     1      36.228 -22.881 -17.354  0.00  0.00    -0.455 OA
ATOM     25  C   UNL     1      36.857 -22.110 -16.347  0.00  0.00    +0.254 C 
ENDBRANCH   7  24
TORSDOF 9
ENDMDL
MODEL 8
REMARK VINA RESULT:      -7.9      4.204      7.485
REMARK  Name = 54676868
REMARK  9 active torsions:
REMARK  status: ('A' for Active; 'I' for Inactive)
REMARK    1  A    between atoms: C_3  and  C_10
REMARK    2  A    between atoms: C_4  and  O_20
REMARK    3  A    between atoms: C_6  and  O_22
REMARK    4  A    between atoms: C_7  and  O_24
REMARK    5  A    between atoms: C_10  and  C_11
REMARK    6  A    between atoms: C_11  and  C_13
REMARK    7  A    between atoms: C_13  and  C_14
REMARK    8  A    between atoms: C_14  and  C_17
REMARK    9  A    between atoms: C_17  and  C_19
REMARK                            x       y       z     vdW  Elec       q    Type
REMARK                         _______ _______ _______ _____ _____    ______ ____
ROOT
ATOM      1  O   UNL     1      35.041 -19.115 -24.138  0.00  0.00    -0.267 OA
ATOM      2  N   UNL     1      34.292 -16.947 -24.301  0.00  0.00    -0.290 N 
ATOM      3  C   UNL     1      35.107 -17.796 -22.158  0.00  0.00    +0.127 A 
ATOM      4  C   UNL     1      34.857 -16.588 -21.621  0.00  0.00    +0.180 A 
ATOM      5  C   UNL     1      34.820 -18.026 -23.613  0.00  0.00    +0.266 A 
ATOM      6  C   UNL     1      34.344 -15.502 -22.439  0.00  0.00    +0.224 A 
ATOM      7  C   UNL     1      34.067 -15.718 -23.732  0.00  0.00    +0.243 A 
ATOM      8  H   UNL     1      34.065 -17.067 -25.251  0.00  0.00    +0.172 HD
ENDROOT
BRANCH   3  10
ATOM      9  O   UNL     1      36.858 -19.060 -21.250  0.00  0.00    -0.291 OA
ATOM     10  C   UNL     1      35.645 -18.875 -21.302  0.00  0.00    +0.180 C 
BRANCH  10  11
ATOM     11  C   UNL     1      34.638 -19.685 -20.491  0.00  0.00    +0.062 C 
ATOM     12  C   UNL     1      33.335 -19.730 -21.292  0.00  0.00    +0.008 C 
BRANCH  11  13
ATOM     13  C   UNL     1      35.133 -21.116 -20.196  0.00  0.00    +0.009 C 
BRANCH  13  14
ATOM     14  C   UNL     1      35.428 -21.404 -18.697  0.00  0.00    +0.017 C 
ATOM     15  C   UNL     1      36.926 -21.567 -18.414  0.00  0.00    +0.001 C 
BRANCH  14  17
ATOM     16 CL   UNL     1      34.909 -22.982 -16.480  0.00  0.00    -0.114 Cl
ATOM     17  C   UNL     1      34.577 -22.615 -18.211  0.00  0.00    +0.096 C 
BRANCH  17  19
ATOM     18 CL   UNL     1      32.170 -23.059 -16.948  0.00  0.00    -0.112 Cl
ATOM     19  C   UNL     1      33.060 -22.474 -18.375  0.00  0.00    +0.111 C 
ENDBRANCH  17  19
ENDBRANCH  14  17
ENDBRANCH  13  14
ENDBRANCH  11  13
ENDBRANCH  10  11
ENDBRANCH   3  10
BRANCH   4  20
ATOM     20  O   UNL     1      35.087 -16.305 -20.288  0.00  0.00    -0.503 OA
ATOM     21  H   UNL     1      35.845 -16.652 -19.860  0.00  0.00    +0.292 HD
ENDBRANCH   4  20
BRANCH   6  22
ATOM     22  O   UNL     1      34.152 -14.295 -21.807  0.00  0.00    -0.464 OA
ATOM     23  C   UNL     1      32.807 -14.150 -21.391  0.00  0.00    +0.253 C 
ENDBRANCH   6  22
BRANCH   7  24
ATOM     24  O   UNL     1      33.565 -14.740 -24.554  0.00  0.00    -0.455 OA
ATOM     25  C   UNL     1      33.417 -15.215 -25.879  0.00  0.00    +0.254 C 
ENDBRANCH   7  24
TORSDOF 9
ENDMDL
MODEL 9
REMARK VINA RESULT:      -7.8      3.909      6.514
REMARK  Name = 54676868
REMARK  9 active torsions:
REMARK  status: ('A' for Active; 'I' for Inactive)
REMARK    1  A    between atoms: C_3  and  C_10
REMARK    2  A    between atoms: C_4  and  O_20
REMARK    3  A    between atoms: C_6  and  O_22
REMARK    4  A    between atoms: C_7  and  O_24
REMARK    5  A    between atoms: C_10  and  C_11
REMARK    6  A    between atoms: C_11  and  C_13
REMARK    7  A    between atoms: C_13  and  C_14
REMARK    8  A    between atoms: C_14  and  C_17
REMARK    9  A    between atoms: C_17  and  C_19
REMARK                            x       y       z     vdW  Elec       q    Type
REMARK                         _______ _______ _______ _____ _____    ______ ____
ROOT
ATOM      1  O   UNL     1      33.434 -15.399 -26.428  0.00  0.00    -0.267 OA
ATOM      2  N   UNL     1      34.539 -16.998 -25.198  0.00  0.00    -0.290 N 
ATOM      3  C   UNL     1      33.772 -14.943 -24.116  0.00  0.00    +0.127 A 
ATOM      4  C   UNL     1      34.277 -15.404 -22.957  0.00  0.00    +0.180 A 
ATOM      5  C   UNL     1      33.888 -15.786 -25.353  0.00  0.00    +0.266 A 
ATOM      6  C   UNL     1      34.903 -16.714 -22.886  0.00  0.00    +0.224 A 
ATOM      7  C   UNL     1      35.026 -17.453 -23.998  0.00  0.00    +0.243 A 
ATOM      8  H   UNL     1      34.659 -17.566 -25.992  0.00  0.00    +0.172 HD
ENDROOT
BRANCH   3  10
ATOM      9  O   UNL     1      31.937 -13.510 -23.861  0.00  0.00    -0.291 OA
ATOM     10  C   UNL     1      33.126 -13.614 -24.150  0.00  0.00    +0.180 C 
BRANCH  10  11
ATOM     11  C   UNL     1      34.007 -12.424 -24.516  0.00  0.00    +0.062 C 
ATOM     12  C   UNL     1      33.615 -11.982 -25.928  0.00  0.00    +0.008 C 
BRANCH  11  13
ATOM     13  C   UNL     1      33.853 -11.249 -23.528  0.00  0.00    +0.009 C 
BRANCH  13  14
ATOM     14  C   UNL     1      33.596  -9.870 -24.195  0.00  0.00    +0.017 C 
ATOM     15  C   UNL     1      34.818  -8.946 -24.125  0.00  0.00    +0.001 C 
BRANCH  14  17
ATOM     16 CL   UNL     1      31.528 -10.322 -22.408  0.00  0.00    -0.114 Cl
ATOM     17  C   UNL     1      32.306  -9.225 -23.604  0.00  0.00    +0.096 C 
BRANCH  17  19
ATOM     18 CL   UNL     1      32.824  -8.004 -21.190  0.00  0.00    -0.112 Cl
ATOM     19  C   UNL     1      32.490  -7.859 -22.933  0.00  0.00    +0.111 C 
ENDBRANCH  17  19
ENDBRANCH  14  17
ENDBRANCH  13  14
ENDBRANCH  11  13
ENDBRANCH  10  11
ENDBRANCH   3  10
BRANCH   4  20
ATOM     20  O   UNL     1      34.215 -14.682 -21.780  0.00  0.00    -0.503 OA
ATOM     21  H   UNL     1      33.403 -14.305 -21.505  0.00  0.00    +0.292 HD
ENDBRANCH   4  20
BRANCH   6  22
ATOM     22  O   UNL     1      35.359 -17.111 -21.650  0.00  0.00    -0.464 OA
ATOM     23  C   UNL     1      34.498 -18.079 -21.080  0.00  0.00    +0.253 C 
ENDBRANCH   6  22
BRANCH   7  24
ATOM     24  O   UNL     1      35.622 -18.689 -24.001  0.00  0.00    -0.455 OA
ATOM     25  C   UNL     1      34.779 -19.658 -24.598  0.00  0.00    +0.254 C 
ENDBRANCH   7  24
TORSDOF 9
ENDMDL
