MODEL 1
REMARK VINA RESULT:      -8.7      0.000      0.000
REMARK  Name = 160139
REMARK  11 active torsions:
REMARK  status: ('A' for Active; 'I' for Inactive)
REMARK    1  A    between atoms: N_1  and  CA_8
REMARK    2  A    between atoms: N_1  and  C_19
REMARK    3  A    between atoms: CA_10  and  C_15
REMARK    4  A    between atoms: C_15  and  O_16
REMARK    5  A    between atoms: C_19  and  C_20
REMARK    6  A    between atoms: C_20  and  C_21
REMARK    7  A    between atoms: C_21  and  C_22
REMARK    8  A    between atoms: C_22  and  CA_23
REMARK    9  A    between atoms: CA_23  and  N_24
REMARK   10  A    between atoms: CA_23  and  C_29
REMARK   11  A    between atoms: C_29  and  O_30
REMARK                            x       y       z     vdW  Elec       q    Type
REMARK                         _______ _______ _______ _____ _____    ______ ____
ROOT
ATOM      1  N   UNL     1      34.913 -18.946 -20.800  0.00  0.00    -0.362 NA
ATOM      2  H1  UNL     1      33.933 -18.869 -20.780  0.00  0.00    +0.127 HD
ATOM      3  H2  UNL     1      35.081 -19.228 -21.729  0.00  0.00    +0.127 HD
ENDROOT
BRANCH   1   8
ATOM      4  S   UNL     1      34.722 -18.731 -23.854  0.00  0.00    -0.114 S 
ATOM      5  O   UNL     1      34.628 -15.737 -20.298  0.00  0.00    -0.273 OA
ATOM      6  N   UNL     1      34.828 -16.423 -22.545  0.00  0.00    -0.242 N 
ATOM      7  C   UNL     1      35.671 -17.565 -22.851  0.00  0.00    +0.153 C 
ATOM      8  CA  UNL     1      35.703 -17.822 -21.334  0.00  0.00    +0.162 C 
ATOM      9  C   UNL     1      34.984 -16.454 -21.205  0.00  0.00    +0.249 C 
ATOM     10  CA  UNL     1      34.176 -15.693 -23.487  0.00  0.00    +0.124 C 
ATOM     11  C   UNL     1      34.471 -17.534 -25.209  0.00  0.00    +0.083 C 
ATOM     12  C   UNL     1      34.024 -16.147 -24.754  0.00  0.00    -0.013 C 
ATOM     13  C   UNL     1      33.385 -15.362 -25.874  0.00  0.00    +0.029 C 
BRANCH  10  15
ATOM     14  OXT UNL     1      32.476 -14.308 -22.570  0.00  0.00    -0.244 OA
ATOM     15  C   UNL     1      33.585 -14.419 -23.051  0.00  0.00    +0.351 C 
BRANCH  15  16
ATOM     16  O   UNL     1      34.463 -13.421 -23.272  0.00  0.00    -0.476 OA
ATOM     17  H   UNL     1      34.346 -12.591 -22.852  0.00  0.00    +0.295 HD
ENDBRANCH  15  16
ENDBRANCH  10  15
ENDBRANCH   1   8
BRANCH   1  19
ATOM     18  O   UNL     1      36.708 -20.339 -20.331  0.00  0.00    -0.277 OA
ATOM     19  C   UNL     1      35.501 -20.111 -20.323  0.00  0.00    +0.207 C 
BRANCH  19  20
ATOM     20  C   UNL     1      34.465 -21.097 -19.809  0.00  0.00    +0.083 C 
BRANCH  20  21
ATOM     21  C   UNL     1      35.072 -22.347 -19.169  0.00  0.00    +0.008 C 
BRANCH  21  22
ATOM     22  C   UNL     1      35.340 -22.157 -17.668  0.00  0.00    -0.011 C 
BRANCH  22  23
ATOM     23  CA  UNL     1      36.823 -22.036 -17.286  0.00  0.00    +0.036 C 
BRANCH  23  24
ATOM     24  N   UNL     1      37.269 -20.648 -17.178  0.00  0.00    +0.389 N 
ATOM     25  H1  UNL     1      36.462 -20.027 -17.216  0.00  0.00    -0.088 HD
ATOM     26  H2  UNL     1      37.901 -20.432 -17.949  0.00  0.00    -0.088 HD
ATOM     27  H3  UNL     1      37.758 -20.515 -16.291  0.00  0.00    -0.088 HD
ENDBRANCH  23  24
BRANCH  23  29
ATOM     28  OXT UNL     1      36.365 -22.858 -15.032  0.00  0.00    -0.253 OA
ATOM     29  C   UNL     1      37.136 -22.737 -15.976  0.00  0.00    +0.293 C 
BRANCH  29  30
ATOM     30  O   UNL     1      38.400 -23.237 -15.955  0.00  0.00    -0.482 OA
ATOM     31  H   UNL     1      38.800 -23.464 -15.138  0.00  0.00    +0.295 HD
ENDBRANCH  29  30
ENDBRANCH  23  29
ENDBRANCH  22  23
ENDBRANCH  21  22
ENDBRANCH  20  21
ENDBRANCH  19  20
ENDBRANCH   1  19
TORSDOF 11
ENDMDL
MODEL 2
REMARK VINA RESULT:      -8.5      5.421      9.514
REMARK  Name = 160139
REMARK  11 active torsions:
REMARK  status: ('A' for Active; 'I' for Inactive)
REMARK    1  A    between atoms: N_1  and  CA_8
REMARK    2  A    between atoms: N_1  and  C_19
REMARK    3  A    between atoms: CA_10  and  C_15
REMARK    4  A    between atoms: C_15  and  O_16
REMARK    5  A    between atoms: C_19  and  C_20
REMARK    6  A    between atoms: C_20  and  C_21
REMARK    7  A    between atoms: C_21  and  C_22
REMARK    8  A    between atoms: C_22  and  CA_23
REMARK    9  A    between atoms: CA_23  and  N_24
REMARK   10  A    between atoms: CA_23  and  C_29
REMARK   11  A    between atoms: C_29  and  O_30
REMARK                            x       y       z     vdW  Elec       q    Type
REMARK                         _______ _______ _______ _____ _____    ______ ____
ROOT
ATOM      1  N   UNL     1      32.024 -13.209 -22.382  0.00  0.00    -0.362 NA
ATOM      2  H1  UNL     1      31.318 -13.809 -22.712  0.00  0.00    +0.127 HD
ATOM      3  H2  UNL     1      32.497 -13.780 -21.733  0.00  0.00    +0.127 HD
ENDROOT
BRANCH   1   8
ATOM      4  S   UNL     1      33.770 -15.295 -20.963  0.00  0.00    -0.114 S 
ATOM      5  O   UNL     1      32.960 -14.086 -25.379  0.00  0.00    -0.273 OA
ATOM      6  N   UNL     1      34.102 -15.116 -23.592  0.00  0.00    -0.242 N 
ATOM      7  C   UNL     1      34.348 -14.344 -22.388  0.00  0.00    +0.153 C 
ATOM      8  CA  UNL     1      33.372 -13.308 -22.971  0.00  0.00    +0.162 C 
ATOM      9  C   UNL     1      33.413 -14.168 -24.261  0.00  0.00    +0.249 C 
ATOM     10  CA  UNL     1      34.530 -16.393 -23.770  0.00  0.00    +0.124 C 
ATOM     11  C   UNL     1      34.920 -16.677 -21.278  0.00  0.00    +0.083 C 
ATOM     12  C   UNL     1      34.964 -17.145 -22.731  0.00  0.00    -0.013 C 
ATOM     13  C   UNL     1      35.530 -18.539 -22.860  0.00  0.00    +0.029 C 
BRANCH  10  15
ATOM     14  OXT UNL     1      33.658 -17.809 -25.469  0.00  0.00    -0.244 OA
ATOM     15  C   UNL     1      34.439 -16.942 -25.131  0.00  0.00    +0.351 C 
BRANCH  15  16
ATOM     16  O   UNL     1      35.348 -16.335 -25.920  0.00  0.00    -0.476 OA
ATOM     17  H   UNL     1      35.366 -15.400 -25.980  0.00  0.00    +0.295 HD
ENDBRANCH  15  16
ENDBRANCH  10  15
ENDBRANCH   1   8
BRANCH   1  19
ATOM     18  O   UNL     1      32.077 -12.398 -20.209  0.00  0.00    -0.277 OA
ATOM     19  C   UNL     1      31.714 -12.300 -21.378  0.00  0.00    +0.207 C 
BRANCH  19  20
ATOM     20  C   UNL     1      30.838 -11.169 -21.891  0.00  0.00    +0.083 C 
BRANCH  20  21
ATOM     21  C   UNL     1      31.604 -10.117 -22.697  0.00  0.00    +0.008 C 
BRANCH  21  22
ATOM     22  C   UNL     1      32.589  -9.324 -21.825  0.00  0.00    -0.011 C 
BRANCH  22  23
ATOM     23  CA  UNL     1      31.992  -8.756 -20.528  0.00  0.00    +0.036 C 
BRANCH  23  24
ATOM     24  N   UNL     1      32.493  -9.428 -19.331  0.00  0.00    +0.389 N 
ATOM     25  H1  UNL     1      31.941 -10.267 -19.155  0.00  0.00    -0.088 HD
ATOM     26  H2  UNL     1      32.420  -8.799 -18.530  0.00  0.00    -0.088 HD
ATOM     27  H3  UNL     1      33.471  -9.687 -19.470  0.00  0.00    -0.088 HD
ENDBRANCH  23  24
BRANCH  23  29
ATOM     28  OXT UNL     1      31.722  -6.383 -21.038  0.00  0.00    -0.253 OA
ATOM     29  C   UNL     1      32.255  -7.268 -20.380  0.00  0.00    +0.293 C 
BRANCH  29  30
ATOM     30  O   UNL     1      33.170  -7.007 -19.409  0.00  0.00    -0.482 OA
ATOM     31  H   UNL     1      33.133  -6.198 -18.937  0.00  0.00    +0.295 HD
ENDBRANCH  29  30
ENDBRANCH  23  29
ENDBRANCH  22  23
ENDBRANCH  21  22
ENDBRANCH  20  21
ENDBRANCH  19  20
ENDBRANCH   1  19
TORSDOF 11
ENDMDL
MODEL 3
REMARK VINA RESULT:      -8.5      7.571      9.391
REMARK  Name = 160139
REMARK  11 active torsions:
REMARK  status: ('A' for Active; 'I' for Inactive)
REMARK    1  A    between atoms: N_1  and  CA_8
REMARK    2  A    between atoms: N_1  and  C_19
REMARK    3  A    between atoms: CA_10  and  C_15
REMARK    4  A    between atoms: C_15  and  O_16
REMARK    5  A    between atoms: C_19  and  C_20
REMARK    6  A    between atoms: C_20  and  C_21
REMARK    7  A    between atoms: C_21  and  C_22
REMARK    8  A    between atoms: C_22  and  CA_23
REMARK    9  A    between atoms: CA_23  and  N_24
REMARK   10  A    between atoms: CA_23  and  C_29
REMARK   11  A    between atoms: C_29  and  O_30
REMARK                            x       y       z     vdW  Elec       q    Type
REMARK                         _______ _______ _______ _____ _____    ______ ____
ROOT
ATOM      1  N   UNL     1      34.598 -23.687 -12.745  0.00  0.00    -0.362 NA
ATOM      2  H1  UNL     1      34.224 -22.777 -12.728  0.00  0.00    +0.127 HD
ATOM      3  H2  UNL     1      33.910 -24.204 -12.266  0.00  0.00    +0.127 HD
ENDROOT
BRANCH   1   8
ATOM      4  S   UNL     1      31.574 -23.493 -13.225  0.00  0.00    -0.114 S 
ATOM      5  O   UNL     1      35.349 -23.885 -15.911  0.00  0.00    -0.273 OA
ATOM      6  N   UNL     1      33.052 -23.954 -15.383  0.00  0.00    -0.242 N 
ATOM      7  C   UNL     1      32.641 -24.615 -14.157  0.00  0.00    +0.153 C 
ATOM      8  CA  UNL     1      34.132 -24.627 -13.780  0.00  0.00    +0.162 C 
ATOM      9  C   UNL     1      34.383 -24.120 -15.224  0.00  0.00    +0.249 C 
ATOM     10  CA  UNL     1      32.185 -23.405 -16.272  0.00  0.00    +0.124 C 
ATOM     11  C   UNL     1      30.321 -23.405 -14.549  0.00  0.00    +0.083 C 
ATOM     12  C   UNL     1      30.891 -23.173 -15.946  0.00  0.00    -0.013 C 
ATOM     13  C   UNL     1      29.849 -22.644 -16.902  0.00  0.00    +0.029 C 
BRANCH  10  15
ATOM     14  OXT UNL     1      32.553 -21.932 -18.100  0.00  0.00    -0.244 OA
ATOM     15  C   UNL     1      32.730 -23.015 -17.580  0.00  0.00    +0.351 C 
BRANCH  15  16
ATOM     16  O   UNL     1      33.441 -24.039 -18.092  0.00  0.00    -0.476 OA
ATOM     17  H   UNL     1      33.563 -24.822 -17.590  0.00  0.00    +0.295 HD
ENDBRANCH  15  16
ENDBRANCH  10  15
ENDBRANCH   1   8
BRANCH   1  19
ATOM     18  O   UNL     1      35.360 -24.841 -10.882  0.00  0.00    -0.277 OA
ATOM     19  C   UNL     1      35.546 -24.036 -11.791  0.00  0.00    +0.207 C 
BRANCH  19  20
ATOM     20  C   UNL     1      36.849 -23.279 -11.985  0.00  0.00    +0.083 C 
BRANCH  20  21
ATOM     21  C   UNL     1      37.641 -23.725 -13.216  0.00  0.00    +0.008 C 
BRANCH  21  22
ATOM     22  C   UNL     1      38.380 -25.051 -12.979  0.00  0.00    -0.011 C 
BRANCH  22  23
ATOM     23  CA  UNL     1      38.751 -25.821 -14.256  0.00  0.00    +0.036 C 
BRANCH  23  24
ATOM     24  N   UNL     1      37.773 -25.645 -15.329  0.00  0.00    +0.389 N 
ATOM     25  H1  UNL     1      37.824 -26.437 -15.969  0.00  0.00    -0.088 HD
ATOM     26  H2  UNL     1      37.976 -24.783 -15.837  0.00  0.00    -0.088 HD
ATOM     27  H3  UNL     1      36.836 -25.589 -14.929  0.00  0.00    -0.088 HD
ENDBRANCH  23  24
BRANCH  23  29
ATOM     28  OXT UNL     1      40.921 -24.701 -14.213  0.00  0.00    -0.253 OA
ATOM     29  C   UNL     1      40.115 -25.421 -14.789  0.00  0.00    +0.293 C 
BRANCH  29  30
ATOM     30  O   UNL     1      40.363 -25.963 -16.011  0.00  0.00    -0.482 OA
ATOM     31  H   UNL     1      40.480 -25.405 -16.756  0.00  0.00    +0.295 HD
ENDBRANCH  29  30
ENDBRANCH  23  29
ENDBRANCH  22  23
ENDBRANCH  21  22
ENDBRANCH  20  21
ENDBRANCH  19  20
ENDBRANCH   1  19
TORSDOF 11
ENDMDL
MODEL 4
REMARK VINA RESULT:      -8.3      1.805      2.108
REMARK  Name = 160139
REMARK  11 active torsions:
REMARK  status: ('A' for Active; 'I' for Inactive)
REMARK    1  A    between atoms: N_1  and  CA_8
REMARK    2  A    between atoms: N_1  and  C_19
REMARK    3  A    between atoms: CA_10  and  C_15
REMARK    4  A    between atoms: C_15  and  O_16
REMARK    5  A    between atoms: C_19  and  C_20
REMARK    6  A    between atoms: C_20  and  C_21
REMARK    7  A    between atoms: C_21  and  C_22
REMARK    8  A    between atoms: C_22  and  CA_23
REMARK    9  A    between atoms: CA_23  and  N_24
REMARK   10  A    between atoms: CA_23  and  C_29
REMARK   11  A    between atoms: C_29  and  O_30
REMARK                            x       y       z     vdW  Elec       q    Type
REMARK                         _______ _______ _______ _____ _____    ______ ____
ROOT
ATOM      1  N   UNL     1      34.983 -19.684 -21.370  0.00  0.00    -0.362 NA
ATOM      2  H1  UNL     1      34.242 -19.955 -21.958  0.00  0.00    +0.127 HD
ATOM      3  H2  UNL     1      35.757 -20.118 -21.798  0.00  0.00    +0.127 HD
ENDROOT
BRANCH   1   8
ATOM      4  S   UNL     1      34.646 -18.955 -24.331  0.00  0.00    -0.114 S 
ATOM      5  O   UNL     1      34.933 -16.591 -20.338  0.00  0.00    -0.273 OA
ATOM      6  N   UNL     1      34.969 -16.905 -22.674  0.00  0.00    -0.242 N 
ATOM      7  C   UNL     1      35.719 -18.025 -23.213  0.00  0.00    +0.153 C 
ATOM      8  CA  UNL     1      35.815 -18.532 -21.764  0.00  0.00    +0.162 C 
ATOM      9  C   UNL     1      35.193 -17.167 -21.369  0.00  0.00    +0.249 C 
ATOM     10  CA  UNL     1      34.317 -15.995 -23.442  0.00  0.00    +0.124 C 
ATOM     11  C   UNL     1      34.401 -17.538 -25.456  0.00  0.00    +0.083 C 
ATOM     12  C   UNL     1      34.070 -16.223 -24.754  0.00  0.00    -0.013 C 
ATOM     13  C   UNL     1      33.425 -15.229 -25.690  0.00  0.00    +0.029 C 
BRANCH  10  15
ATOM     14  OXT UNL     1      32.744 -14.676 -22.243  0.00  0.00    -0.244 OA
ATOM     15  C   UNL     1      33.834 -14.780 -22.769  0.00  0.00    +0.351 C 
BRANCH  15  16
ATOM     16  O   UNL     1      34.782 -13.825 -22.836  0.00  0.00    -0.476 OA
ATOM     17  H   UNL     1      35.189 -13.624 -23.656  0.00  0.00    +0.295 HD
ENDBRANCH  15  16
ENDBRANCH  10  15
ENDBRANCH   1   8
BRANCH   1  19
ATOM     18  O   UNL     1      36.270 -20.422 -19.586  0.00  0.00    -0.277 OA
ATOM     19  C   UNL     1      35.207 -20.401 -20.201  0.00  0.00    +0.207 C 
BRANCH  19  20
ATOM     20  C   UNL     1      33.978 -21.189 -19.779  0.00  0.00    +0.083 C 
BRANCH  20  21
ATOM     21  C   UNL     1      34.305 -22.453 -18.981  0.00  0.00    +0.008 C 
BRANCH  21  22
ATOM     22  C   UNL     1      33.243 -22.751 -17.910  0.00  0.00    -0.011 C 
BRANCH  22  23
ATOM     23  CA  UNL     1      33.767 -23.491 -16.670  0.00  0.00    +0.036 C 
BRANCH  23  24
ATOM     24  N   UNL     1      35.046 -22.965 -16.194  0.00  0.00    +0.389 N 
ATOM     25  H1  UNL     1      35.557 -23.701 -15.708  0.00  0.00    -0.088 HD
ATOM     26  H2  UNL     1      34.879 -22.188 -15.554  0.00  0.00    -0.088 HD
ATOM     27  H3  UNL     1      35.596 -22.637 -16.989  0.00  0.00    -0.088 HD
ENDBRANCH  23  24
BRANCH  23  29
ATOM     28  OXT UNL     1      31.627 -23.856 -15.552  0.00  0.00    -0.253 OA
ATOM     29  C   UNL     1      32.780 -23.446 -15.517  0.00  0.00    +0.293 C 
BRANCH  29  30
ATOM     30  O   UNL     1      33.324 -22.889 -14.402  0.00  0.00    -0.482 OA
ATOM     31  H   UNL     1      33.826 -22.100 -14.470  0.00  0.00    +0.295 HD
ENDBRANCH  29  30
ENDBRANCH  23  29
ENDBRANCH  22  23
ENDBRANCH  21  22
ENDBRANCH  20  21
ENDBRANCH  19  20
ENDBRANCH   1  19
TORSDOF 11
ENDMDL
MODEL 5
REMARK VINA RESULT:      -8.3      6.043      8.319
REMARK  Name = 160139
REMARK  11 active torsions:
REMARK  status: ('A' for Active; 'I' for Inactive)
REMARK    1  A    between atoms: N_1  and  CA_8
REMARK    2  A    between atoms: N_1  and  C_19
REMARK    3  A    between atoms: CA_10  and  C_15
REMARK    4  A    between atoms: C_15  and  O_16
REMARK    5  A    between atoms: C_19  and  C_20
REMARK    6  A    between atoms: C_20  and  C_21
REMARK    7  A    between atoms: C_21  and  C_22
REMARK    8  A    between atoms: C_22  and  CA_23
REMARK    9  A    between atoms: CA_23  and  N_24
REMARK   10  A    between atoms: CA_23  and  C_29
REMARK   11  A    between atoms: C_29  and  O_30
REMARK                            x       y       z     vdW  Elec       q    Type
REMARK                         _______ _______ _______ _____ _____    ______ ____
ROOT
ATOM      1  N   UNL     1      35.259 -24.271 -14.014  0.00  0.00    -0.362 NA
ATOM      2  H1  UNL     1      35.556 -24.975 -14.633  0.00  0.00    +0.127 HD
ATOM      3  H2  UNL     1      35.979 -23.604 -14.096  0.00  0.00    +0.127 HD
ENDROOT
BRANCH   1   8
ATOM      4  S   UNL     1      37.072 -22.499 -15.742  0.00  0.00    -0.114 S 
ATOM      5  O   UNL     1      32.720 -24.107 -16.054  0.00  0.00    -0.273 OA
ATOM      6  N   UNL     1      34.559 -22.725 -16.572  0.00  0.00    -0.242 N 
ATOM      7  C   UNL     1      35.319 -22.141 -15.481  0.00  0.00    +0.153 C 
ATOM      8  CA  UNL     1      34.546 -23.101 -14.560  0.00  0.00    +0.162 C 
ATOM      9  C   UNL     1      33.696 -23.434 -15.814  0.00  0.00    +0.249 C 
ATOM     10  CA  UNL     1      34.819 -22.488 -17.884  0.00  0.00    +0.124 C 
ATOM     11  C   UNL     1      37.133 -21.603 -17.331  0.00  0.00    +0.083 C 
ATOM     12  C   UNL     1      35.984 -21.924 -18.283  0.00  0.00    -0.013 C 
ATOM     13  C   UNL     1      36.311 -21.555 -19.711  0.00  0.00    +0.029 C 
BRANCH  10  15
ATOM     14  OXT UNL     1      33.939 -23.884 -19.595  0.00  0.00    -0.244 OA
ATOM     15  C   UNL     1      33.807 -22.931 -18.854  0.00  0.00    +0.351 C 
BRANCH  15  16
ATOM     16  O   UNL     1      32.734 -22.118 -18.783  0.00  0.00    -0.476 OA
ATOM     17  H   UNL     1      32.481 -21.609 -19.528  0.00  0.00    +0.295 HD
ENDBRANCH  15  16
ENDBRANCH  10  15
ENDBRANCH   1   8
BRANCH   1  19
ATOM     18  O   UNL     1      34.793 -24.991 -11.859  0.00  0.00    -0.277 OA
ATOM     19  C   UNL     1      35.526 -24.416 -12.659  0.00  0.00    +0.207 C 
BRANCH  19  20
ATOM     20  C   UNL     1      36.834 -23.748 -12.267  0.00  0.00    +0.083 C 
BRANCH  20  21
ATOM     21  C   UNL     1      37.982 -24.734 -12.038  0.00  0.00    +0.008 C 
BRANCH  21  22
ATOM     22  C   UNL     1      39.004 -24.707 -13.185  0.00  0.00    -0.011 C 
BRANCH  22  23
ATOM     23  CA  UNL     1      38.975 -25.937 -14.106  0.00  0.00    +0.036 C 
BRANCH  23  24
ATOM     24  N   UNL     1      37.994 -25.814 -15.184  0.00  0.00    +0.389 N 
ATOM     25  H1  UNL     1      38.450 -25.987 -16.079  0.00  0.00    -0.088 HD
ATOM     26  H2  UNL     1      37.600 -24.873 -15.180  0.00  0.00    -0.088 HD
ATOM     27  H3  UNL     1      37.247 -26.495 -15.045  0.00  0.00    -0.088 HD
ENDBRANCH  23  24
BRANCH  23  29
ATOM     28  OXT UNL     1      41.291 -26.708 -14.150  0.00  0.00    -0.253 OA
ATOM     29  C   UNL     1      40.329 -26.219 -14.730  0.00  0.00    +0.293 C 
BRANCH  29  30
ATOM     30  O   UNL     1      40.370 -25.866 -16.042  0.00  0.00    -0.482 OA
ATOM     31  H   UNL     1      41.190 -25.845 -16.496  0.00  0.00    +0.295 HD
ENDBRANCH  29  30
ENDBRANCH  23  29
ENDBRANCH  22  23
ENDBRANCH  21  22
ENDBRANCH  20  21
ENDBRANCH  19  20
ENDBRANCH   1  19
TORSDOF 11
ENDMDL
MODEL 6
REMARK VINA RESULT:      -8.3      5.906      9.069
REMARK  Name = 160139
REMARK  11 active torsions:
REMARK  status: ('A' for Active; 'I' for Inactive)
REMARK    1  A    between atoms: N_1  and  CA_8
REMARK    2  A    between atoms: N_1  and  C_19
REMARK    3  A    between atoms: CA_10  and  C_15
REMARK    4  A    between atoms: C_15  and  O_16
REMARK    5  A    between atoms: C_19  and  C_20
REMARK    6  A    between atoms: C_20  and  C_21
REMARK    7  A    between atoms: C_21  and  C_22
REMARK    8  A    between atoms: C_22  and  CA_23
REMARK    9  A    between atoms: CA_23  and  N_24
REMARK   10  A    between atoms: CA_23  and  C_29
REMARK   11  A    between atoms: C_29  and  O_30
REMARK                            x       y       z     vdW  Elec       q    Type
REMARK                         _______ _______ _______ _____ _____    ______ ____
ROOT
ATOM      1  N   UNL     1      32.769 -23.150 -14.305  0.00  0.00    -0.362 NA
ATOM      2  H1  UNL     1      32.822 -22.168 -14.333  0.00  0.00    +0.127 HD
ATOM      3  H2  UNL     1      32.360 -23.361 -15.176  0.00  0.00    +0.127 HD
ENDROOT
BRANCH   1   8
ATOM      4  S   UNL     1      32.728 -22.825 -17.356  0.00  0.00    -0.114 S 
ATOM      5  O   UNL     1      36.015 -22.951 -14.069  0.00  0.00    -0.273 OA
ATOM      6  N   UNL     1      35.136 -23.036 -16.256  0.00  0.00    -0.242 N 
ATOM      7  C   UNL     1      33.953 -23.841 -16.498  0.00  0.00    +0.153 C 
ATOM      8  CA  UNL     1      33.825 -23.936 -14.968  0.00  0.00    +0.162 C 
ATOM      9  C   UNL     1      35.215 -23.251 -14.925  0.00  0.00    +0.249 C 
ATOM     10  CA  UNL     1      35.798 -22.356 -17.227  0.00  0.00    +0.124 C 
ATOM     11  C   UNL     1      33.811 -22.537 -18.796  0.00  0.00    +0.083 C 
ATOM     12  C   UNL     1      35.242 -22.139 -18.442  0.00  0.00    -0.013 C 
ATOM     13  C   UNL     1      35.944 -21.465 -19.598  0.00  0.00    +0.029 C 
BRANCH  10  15
ATOM     14  OXT UNL     1      37.408 -20.633 -16.930  0.00  0.00    -0.244 OA
ATOM     15  C   UNL     1      37.118 -21.811 -16.877  0.00  0.00    +0.351 C 
BRANCH  15  16
ATOM     16  O   UNL     1      37.931 -22.817 -16.499  0.00  0.00    -0.476 OA
ATOM     17  H   UNL     1      38.538 -22.691 -15.795  0.00  0.00    +0.295 HD
ENDBRANCH  15  16
ENDBRANCH  10  15
ENDBRANCH   1   8
BRANCH   1  19
ATOM     18  O   UNL     1      31.083 -23.229 -12.713  0.00  0.00    -0.277 OA
ATOM     19  C   UNL     1      31.701 -23.742 -13.642  0.00  0.00    +0.207 C 
BRANCH  19  20
ATOM     20  C   UNL     1      31.398 -25.129 -14.186  0.00  0.00    +0.083 C 
BRANCH  20  21
ATOM     21  C   UNL     1      29.955 -25.297 -14.668  0.00  0.00    +0.008 C 
BRANCH  21  22
ATOM     22  C   UNL     1      29.641 -24.404 -15.878  0.00  0.00    -0.011 C 
BRANCH  22  23
ATOM     23  CA  UNL     1      28.559 -23.341 -15.633  0.00  0.00    +0.036 C 
BRANCH  23  24
ATOM     24  N   UNL     1      29.078 -22.147 -14.967  0.00  0.00    +0.389 N 
ATOM     25  H1  UNL     1      28.925 -22.224 -13.962  0.00  0.00    -0.088 HD
ATOM     26  H2  UNL     1      28.594 -21.321 -15.322  0.00  0.00    -0.088 HD
ATOM     27  H3  UNL     1      30.077 -22.060 -15.154  0.00  0.00    -0.088 HD
ENDBRANCH  23  24
BRANCH  23  29
ATOM     28  OXT UNL     1      27.590 -21.755 -17.217  0.00  0.00    -0.253 OA
ATOM     29  C   UNL     1      27.880 -22.907 -16.920  0.00  0.00    +0.293 C 
BRANCH  29  30
ATOM     30  O   UNL     1      27.622 -23.960 -17.740  0.00  0.00    -0.482 OA
ATOM     31  H   UNL     1      27.084 -23.842 -18.498  0.00  0.00    +0.295 HD
ENDBRANCH  29  30
ENDBRANCH  23  29
ENDBRANCH  22  23
ENDBRANCH  21  22
ENDBRANCH  20  21
ENDBRANCH  19  20
ENDBRANCH   1  19
TORSDOF 11
ENDMDL
MODEL 7
REMARK VINA RESULT:      -8.2      8.619      9.785
REMARK  Name = 160139
REMARK  11 active torsions:
REMARK  status: ('A' for Active; 'I' for Inactive)
REMARK    1  A    between atoms: N_1  and  CA_8
REMARK    2  A    between atoms: N_1  and  C_19
REMARK    3  A    between atoms: CA_10  and  C_15
REMARK    4  A    between atoms: C_15  and  O_16
REMARK    5  A    between atoms: C_19  and  C_20
REMARK    6  A    between atoms: C_20  and  C_21
REMARK    7  A    between atoms: C_21  and  C_22
REMARK    8  A    between atoms: C_22  and  CA_23
REMARK    9  A    between atoms: CA_23  and  N_24
REMARK   10  A    between atoms: CA_23  and  C_29
REMARK   11  A    between atoms: C_29  and  O_30
REMARK                            x       y       z     vdW  Elec       q    Type
REMARK                         _______ _______ _______ _____ _____    ______ ____
ROOT
ATOM      1  N   UNL     1      35.396 -24.987 -15.756  0.00  0.00    -0.362 NA
ATOM      2  H1  UNL     1      35.006 -25.157 -16.643  0.00  0.00    +0.127 HD
ATOM      3  H2  UNL     1      36.055 -24.281 -15.951  0.00  0.00    +0.127 HD
ENDROOT
BRANCH   1   8
ATOM      4  S   UNL     1      33.202 -23.424 -17.224  0.00  0.00    -0.114 S 
ATOM      5  O   UNL     1      33.863 -24.940 -12.879  0.00  0.00    -0.273 OA
ATOM      6  N   UNL     1      32.883 -23.658 -14.598  0.00  0.00    -0.242 N 
ATOM      7  C   UNL     1      33.753 -22.999 -15.556  0.00  0.00    +0.153 C 
ATOM      8  CA  UNL     1      34.888 -23.853 -14.963  0.00  0.00    +0.162 C 
ATOM      9  C   UNL     1      33.852 -24.274 -13.889  0.00  0.00    +0.249 C 
ATOM     10  CA  UNL     1      31.530 -23.546 -14.607  0.00  0.00    +0.124 C 
ATOM     11  C   UNL     1      31.553 -22.675 -16.991  0.00  0.00    +0.083 C 
ATOM     12  C   UNL     1      30.868 -23.051 -15.680  0.00  0.00    -0.013 C 
ATOM     13  C   UNL     1      29.376 -22.820 -15.734  0.00  0.00    +0.029 C 
BRANCH  10  15
ATOM     14  OXT UNL     1      30.689 -23.431 -12.387  0.00  0.00    -0.244 OA
ATOM     15  C   UNL     1      30.812 -24.047 -13.425  0.00  0.00    +0.351 C 
BRANCH  15  16
ATOM     16  O   UNL     1      30.328 -25.278 -13.685  0.00  0.00    -0.476 OA
ATOM     17  H   UNL     1      29.557 -25.581 -13.247  0.00  0.00    +0.295 HD
ENDBRANCH  15  16
ENDBRANCH  10  15
ENDBRANCH   1   8
BRANCH   1  19
ATOM     18  O   UNL     1      36.342 -27.051 -15.279  0.00  0.00    -0.277 OA
ATOM     19  C   UNL     1      36.406 -25.824 -15.298  0.00  0.00    +0.207 C 
BRANCH  19  20
ATOM     20  C   UNL     1      37.604 -25.039 -14.791  0.00  0.00    +0.083 C 
BRANCH  20  21
ATOM     21  C   UNL     1      38.454 -25.805 -13.775  0.00  0.00    +0.008 C 
BRANCH  21  22
ATOM     22  C   UNL     1      37.906 -25.673 -12.346  0.00  0.00    -0.011 C 
BRANCH  22  23
ATOM     23  CA  UNL     1      37.089 -24.398 -12.082  0.00  0.00    +0.036 C 
BRANCH  23  24
ATOM     24  N   UNL     1      36.058 -24.587 -11.062  0.00  0.00    +0.389 N 
ATOM     25  H1  UNL     1      35.208 -24.942 -11.498  0.00  0.00    -0.088 HD
ATOM     26  H2  UNL     1      35.860 -23.694 -10.608  0.00  0.00    -0.088 HD
ATOM     27  H3  UNL     1      36.388 -25.255 -10.364  0.00  0.00    -0.088 HD
ENDBRANCH  23  24
BRANCH  23  29
ATOM     28  OXT UNL     1      39.189 -23.212 -11.703  0.00  0.00    -0.253 OA
ATOM     29  C   UNL     1      37.965 -23.233 -11.660  0.00  0.00    +0.293 C 
BRANCH  29  30
ATOM     30  O   UNL     1      37.232 -22.178 -11.217  0.00  0.00    -0.482 OA
ATOM     31  H   UNL     1      36.454 -22.326 -10.715  0.00  0.00    +0.295 HD
ENDBRANCH  29  30
ENDBRANCH  23  29
ENDBRANCH  22  23
ENDBRANCH  21  22
ENDBRANCH  20  21
ENDBRANCH  19  20
ENDBRANCH   1  19
TORSDOF 11
ENDMDL
MODEL 8
REMARK VINA RESULT:      -8.1      5.466      9.627
REMARK  Name = 160139
REMARK  11 active torsions:
REMARK  status: ('A' for Active; 'I' for Inactive)
REMARK    1  A    between atoms: N_1  and  CA_8
REMARK    2  A    between atoms: N_1  and  C_19
REMARK    3  A    between atoms: CA_10  and  C_15
REMARK    4  A    between atoms: C_15  and  O_16
REMARK    5  A    between atoms: C_19  and  C_20
REMARK    6  A    between atoms: C_20  and  C_21
REMARK    7  A    between atoms: C_21  and  C_22
REMARK    8  A    between atoms: C_22  and  CA_23
REMARK    9  A    between atoms: CA_23  and  N_24
REMARK   10  A    between atoms: CA_23  and  C_29
REMARK   11  A    between atoms: C_29  and  O_30
REMARK                            x       y       z     vdW  Elec       q    Type
REMARK                         _______ _______ _______ _____ _____    ______ ____
ROOT
ATOM      1  N   UNL     1      32.047 -13.246 -22.367  0.00  0.00    -0.362 NA
ATOM      2  H1  UNL     1      31.355 -13.887 -22.645  0.00  0.00    +0.127 HD
ATOM      3  H2  UNL     1      32.546 -13.759 -21.690  0.00  0.00    +0.127 HD
ENDROOT
BRANCH   1   8
ATOM      4  S   UNL     1      33.798 -15.355 -20.989  0.00  0.00    -0.114 S 
ATOM      5  O   UNL     1      32.950 -14.095 -25.383  0.00  0.00    -0.273 OA
ATOM      6  N   UNL     1      34.105 -15.149 -23.618  0.00  0.00    -0.242 N 
ATOM      7  C   UNL     1      34.366 -14.391 -22.408  0.00  0.00    +0.153 C 
ATOM      8  CA  UNL     1      33.388 -13.345 -22.971  0.00  0.00    +0.162 C 
ATOM      9  C   UNL     1      33.413 -14.190 -24.270  0.00  0.00    +0.249 C 
ATOM     10  CA  UNL     1      34.525 -16.426 -23.815  0.00  0.00    +0.124 C 
ATOM     11  C   UNL     1      34.938 -16.739 -21.330  0.00  0.00    +0.083 C 
ATOM     12  C   UNL     1      34.966 -17.191 -22.788  0.00  0.00    -0.013 C 
ATOM     13  C   UNL     1      35.525 -18.586 -22.938  0.00  0.00    +0.029 C 
BRANCH  10  15
ATOM     14  OXT UNL     1      33.540 -17.710 -25.555  0.00  0.00    -0.244 OA
ATOM     15  C   UNL     1      34.418 -16.960 -25.181  0.00  0.00    +0.351 C 
BRANCH  15  16
ATOM     16  O   UNL     1      35.436 -16.486 -25.926  0.00  0.00    -0.476 OA
ATOM     17  H   UNL     1      35.602 -16.847 -26.776  0.00  0.00    +0.295 HD
ENDBRANCH  15  16
ENDBRANCH  10  15
ENDBRANCH   1   8
BRANCH   1  19
ATOM     18  O   UNL     1      31.971 -12.370 -20.220  0.00  0.00    -0.277 OA
ATOM     19  C   UNL     1      31.723 -12.282 -21.420  0.00  0.00    +0.207 C 
BRANCH  19  20
ATOM     20  C   UNL     1      30.994 -11.103 -22.042  0.00  0.00    +0.083 C 
BRANCH  20  21
ATOM     21  C   UNL     1      31.801  -9.803 -22.024  0.00  0.00    +0.008 C 
BRANCH  21  22
ATOM     22  C   UNL     1      32.086  -9.280 -23.440  0.00  0.00    -0.011 C 
BRANCH  22  23
ATOM     23  CA  UNL     1      33.048  -8.084 -23.505  0.00  0.00    +0.036 C 
BRANCH  23  24
ATOM     24  N   UNL     1      32.896  -7.171 -22.372  0.00  0.00    +0.389 N 
ATOM     25  H1  UNL     1      32.328  -7.616 -21.651  0.00  0.00    -0.088 HD
ATOM     26  H2  UNL     1      32.439  -6.314 -22.684  0.00  0.00    -0.088 HD
ATOM     27  H3  UNL     1      33.815  -6.946 -21.990  0.00  0.00    -0.088 HD
ENDBRANCH  23  24
BRANCH  23  29
ATOM     28  OXT UNL     1      34.898  -9.619 -23.935  0.00  0.00    -0.253 OA
ATOM     29  C   UNL     1      34.501  -8.519 -23.568  0.00  0.00    +0.293 C 
BRANCH  29  30
ATOM     30  O   UNL     1      35.347  -7.534 -23.167  0.00  0.00    -0.482 OA
ATOM     31  H   UNL     1      35.023  -6.663 -23.038  0.00  0.00    +0.295 HD
ENDBRANCH  29  30
ENDBRANCH  23  29
ENDBRANCH  22  23
ENDBRANCH  21  22
ENDBRANCH  20  21
ENDBRANCH  19  20
ENDBRANCH   1  19
TORSDOF 11
ENDMDL
MODEL 9
REMARK VINA RESULT:      -8.0      4.890      6.812
REMARK  Name = 160139
REMARK  11 active torsions:
REMARK  status: ('A' for Active; 'I' for Inactive)
REMARK    1  A    between atoms: N_1  and  CA_8
REMARK    2  A    between atoms: N_1  and  C_19
REMARK    3  A    between atoms: CA_10  and  C_15
REMARK    4  A    between atoms: C_15  and  O_16
REMARK    5  A    between atoms: C_19  and  C_20
REMARK    6  A    between atoms: C_20  and  C_21
REMARK    7  A    between atoms: C_21  and  C_22
REMARK    8  A    between atoms: C_22  and  CA_23
REMARK    9  A    between atoms: CA_23  and  N_24
REMARK   10  A    between atoms: CA_23  and  C_29
REMARK   11  A    between atoms: C_29  and  O_30
REMARK                            x       y       z     vdW  Elec       q    Type
REMARK                         _______ _______ _______ _____ _____    ______ ____
ROOT
ATOM      1  N   UNL     1      32.924 -14.133 -20.873  0.00  0.00    -0.362 NA
ATOM      2  H1  UNL     1      32.569 -13.691 -20.069  0.00  0.00    +0.127 HD
ATOM      3  H2  UNL     1      32.276 -14.863 -21.011  0.00  0.00    +0.127 HD
ENDROOT
BRANCH   1   8
ATOM      4  S   UNL     1      31.742 -11.303 -20.932  0.00  0.00    -0.114 S 
ATOM      5  O   UNL     1      34.327 -13.887 -23.806  0.00  0.00    -0.273 OA
ATOM      6  N   UNL     1      32.926 -12.099 -23.172  0.00  0.00    -0.242 N 
ATOM      7  C   UNL     1      31.746 -12.389 -22.377  0.00  0.00    +0.153 C 
ATOM      8  CA  UNL     1      32.342 -13.795 -22.184  0.00  0.00    +0.162 C 
ATOM      9  C   UNL     1      33.403 -13.361 -23.229  0.00  0.00    +0.249 C 
ATOM     10  CA  UNL     1      33.253 -10.857 -23.612  0.00  0.00    +0.124 C 
ATOM     11  C   UNL     1      31.677  -9.781 -21.938  0.00  0.00    +0.083 C 
ATOM     12  C   UNL     1      32.665  -9.749 -23.102  0.00  0.00    -0.013 C 
ATOM     13  C   UNL     1      32.914  -8.343 -23.594  0.00  0.00    +0.029 C 
BRANCH  10  15
ATOM     14  OXT UNL     1      34.213 -11.154 -25.766  0.00  0.00    -0.244 OA
ATOM     15  C   UNL     1      34.319 -10.766 -24.620  0.00  0.00    +0.351 C 
BRANCH  15  16
ATOM     16  O   UNL     1      35.408 -10.195 -24.069  0.00  0.00    -0.476 OA
ATOM     17  H   UNL     1      36.149  -9.984 -24.603  0.00  0.00    +0.295 HD
ENDBRANCH  15  16
ENDBRANCH  10  15
ENDBRANCH   1   8
BRANCH   1  19
ATOM     18  O   UNL     1      35.045 -14.810 -20.221  0.00  0.00    -0.277 OA
ATOM     19  C   UNL     1      33.954 -15.054 -20.729  0.00  0.00    +0.207 C 
BRANCH  19  20
ATOM     20  C   UNL     1      33.583 -16.411 -21.304  0.00  0.00    +0.083 C 
BRANCH  20  21
ATOM     21  C   UNL     1      34.680 -17.466 -21.146  0.00  0.00    +0.008 C 
BRANCH  21  22
ATOM     22  C   UNL     1      35.708 -17.406 -22.287  0.00  0.00    -0.011 C 
BRANCH  22  23
ATOM     23  CA  UNL     1      35.424 -18.355 -23.462  0.00  0.00    +0.036 C 
BRANCH  23  24
ATOM     24  N   UNL     1      34.521 -19.448 -23.103  0.00  0.00    +0.389 N 
ATOM     25  H1  UNL     1      34.674 -19.709 -22.129  0.00  0.00    -0.088 HD
ATOM     26  H2  UNL     1      34.705 -20.253 -23.703  0.00  0.00    -0.088 HD
ATOM     27  H3  UNL     1      33.554 -19.146 -23.226  0.00  0.00    -0.088 HD
ENDBRANCH  23  24
BRANCH  23  29
ATOM     28  OXT UNL     1      34.060 -18.112 -25.473  0.00  0.00    -0.253 OA
ATOM     29  C   UNL     1      34.832 -17.627 -24.655  0.00  0.00    +0.293 C 
BRANCH  29  30
ATOM     30  O   UNL     1      35.255 -16.337 -24.727  0.00  0.00    -0.482 OA
ATOM     31  H   UNL     1      35.555 -15.987 -25.543  0.00  0.00    +0.295 HD
ENDBRANCH  29  30
ENDBRANCH  23  29
ENDBRANCH  22  23
ENDBRANCH  21  22
ENDBRANCH  20  21
ENDBRANCH  19  20
ENDBRANCH   1  19
TORSDOF 11
ENDMDL
