MODEL 1
REMARK VINA RESULT:      -8.7      0.000      0.000
REMARK  Name = 449242
REMARK  12 active torsions:
REMARK  status: ('A' for Active; 'I' for Inactive)
REMARK    1  A    between atoms: P_1  and  O_3
REMARK    2  A    between atoms: P_1  and  O_5
REMARK    3  A    between atoms: P_1  and  C_16
REMARK    4  A    between atoms: O_5  and  C_6
REMARK    5  A    between atoms: C_6  and  C_7
REMARK    6  A    between atoms: C_12  and  N_15
REMARK    7  A    between atoms: C_16  and  C_17
REMARK    8  A    between atoms: C_17  and  C_18
REMARK    9  A    between atoms: C_18  and  C_21
REMARK   10  A    between atoms: N_20  and  C_23
REMARK   11  A    between atoms: C_23  and  C_25
REMARK   12  A    between atoms: C_25  and  O_26
REMARK                            x       y       z     vdW  Elec       q    Type
REMARK                         _______ _______ _______ _____ _____    ______ ____
ROOT
ATOM      1  P   UNL     1      35.814 -23.644 -15.357  0.00  0.00    +0.340 P 
ATOM      2  O   UNL     1      37.249 -23.268 -15.506  0.00  0.00    -0.258 OA
ENDROOT
BRANCH   1   3
ATOM      3  O   UNL     1      35.468 -25.171 -15.738  0.00  0.00    -0.323 OA
ATOM      4  H   UNL     1      35.173 -25.215 -16.661  0.00  0.00    +0.220 HD
ENDBRANCH   1   3
BRANCH   1   5
ATOM      5  O   UNL     1      34.779 -22.759 -16.217  0.00  0.00    -0.289 OA
BRANCH   5   6
ATOM      6  C   UNL     1      34.231 -23.235 -17.433  0.00  0.00    +0.178 C 
BRANCH   6   7
ATOM      7  C   UNL     1      34.468 -22.217 -18.509  0.00  0.00    +0.008 C 
ATOM      8  C   UNL     1      33.387 -21.637 -19.171  0.00  0.00    -0.000 C 
ATOM      9  C   UNL     1      35.771 -21.847 -18.845  0.00  0.00    -0.000 C 
ATOM     10  C   UNL     1      33.607 -20.689 -20.171  0.00  0.00    +0.024 C 
ATOM     11  C   UNL     1      35.992 -20.900 -19.843  0.00  0.00    +0.024 C 
ATOM     12  C   UNL     1      34.910 -20.320 -20.506  0.00  0.00    +0.143 C 
BRANCH  12  15
ATOM     13  O   UNL     1      36.038 -18.499 -21.359  0.00  0.00    -0.126 OA
ATOM     14  O   UNL     1      34.422 -19.379 -22.554  0.00  0.00    -0.126 OA
ATOM     15  N   UNL     1      35.134 -19.354 -21.521  0.00  0.00    +0.058 N 
ENDBRANCH  12  15
ENDBRANCH   6   7
ENDBRANCH   5   6
ENDBRANCH   1   5
BRANCH   1  16
ATOM     16  C   UNL     1      35.228 -23.513 -13.653  0.00  0.00    +0.116 C 
BRANCH  16  17
ATOM     17  C   UNL     1      35.672 -24.668 -12.765  0.00  0.00    +0.022 C 
BRANCH  17  18
ATOM     18  C   UNL     1      36.609 -24.211 -11.649  0.00  0.00    +0.086 C 
BRANCH  18  21
ATOM     19  O   UNL     1      38.831 -23.253 -11.725  0.00  0.00    -0.275 OA
ATOM     20  N   UNL     1      38.368 -25.140 -12.999  0.00  0.00    -0.295 N 
ATOM     21  C   UNL     1      38.055 -24.124 -12.107  0.00  0.00    +0.223 C 
ATOM     22  H   UNL     1      37.667 -25.789 -13.238  0.00  0.00    +0.150 HD
BRANCH  20  23
ATOM     23  C   UNL     1      39.677 -25.289 -13.593  0.00  0.00    +0.200 C 
BRANCH  23  25
ATOM     24  O   UNL     1      40.607 -25.891 -15.730  0.00  0.00    -0.248 OA
ATOM     25  C   UNL     1      39.622 -25.811 -15.006  0.00  0.00    +0.334 C 
BRANCH  25  26
ATOM     26  O   UNL     1      38.382 -26.183 -15.398  0.00  0.00    -0.479 OA
ATOM     27  H   UNL     1      38.188 -26.278 -16.309  0.00  0.00    +0.295 HD
ENDBRANCH  25  26
ENDBRANCH  23  25
ENDBRANCH  20  23
ENDBRANCH  18  21
ENDBRANCH  17  18
ENDBRANCH  16  17
ENDBRANCH   1  16
TORSDOF 12
ENDMDL
MODEL 2
REMARK VINA RESULT:      -8.7      4.253      4.929
REMARK  Name = 449242
REMARK  12 active torsions:
REMARK  status: ('A' for Active; 'I' for Inactive)
REMARK    1  A    between atoms: P_1  and  O_3
REMARK    2  A    between atoms: P_1  and  O_5
REMARK    3  A    between atoms: P_1  and  C_16
REMARK    4  A    between atoms: O_5  and  C_6
REMARK    5  A    between atoms: C_6  and  C_7
REMARK    6  A    between atoms: C_12  and  N_15
REMARK    7  A    between atoms: C_16  and  C_17
REMARK    8  A    between atoms: C_17  and  C_18
REMARK    9  A    between atoms: C_18  and  C_21
REMARK   10  A    between atoms: N_20  and  C_23
REMARK   11  A    between atoms: C_23  and  C_25
REMARK   12  A    between atoms: C_25  and  O_26
REMARK                            x       y       z     vdW  Elec       q    Type
REMARK                         _______ _______ _______ _____ _____    ______ ____
ROOT
ATOM      1  P   UNL     1      35.019 -24.291 -14.218  0.00  0.00    +0.340 P 
ATOM      2  O   UNL     1      35.894 -23.166 -14.656  0.00  0.00    -0.258 OA
ENDROOT
BRANCH   1   3
ATOM      3  O   UNL     1      35.646 -25.761 -14.431  0.00  0.00    -0.323 OA
ATOM      4  H   UNL     1      34.947 -26.373 -14.709  0.00  0.00    +0.220 HD
ENDBRANCH   1   3
BRANCH   1   5
ATOM      5  O   UNL     1      33.573 -24.352 -14.924  0.00  0.00    -0.289 OA
BRANCH   5   6
ATOM      6  C   UNL     1      32.399 -24.635 -14.183  0.00  0.00    +0.178 C 
BRANCH   6   7
ATOM      7  C   UNL     1      31.208 -24.132 -14.944  0.00  0.00    +0.008 C 
ATOM      8  C   UNL     1      29.946 -24.673 -14.700  0.00  0.00    -0.000 C 
ATOM      9  C   UNL     1      31.362 -23.120 -15.892  0.00  0.00    -0.000 C 
ATOM     10  C   UNL     1      28.838 -24.204 -15.406  0.00  0.00    +0.024 C 
ATOM     11  C   UNL     1      30.254 -22.652 -16.598  0.00  0.00    +0.024 C 
ATOM     12  C   UNL     1      28.992 -23.193 -16.355  0.00  0.00    +0.143 C 
BRANCH  12  15
ATOM     13  O   UNL     1      27.428 -21.564 -16.825  0.00  0.00    -0.126 OA
ATOM     14  O   UNL     1      27.331 -23.456 -17.933  0.00  0.00    -0.126 OA
ATOM     15  N   UNL     1      27.864 -22.715 -17.071  0.00  0.00    +0.058 N 
ENDBRANCH  12  15
ENDBRANCH   6   7
ENDBRANCH   5   6
ENDBRANCH   1   5
BRANCH   1  16
ATOM     16  C   UNL     1      34.668 -24.258 -12.447  0.00  0.00    +0.116 C 
BRANCH  16  17
ATOM     17  C   UNL     1      35.867 -24.617 -11.579  0.00  0.00    +0.022 C 
BRANCH  17  18
ATOM     18  C   UNL     1      36.811 -23.432 -11.383  0.00  0.00    +0.086 C 
BRANCH  18  21
ATOM     19  O   UNL     1      39.192 -23.053 -11.606  0.00  0.00    -0.275 OA
ATOM     20  N   UNL     1      38.201 -24.769 -12.820  0.00  0.00    -0.295 N 
ATOM     21  C   UNL     1      38.203 -23.706 -11.928  0.00  0.00    +0.223 C 
ATOM     22  H   UNL     1      37.348 -25.224 -13.007  0.00  0.00    +0.150 HD
BRANCH  20  23
ATOM     23  C   UNL     1      39.393 -25.236 -13.489  0.00  0.00    +0.200 C 
BRANCH  23  25
ATOM     24  O   UNL     1      38.316 -27.019 -14.697  0.00  0.00    -0.248 OA
ATOM     25  C   UNL     1      39.093 -26.071 -14.707  0.00  0.00    +0.334 C 
BRANCH  25  26
ATOM     26  O   UNL     1      39.762 -25.674 -15.814  0.00  0.00    -0.479 OA
ATOM     27  H   UNL     1      40.668 -25.888 -15.915  0.00  0.00    +0.295 HD
ENDBRANCH  25  26
ENDBRANCH  23  25
ENDBRANCH  20  23
ENDBRANCH  18  21
ENDBRANCH  17  18
ENDBRANCH  16  17
ENDBRANCH   1  16
TORSDOF 12
ENDMDL
MODEL 3
REMARK VINA RESULT:      -8.7      4.453      5.582
REMARK  Name = 449242
REMARK  12 active torsions:
REMARK  status: ('A' for Active; 'I' for Inactive)
REMARK    1  A    between atoms: P_1  and  O_3
REMARK    2  A    between atoms: P_1  and  O_5
REMARK    3  A    between atoms: P_1  and  C_16
REMARK    4  A    between atoms: O_5  and  C_6
REMARK    5  A    between atoms: C_6  and  C_7
REMARK    6  A    between atoms: C_12  and  N_15
REMARK    7  A    between atoms: C_16  and  C_17
REMARK    8  A    between atoms: C_17  and  C_18
REMARK    9  A    between atoms: C_18  and  C_21
REMARK   10  A    between atoms: N_20  and  C_23
REMARK   11  A    between atoms: C_23  and  C_25
REMARK   12  A    between atoms: C_25  and  O_26
REMARK                            x       y       z     vdW  Elec       q    Type
REMARK                         _______ _______ _______ _____ _____    ______ ____
ROOT
ATOM      1  P   UNL     1      33.827 -24.279 -13.848  0.00  0.00    +0.340 P 
ATOM      2  O   UNL     1      35.054 -25.065 -13.530  0.00  0.00    -0.258 OA
ENDROOT
BRANCH   1   3
ATOM      3  O   UNL     1      33.341 -23.278 -12.682  0.00  0.00    -0.323 OA
ATOM      4  H   UNL     1      34.112 -22.849 -12.282  0.00  0.00    +0.220 HD
ENDBRANCH   1   3
BRANCH   1   5
ATOM      5  O   UNL     1      32.525 -25.156 -14.209  0.00  0.00    -0.289 OA
BRANCH   5   6
ATOM      6  C   UNL     1      31.291 -24.958 -13.542  0.00  0.00    +0.178 C 
BRANCH   6   7
ATOM      7  C   UNL     1      30.316 -24.328 -14.493  0.00  0.00    +0.008 C 
ATOM      8  C   UNL     1      29.575 -25.128 -15.363  0.00  0.00    -0.000 C 
ATOM      9  C   UNL     1      30.149 -22.943 -14.506  0.00  0.00    -0.000 C 
ATOM     10  C   UNL     1      28.668 -24.543 -16.246  0.00  0.00    +0.024 C 
ATOM     11  C   UNL     1      29.243 -22.358 -15.390  0.00  0.00    +0.024 C 
ATOM     12  C   UNL     1      28.501 -23.158 -16.260  0.00  0.00    +0.143 C 
BRANCH  12  15
ATOM     13  O   UNL     1      27.212 -23.207 -18.171  0.00  0.00    -0.126 OA
ATOM     14  O   UNL     1      27.149 -21.409 -16.914  0.00  0.00    -0.126 OA
ATOM     15  N   UNL     1      27.577 -22.563 -17.157  0.00  0.00    +0.058 N 
ENDBRANCH  12  15
ENDBRANCH   6   7
ENDBRANCH   5   6
ENDBRANCH   1   5
BRANCH   1  16
ATOM     16  C   UNL     1      34.046 -23.175 -15.260  0.00  0.00    +0.116 C 
BRANCH  16  17
ATOM     17  C   UNL     1      35.278 -23.492 -16.098  0.00  0.00    +0.022 C 
BRANCH  17  18
ATOM     18  C   UNL     1      36.486 -22.652 -15.689  0.00  0.00    +0.086 C 
BRANCH  18  21
ATOM     19  O   UNL     1      37.801 -22.934 -13.677  0.00  0.00    -0.275 OA
ATOM     20  N   UNL     1      37.766 -24.640 -15.254  0.00  0.00    -0.295 N 
ATOM     21  C   UNL     1      37.417 -23.397 -14.747  0.00  0.00    +0.223 C 
ATOM     22  H   UNL     1      37.398 -24.912 -16.126  0.00  0.00    +0.150 HD
BRANCH  20  23
ATOM     23  C   UNL     1      38.645 -25.553 -14.560  0.00  0.00    +0.200 C 
BRANCH  23  25
ATOM     24  O   UNL     1      40.909 -24.798 -14.240  0.00  0.00    -0.248 OA
ATOM     25  C   UNL     1      40.092 -25.378 -14.945  0.00  0.00    +0.334 C 
BRANCH  25  26
ATOM     26  O   UNL     1      40.402 -25.921 -16.145  0.00  0.00    -0.479 OA
ATOM     27  H   UNL     1      39.926 -26.663 -16.461  0.00  0.00    +0.295 HD
ENDBRANCH  25  26
ENDBRANCH  23  25
ENDBRANCH  20  23
ENDBRANCH  18  21
ENDBRANCH  17  18
ENDBRANCH  16  17
ENDBRANCH   1  16
TORSDOF 12
ENDMDL
MODEL 4
REMARK VINA RESULT:      -8.7      1.865      2.604
REMARK  Name = 449242
REMARK  12 active torsions:
REMARK  status: ('A' for Active; 'I' for Inactive)
REMARK    1  A    between atoms: P_1  and  O_3
REMARK    2  A    between atoms: P_1  and  O_5
REMARK    3  A    between atoms: P_1  and  C_16
REMARK    4  A    between atoms: O_5  and  C_6
REMARK    5  A    between atoms: C_6  and  C_7
REMARK    6  A    between atoms: C_12  and  N_15
REMARK    7  A    between atoms: C_16  and  C_17
REMARK    8  A    between atoms: C_17  and  C_18
REMARK    9  A    between atoms: C_18  and  C_21
REMARK   10  A    between atoms: N_20  and  C_23
REMARK   11  A    between atoms: C_23  and  C_25
REMARK   12  A    between atoms: C_25  and  O_26
REMARK                            x       y       z     vdW  Elec       q    Type
REMARK                         _______ _______ _______ _____ _____    ______ ____
ROOT
ATOM      1  P   UNL     1      32.268 -23.450 -15.547  0.00  0.00    +0.340 P 
ATOM      2  O   UNL     1      31.222 -24.507 -15.452  0.00  0.00    -0.258 OA
ENDROOT
BRANCH   1   3
ATOM      3  O   UNL     1      32.063 -22.200 -14.550  0.00  0.00    -0.323 OA
ATOM      4  H   UNL     1      31.622 -22.500 -13.741  0.00  0.00    +0.220 HD
ENDBRANCH   1   3
BRANCH   1   5
ATOM      5  O   UNL     1      32.448 -22.791 -17.005  0.00  0.00    -0.289 OA
BRANCH   5   6
ATOM      6  C   UNL     1      33.384 -23.302 -17.939  0.00  0.00    +0.178 C 
BRANCH   6   7
ATOM      7  C   UNL     1      33.855 -22.184 -18.821  0.00  0.00    +0.008 C 
ATOM      8  C   UNL     1      35.220 -21.982 -19.020  0.00  0.00    -0.000 C 
ATOM      9  C   UNL     1      32.928 -21.349 -19.444  0.00  0.00    -0.000 C 
ATOM     10  C   UNL     1      35.660 -20.944 -19.841  0.00  0.00    +0.024 C 
ATOM     11  C   UNL     1      33.367 -20.311 -20.265  0.00  0.00    +0.024 C 
ATOM     12  C   UNL     1      34.733 -20.108 -20.465  0.00  0.00    +0.143 C 
BRANCH  12  15
ATOM     13  O   UNL     1      35.772 -18.075 -20.786  0.00  0.00    -0.126 OA
ATOM     14  O   UNL     1      34.968 -19.125 -22.537  0.00  0.00    -0.126 OA
ATOM     15  N   UNL     1      35.179 -19.053 -21.302  0.00  0.00    +0.058 N 
ENDBRANCH  12  15
ENDBRANCH   6   7
ENDBRANCH   5   6
ENDBRANCH   1   5
BRANCH   1  16
ATOM     16  C   UNL     1      33.914 -24.049 -15.105  0.00  0.00    +0.116 C 
BRANCH  16  17
ATOM     17  C   UNL     1      34.930 -22.937 -14.883  0.00  0.00    +0.022 C 
BRANCH  17  18
ATOM     18  C   UNL     1      36.242 -23.199 -15.619  0.00  0.00    +0.086 C 
BRANCH  18  21
ATOM     19  O   UNL     1      37.709 -23.170 -13.694  0.00  0.00    -0.275 OA
ATOM     20  N   UNL     1      37.791 -24.977 -15.152  0.00  0.00    -0.295 N 
ATOM     21  C   UNL     1      37.319 -23.753 -14.702  0.00  0.00    +0.223 C 
ATOM     22  H   UNL     1      37.407 -25.356 -15.976  0.00  0.00    +0.150 HD
BRANCH  20  23
ATOM     23  C   UNL     1      38.823 -25.721 -14.468  0.00  0.00    +0.200 C 
BRANCH  23  25
ATOM     24  O   UNL     1      40.954 -24.606 -14.354  0.00  0.00    -0.248 OA
ATOM     25  C   UNL     1      40.210 -25.377 -14.948  0.00  0.00    +0.334 C 
BRANCH  25  26
ATOM     26  O   UNL     1      40.555 -26.001 -16.099  0.00  0.00    -0.479 OA
ATOM     27  H   UNL     1      39.941 -26.054 -16.804  0.00  0.00    +0.295 HD
ENDBRANCH  25  26
ENDBRANCH  23  25
ENDBRANCH  20  23
ENDBRANCH  18  21
ENDBRANCH  17  18
ENDBRANCH  16  17
ENDBRANCH   1  16
TORSDOF 12
ENDMDL
MODEL 5
REMARK VINA RESULT:      -8.7      5.424     11.262
REMARK  Name = 449242
REMARK  12 active torsions:
REMARK  status: ('A' for Active; 'I' for Inactive)
REMARK    1  A    between atoms: P_1  and  O_3
REMARK    2  A    between atoms: P_1  and  O_5
REMARK    3  A    between atoms: P_1  and  C_16
REMARK    4  A    between atoms: O_5  and  C_6
REMARK    5  A    between atoms: C_6  and  C_7
REMARK    6  A    between atoms: C_12  and  N_15
REMARK    7  A    between atoms: C_16  and  C_17
REMARK    8  A    between atoms: C_17  and  C_18
REMARK    9  A    between atoms: C_18  and  C_21
REMARK   10  A    between atoms: N_20  and  C_23
REMARK   11  A    between atoms: C_23  and  C_25
REMARK   12  A    between atoms: C_25  and  O_26
REMARK                            x       y       z     vdW  Elec       q    Type
REMARK                         _______ _______ _______ _____ _____    ______ ____
ROOT
ATOM      1  P   UNL     1      34.494 -16.325 -21.744  0.00  0.00    +0.340 P 
ATOM      2  O   UNL     1      35.177 -15.491 -22.774  0.00  0.00    -0.258 OA
ENDROOT
BRANCH   1   3
ATOM      3  O   UNL     1      35.307 -16.501 -20.363  0.00  0.00    -0.323 OA
ATOM      4  H   UNL     1      34.692 -16.741 -19.654  0.00  0.00    +0.220 HD
ENDBRANCH   1   3
BRANCH   1   5
ATOM      5  O   UNL     1      34.134 -17.826 -22.205  0.00  0.00    -0.289 OA
BRANCH   5   6
ATOM      6  C   UNL     1      35.087 -18.872 -22.130  0.00  0.00    +0.178 C 
BRANCH   6   7
ATOM      7  C   UNL     1      34.653 -19.855 -21.083  0.00  0.00    +0.008 C 
ATOM      8  C   UNL     1      33.306 -19.956 -20.737  0.00  0.00    -0.000 C 
ATOM      9  C   UNL     1      35.596 -20.671 -20.458  0.00  0.00    -0.000 C 
ATOM     10  C   UNL     1      32.902 -20.871 -19.765  0.00  0.00    +0.024 C 
ATOM     11  C   UNL     1      35.193 -21.585 -19.486  0.00  0.00    +0.024 C 
ATOM     12  C   UNL     1      33.845 -21.686 -19.140  0.00  0.00    +0.143 C 
BRANCH  12  15
ATOM     13  O   UNL     1      32.212 -22.726 -17.887  0.00  0.00    -0.126 OA
ATOM     14  O   UNL     1      34.303 -23.310 -17.568  0.00  0.00    -0.126 OA
ATOM     15  N   UNL     1      33.434 -22.618 -18.152  0.00  0.00    +0.058 N 
ENDBRANCH  12  15
ENDBRANCH   6   7
ENDBRANCH   5   6
ENDBRANCH   1   5
BRANCH   1  16
ATOM     16  C   UNL     1      32.923 -15.621 -21.198  0.00  0.00    +0.116 C 
BRANCH  16  17
ATOM     17  C   UNL     1      32.987 -14.123 -20.929  0.00  0.00    +0.022 C 
BRANCH  17  18
ATOM     18  C   UNL     1      32.098 -13.327 -21.881  0.00  0.00    +0.086 C 
BRANCH  18  21
ATOM     19  O   UNL     1      33.378 -11.964 -23.418  0.00  0.00    -0.275 OA
ATOM     20  N   UNL     1      32.667 -14.070 -24.096  0.00  0.00    -0.295 N 
ATOM     21  C   UNL     1      32.791 -13.019 -23.198  0.00  0.00    +0.223 C 
ATOM     22  H   UNL     1      32.173 -14.874 -23.814  0.00  0.00    +0.150 HD
BRANCH  20  23
ATOM     23  C   UNL     1      33.230 -14.037 -25.426  0.00  0.00    +0.200 C 
BRANCH  23  25
ATOM     24  O   UNL     1      34.283 -16.150 -25.901  0.00  0.00    -0.248 OA
ATOM     25  C   UNL     1      33.324 -15.403 -26.056  0.00  0.00    +0.334 C 
BRANCH  25  26
ATOM     26  O   UNL     1      32.248 -15.726 -26.811  0.00  0.00    -0.479 OA
ATOM     27  H   UNL     1      31.539 -15.121 -26.898  0.00  0.00    +0.295 HD
ENDBRANCH  25  26
ENDBRANCH  23  25
ENDBRANCH  20  23
ENDBRANCH  18  21
ENDBRANCH  17  18
ENDBRANCH  16  17
ENDBRANCH   1  16
TORSDOF 12
ENDMDL
MODEL 6
REMARK VINA RESULT:      -8.6      6.897     12.318
REMARK  Name = 449242
REMARK  12 active torsions:
REMARK  status: ('A' for Active; 'I' for Inactive)
REMARK    1  A    between atoms: P_1  and  O_3
REMARK    2  A    between atoms: P_1  and  O_5
REMARK    3  A    between atoms: P_1  and  C_16
REMARK    4  A    between atoms: O_5  and  C_6
REMARK    5  A    between atoms: C_6  and  C_7
REMARK    6  A    between atoms: C_12  and  N_15
REMARK    7  A    between atoms: C_16  and  C_17
REMARK    8  A    between atoms: C_17  and  C_18
REMARK    9  A    between atoms: C_18  and  C_21
REMARK   10  A    between atoms: N_20  and  C_23
REMARK   11  A    between atoms: C_23  and  C_25
REMARK   12  A    between atoms: C_25  and  O_26
REMARK                            x       y       z     vdW  Elec       q    Type
REMARK                         _______ _______ _______ _____ _____    ______ ____
ROOT
ATOM      1  P   UNL     1      34.268 -15.519 -21.765  0.00  0.00    +0.340 P 
ATOM      2  O   UNL     1      34.896 -14.689 -22.832  0.00  0.00    -0.258 OA
ENDROOT
BRANCH   1   3
ATOM      3  O   UNL     1      34.968 -15.407 -20.317  0.00  0.00    -0.323 OA
ATOM      4  H   UNL     1      34.450 -15.907 -19.668  0.00  0.00    +0.220 HD
ENDBRANCH   1   3
BRANCH   1   5
ATOM      5  O   UNL     1      34.205 -17.099 -22.072  0.00  0.00    -0.289 OA
BRANCH   5   6
ATOM      6  C   UNL     1      35.301 -17.952 -21.792  0.00  0.00    +0.178 C 
BRANCH   6   7
ATOM      7  C   UNL     1      34.805 -19.159 -21.052  0.00  0.00    +0.008 C 
ATOM      8  C   UNL     1      33.436 -19.360 -20.884  0.00  0.00    -0.000 C 
ATOM      9  C   UNL     1      35.714 -20.083 -20.534  0.00  0.00    -0.000 C 
ATOM     10  C   UNL     1      32.974 -20.483 -20.198  0.00  0.00    +0.024 C 
ATOM     11  C   UNL     1      35.253 -21.205 -19.848  0.00  0.00    +0.024 C 
ATOM     12  C   UNL     1      33.882 -21.406 -19.680  0.00  0.00    +0.143 C 
BRANCH  12  15
ATOM     13  O   UNL     1      32.454 -22.425 -18.184  0.00  0.00    -0.126 OA
ATOM     14  O   UNL     1      33.970 -23.657 -19.186  0.00  0.00    -0.126 OA
ATOM     15  N   UNL     1      33.413 -22.550 -18.984  0.00  0.00    +0.058 N 
ENDBRANCH  12  15
ENDBRANCH   6   7
ENDBRANCH   5   6
ENDBRANCH   1   5
BRANCH   1  16
ATOM     16  C   UNL     1      32.559 -15.047 -21.422  0.00  0.00    +0.116 C 
BRANCH  16  17
ATOM     17  C   UNL     1      32.411 -13.619 -20.912  0.00  0.00    +0.022 C 
BRANCH  17  18
ATOM     18  C   UNL     1      32.029 -12.646 -22.026  0.00  0.00    +0.086 C 
BRANCH  18  21
ATOM     19  O   UNL     1      30.389 -11.322 -20.835  0.00  0.00    -0.275 OA
ATOM     20  N   UNL     1      32.198 -10.256 -21.829  0.00  0.00    -0.295 N 
ATOM     21  C   UNL     1      31.429 -11.358 -21.487  0.00  0.00    +0.223 C 
ATOM     22  H   UNL     1      33.017 -10.399 -22.356  0.00  0.00    +0.150 HD
BRANCH  20  23
ATOM     23  C   UNL     1      31.852  -8.906 -21.447  0.00  0.00    +0.200 C 
BRANCH  23  25
ATOM     24  O   UNL     1      32.784  -7.354 -19.860  0.00  0.00    -0.248 OA
ATOM     25  C   UNL     1      32.445  -8.502 -20.121  0.00  0.00    +0.334 C 
BRANCH  25  26
ATOM     26  O   UNL     1      32.567  -9.528 -19.248  0.00  0.00    -0.479 OA
ATOM     27  H   UNL     1      33.320 -10.085 -19.282  0.00  0.00    +0.295 HD
ENDBRANCH  25  26
ENDBRANCH  23  25
ENDBRANCH  20  23
ENDBRANCH  18  21
ENDBRANCH  17  18
ENDBRANCH  16  17
ENDBRANCH   1  16
TORSDOF 12
ENDMDL
MODEL 7
REMARK VINA RESULT:      -8.5      2.115      3.106
REMARK  Name = 449242
REMARK  12 active torsions:
REMARK  status: ('A' for Active; 'I' for Inactive)
REMARK    1  A    between atoms: P_1  and  O_3
REMARK    2  A    between atoms: P_1  and  O_5
REMARK    3  A    between atoms: P_1  and  C_16
REMARK    4  A    between atoms: O_5  and  C_6
REMARK    5  A    between atoms: C_6  and  C_7
REMARK    6  A    between atoms: C_12  and  N_15
REMARK    7  A    between atoms: C_16  and  C_17
REMARK    8  A    between atoms: C_17  and  C_18
REMARK    9  A    between atoms: C_18  and  C_21
REMARK   10  A    between atoms: N_20  and  C_23
REMARK   11  A    between atoms: C_23  and  C_25
REMARK   12  A    between atoms: C_25  and  O_26
REMARK                            x       y       z     vdW  Elec       q    Type
REMARK                         _______ _______ _______ _____ _____    ______ ____
ROOT
ATOM      1  P   UNL     1      33.684 -23.034 -18.153  0.00  0.00    +0.340 P 
ATOM      2  O   UNL     1      33.775 -24.204 -19.072  0.00  0.00    -0.258 OA
ENDROOT
BRANCH   1   3
ATOM      3  O   UNL     1      32.281 -22.241 -18.201  0.00  0.00    -0.323 OA
ATOM      4  H   UNL     1      32.281 -21.544 -17.528  0.00  0.00    +0.220 HD
ENDBRANCH   1   3
BRANCH   1   5
ATOM      5  O   UNL     1      34.808 -21.901 -18.369  0.00  0.00    -0.289 OA
BRANCH   5   6
ATOM      6  C   UNL     1      35.616 -21.873 -19.533  0.00  0.00    +0.178 C 
BRANCH   6   7
ATOM      7  C   UNL     1      35.379 -20.584 -20.262  0.00  0.00    +0.008 C 
ATOM      8  C   UNL     1      34.078 -20.179 -20.556  0.00  0.00    -0.000 C 
ATOM      9  C   UNL     1      36.460 -19.789 -20.643  0.00  0.00    -0.000 C 
ATOM     10  C   UNL     1      33.857 -18.979 -21.233  0.00  0.00    +0.024 C 
ATOM     11  C   UNL     1      36.240 -18.590 -21.319  0.00  0.00    +0.024 C 
ATOM     12  C   UNL     1      34.938 -18.184 -21.614  0.00  0.00    +0.143 C 
BRANCH  12  15
ATOM     13  O   UNL     1      34.409 -16.995 -23.518  0.00  0.00    -0.126 OA
ATOM     14  O   UNL     1      34.825 -15.882 -21.673  0.00  0.00    -0.126 OA
ATOM     15  N   UNL     1      34.713 -16.963 -22.301  0.00  0.00    +0.058 N 
ENDBRANCH  12  15
ENDBRANCH   6   7
ENDBRANCH   5   6
ENDBRANCH   1   5
BRANCH   1  16
ATOM     16  C   UNL     1      33.823 -23.497 -16.413  0.00  0.00    +0.116 C 
BRANCH  16  17
ATOM     17  C   UNL     1      35.182 -23.176 -15.803  0.00  0.00    +0.022 C 
BRANCH  17  18
ATOM     18  C   UNL     1      35.489 -24.049 -14.588  0.00  0.00    +0.086 C 
BRANCH  18  21
ATOM     19  O   UNL     1      35.993 -26.169 -15.641  0.00  0.00    -0.275 OA
ATOM     20  N   UNL     1      37.628 -25.124 -14.363  0.00  0.00    -0.295 N 
ATOM     21  C   UNL     1      36.370 -25.237 -14.938  0.00  0.00    +0.223 C 
ATOM     22  H   UNL     1      37.825 -24.330 -13.815  0.00  0.00    +0.150 HD
BRANCH  20  23
ATOM     23  C   UNL     1      38.661 -26.120 -14.531  0.00  0.00    +0.200 C 
BRANCH  23  25
ATOM     24  O   UNL     1      40.583 -24.707 -14.204  0.00  0.00    -0.248 OA
ATOM     25  C   UNL     1      39.994 -25.524 -14.903  0.00  0.00    +0.334 C 
BRANCH  25  26
ATOM     26  O   UNL     1      40.479 -25.976 -16.083  0.00  0.00    -0.479 OA
ATOM     27  H   UNL     1      39.913 -26.418 -16.683  0.00  0.00    +0.295 HD
ENDBRANCH  25  26
ENDBRANCH  23  25
ENDBRANCH  20  23
ENDBRANCH  18  21
ENDBRANCH  17  18
ENDBRANCH  16  17
ENDBRANCH   1  16
TORSDOF 12
ENDMDL
MODEL 8
REMARK VINA RESULT:      -8.5      4.396      6.087
REMARK  Name = 449242
REMARK  12 active torsions:
REMARK  status: ('A' for Active; 'I' for Inactive)
REMARK    1  A    between atoms: P_1  and  O_3
REMARK    2  A    between atoms: P_1  and  O_5
REMARK    3  A    between atoms: P_1  and  C_16
REMARK    4  A    between atoms: O_5  and  C_6
REMARK    5  A    between atoms: C_6  and  C_7
REMARK    6  A    between atoms: C_12  and  N_15
REMARK    7  A    between atoms: C_16  and  C_17
REMARK    8  A    between atoms: C_17  and  C_18
REMARK    9  A    between atoms: C_18  and  C_21
REMARK   10  A    between atoms: N_20  and  C_23
REMARK   11  A    between atoms: C_23  and  C_25
REMARK   12  A    between atoms: C_25  and  O_26
REMARK                            x       y       z     vdW  Elec       q    Type
REMARK                         _______ _______ _______ _____ _____    ______ ____
ROOT
ATOM      1  P   UNL     1      33.551 -23.176 -17.933  0.00  0.00    +0.340 P 
ATOM      2  O   UNL     1      33.674 -24.335 -18.864  0.00  0.00    -0.258 OA
ENDROOT
BRANCH   1   3
ATOM      3  O   UNL     1      32.052 -22.618 -17.738  0.00  0.00    -0.323 OA
ATOM      4  H   UNL     1      31.501 -23.306 -17.334  0.00  0.00    +0.220 HD
ENDBRANCH   1   3
BRANCH   1   5
ATOM      5  O   UNL     1      34.425 -21.883 -18.329  0.00  0.00    -0.289 OA
BRANCH   5   6
ATOM      6  C   UNL     1      35.358 -21.917 -19.395  0.00  0.00    +0.178 C 
BRANCH   6   7
ATOM      7  C   UNL     1      35.270 -20.632 -20.164  0.00  0.00    +0.008 C 
ATOM      8  C   UNL     1      34.026 -20.133 -20.547  0.00  0.00    -0.000 C 
ATOM      9  C   UNL     1      36.433 -19.935 -20.493  0.00  0.00    -0.000 C 
ATOM     10  C   UNL     1      33.944 -18.937 -21.260  0.00  0.00    +0.024 C 
ATOM     11  C   UNL     1      36.351 -18.740 -21.206  0.00  0.00    +0.024 C 
ATOM     12  C   UNL     1      35.106 -18.240 -21.589  0.00  0.00    +0.143 C 
BRANCH  12  15
ATOM     13  O   UNL     1      35.085 -17.052 -23.566  0.00  0.00    -0.126 OA
ATOM     14  O   UNL     1      34.890 -15.946 -21.681  0.00  0.00    -0.126 OA
ATOM     15  N   UNL     1      35.023 -17.022 -22.313  0.00  0.00    +0.058 N 
ENDBRANCH  12  15
ENDBRANCH   6   7
ENDBRANCH   5   6
ENDBRANCH   1   5
BRANCH   1  16
ATOM     16  C   UNL     1      34.055 -23.575 -16.246  0.00  0.00    +0.116 C 
BRANCH  16  17
ATOM     17  C   UNL     1      33.080 -23.081 -15.185  0.00  0.00    +0.022 C 
BRANCH  17  18
ATOM     18  C   UNL     1      32.649 -24.196 -14.233  0.00  0.00    +0.086 C 
BRANCH  18  21
ATOM     19  O   UNL     1      30.574 -24.467 -13.018  0.00  0.00    -0.275 OA
ATOM     20  N   UNL     1      30.504 -24.138 -15.317  0.00  0.00    -0.295 N 
ATOM     21  C   UNL     1      31.139 -24.285 -14.092  0.00  0.00    +0.223 C 
ATOM     22  H   UNL     1      31.056 -23.996 -16.120  0.00  0.00    +0.150 HD
BRANCH  20  23
ATOM     23  C   UNL     1      29.068 -24.187 -15.469  0.00  0.00    +0.200 C 
BRANCH  23  25
ATOM     24  O   UNL     1      27.745 -24.076 -17.477  0.00  0.00    -0.248 OA
ATOM     25  C   UNL     1      28.593 -23.564 -16.756  0.00  0.00    +0.334 C 
BRANCH  25  26
ATOM     26  O   UNL     1      29.195 -22.386 -17.042  0.00  0.00    -0.479 OA
ATOM     27  H   UNL     1      28.677 -21.633 -17.244  0.00  0.00    +0.295 HD
ENDBRANCH  25  26
ENDBRANCH  23  25
ENDBRANCH  20  23
ENDBRANCH  18  21
ENDBRANCH  17  18
ENDBRANCH  16  17
ENDBRANCH   1  16
TORSDOF 12
ENDMDL
MODEL 9
REMARK VINA RESULT:      -8.4      3.799      6.096
REMARK  Name = 449242
REMARK  12 active torsions:
REMARK  status: ('A' for Active; 'I' for Inactive)
REMARK    1  A    between atoms: P_1  and  O_3
REMARK    2  A    between atoms: P_1  and  O_5
REMARK    3  A    between atoms: P_1  and  C_16
REMARK    4  A    between atoms: O_5  and  C_6
REMARK    5  A    between atoms: C_6  and  C_7
REMARK    6  A    between atoms: C_12  and  N_15
REMARK    7  A    between atoms: C_16  and  C_17
REMARK    8  A    between atoms: C_17  and  C_18
REMARK    9  A    between atoms: C_18  and  C_21
REMARK   10  A    between atoms: N_20  and  C_23
REMARK   11  A    between atoms: C_23  and  C_25
REMARK   12  A    between atoms: C_25  and  O_26
REMARK                            x       y       z     vdW  Elec       q    Type
REMARK                         _______ _______ _______ _____ _____    ______ ____
ROOT
ATOM      1  P   UNL     1      35.089 -23.292 -15.847  0.00  0.00    +0.340 P 
ATOM      2  O   UNL     1      35.798 -22.434 -14.855  0.00  0.00    -0.258 OA
ENDROOT
BRANCH   1   3
ATOM      3  O   UNL     1      35.536 -24.840 -15.848  0.00  0.00    -0.323 OA
ATOM      4  H   UNL     1      34.814 -25.385 -15.501  0.00  0.00    +0.220 HD
ENDBRANCH   1   3
BRANCH   1   5
ATOM      5  O   UNL     1      35.223 -22.822 -17.382  0.00  0.00    -0.289 OA
BRANCH   5   6
ATOM      6  C   UNL     1      34.097 -22.762 -18.239  0.00  0.00    +0.178 C 
BRANCH   6   7
ATOM      7  C   UNL     1      34.299 -21.660 -19.237  0.00  0.00    +0.008 C 
ATOM      8  C   UNL     1      33.200 -20.962 -19.736  0.00  0.00    -0.000 C 
ATOM      9  C   UNL     1      35.586 -21.331 -19.662  0.00  0.00    -0.000 C 
ATOM     10  C   UNL     1      33.388 -19.936 -20.663  0.00  0.00    +0.024 C 
ATOM     11  C   UNL     1      35.774 -20.306 -20.588  0.00  0.00    +0.024 C 
ATOM     12  C   UNL     1      34.675 -19.608 -21.088  0.00  0.00    +0.143 C 
BRANCH  12  15
ATOM     13  O   UNL     1      34.579 -18.766 -23.233  0.00  0.00    -0.126 OA
ATOM     14  O   UNL     1      35.320 -17.461 -21.632  0.00  0.00    -0.126 OA
ATOM     15  N   UNL     1      34.867 -18.562 -22.029  0.00  0.00    +0.058 N 
ENDBRANCH  12  15
ENDBRANCH   6   7
ENDBRANCH   5   6
ENDBRANCH   1   5
BRANCH   1  16
ATOM     16  C   UNL     1      33.311 -23.387 -15.547  0.00  0.00    +0.116 C 
BRANCH  16  17
ATOM     17  C   UNL     1      32.952 -23.783 -14.121  0.00  0.00    +0.022 C 
BRANCH  17  18
ATOM     18  C   UNL     1      31.539 -23.347 -13.739  0.00  0.00    +0.086 C 
BRANCH  18  21
ATOM     19  O   UNL     1      30.328 -25.386 -14.220  0.00  0.00    -0.275 OA
ATOM     20  N   UNL     1      29.701 -23.420 -15.286  0.00  0.00    -0.295 N 
ATOM     21  C   UNL     1      30.471 -24.184 -14.422  0.00  0.00    +0.223 C 
ATOM     22  H   UNL     1      29.902 -22.460 -15.372  0.00  0.00    +0.150 HD
BRANCH  20  23
ATOM     23  C   UNL     1      28.617 -23.970 -16.067  0.00  0.00    +0.200 C 
BRANCH  23  25
ATOM     24  O   UNL     1      27.565 -23.240 -18.107  0.00  0.00    -0.248 OA
ATOM     25  C   UNL     1      27.989 -22.958 -16.992  0.00  0.00    +0.334 C 
BRANCH  25  26
ATOM     26  O   UNL     1      27.941 -21.709 -16.475  0.00  0.00    -0.479 OA
ATOM     27  H   UNL     1      27.442 -21.043 -16.905  0.00  0.00    +0.295 HD
ENDBRANCH  25  26
ENDBRANCH  23  25
ENDBRANCH  20  23
ENDBRANCH  18  21
ENDBRANCH  17  18
ENDBRANCH  16  17
ENDBRANCH   1  16
TORSDOF 12
ENDMDL
