MODEL 1
REMARK VINA RESULT:     -11.8      0.000      0.000
REMARK  Name = 24905144
REMARK  1 active torsions:
REMARK  status: ('A' for Active; 'I' for Inactive)
REMARK    1  A    between atoms: C_5  and  C_11
REMARK                            x       y       z     vdW  Elec       q    Type
REMARK                         _______ _______ _______ _____ _____    ______ ____
ROOT
ATOM      1  N   UNL     1      33.188 -14.507 -22.519  0.00  0.00    -0.196 N 
ATOM      2  N   UNL     1      33.583 -15.432 -21.624  0.00  0.00    -0.180 NA
ATOM      3  N   UNL     1      33.060 -14.185 -24.915  0.00  0.00    -0.231 NA
ATOM      4  N   UNL     1      33.904 -16.124 -26.132  0.00  0.00    -0.234 NA
ATOM      5  C   UNL     1      34.022 -16.438 -22.390  0.00  0.00    +0.090 C 
ATOM      6  C   UNL     1      33.909 -16.163 -23.765  0.00  0.00    +0.150 C 
ATOM      7  C   UNL     1      33.361 -14.894 -23.815  0.00  0.00    +0.137 C 
ATOM      8  C   UNL     1      34.182 -16.781 -24.980  0.00  0.00    +0.112 C 
ATOM      9  C   UNL     1      32.644 -13.253 -22.053  0.00  0.00    +0.141 C 
ATOM     10  C   UNL     1      33.368 -14.884 -26.029  0.00  0.00    +0.252 C 
ATOM     11  N   UNL     1      34.738 -18.072 -25.034  0.00  0.00    -0.346 N 
ATOM     12  H   UNL     1      34.924 -18.493 -25.905  0.00  0.00    +0.143 HD
ATOM     13  H   UNL     1      34.943 -18.556 -24.201  0.00  0.00    +0.143 HD
ENDROOT
BRANCH   5  14
ATOM     14  C   UNL     1      34.534 -17.631 -21.775  0.00  0.00    +0.016 C 
ATOM     15  C   UNL     1      34.140 -19.740 -20.629  0.00  0.00    +0.000 C 
ATOM     16  C   UNL     1      33.655 -18.570 -21.236  0.00  0.00    +0.001 C 
ATOM     17  C   UNL     1      35.536 -19.962 -20.571  0.00  0.00    +0.000 C 
ATOM     18  C   UNL     1      35.907 -17.848 -21.717  0.00  0.00    +0.001 C 
ATOM     19  C   UNL     1      36.407 -19.005 -21.119  0.00  0.00    +0.000 C 
ATOM     20  C   UNL     1      33.269 -20.697 -20.082  0.00  0.00    +0.000 C 
ATOM     21  C   UNL     1      36.022 -21.132 -19.965  0.00  0.00    +0.000 C 
ATOM     22  C   UNL     1      33.769 -21.854 -19.484  0.00  0.00    +0.000 C 
ATOM     23  C   UNL     1      35.142 -22.071 -19.426  0.00  0.00    +0.000 C 
ENDBRANCH   5  14
TORSDOF 1
ENDMDL
MODEL 2
REMARK VINA RESULT:     -11.0      0.916      2.574
REMARK  Name = 24905144
REMARK  1 active torsions:
REMARK  status: ('A' for Active; 'I' for Inactive)
REMARK    1  A    between atoms: C_5  and  C_11
REMARK                            x       y       z     vdW  Elec       q    Type
REMARK                         _______ _______ _______ _____ _____    ______ ____
ROOT
ATOM      1  N   UNL     1      33.648 -15.573 -24.793  0.00  0.00    -0.196 N 
ATOM      2  N   UNL     1      34.204 -16.731 -24.391  0.00  0.00    -0.180 NA
ATOM      3  N   UNL     1      32.686 -13.558 -23.858  0.00  0.00    -0.231 NA
ATOM      4  N   UNL     1      32.709 -13.595 -21.418  0.00  0.00    -0.234 NA
ATOM      5  C   UNL     1      34.166 -16.647 -23.056  0.00  0.00    +0.090 C 
ATOM      6  C   UNL     1      33.592 -15.445 -22.603  0.00  0.00    +0.150 C 
ATOM      7  C   UNL     1      33.265 -14.766 -23.764  0.00  0.00    +0.137 C 
ATOM      8  C   UNL     1      33.294 -14.817 -21.399  0.00  0.00    +0.112 C 
ATOM      9  C   UNL     1      33.515 -15.301 -26.205  0.00  0.00    +0.141 C 
ATOM     10  C   UNL     1      32.445 -13.050 -22.630  0.00  0.00    +0.252 C 
ATOM     11  N   UNL     1      33.590 -15.426 -20.166  0.00  0.00    -0.346 N 
ATOM     12  H   UNL     1      33.371 -14.965 -19.323  0.00  0.00    +0.143 HD
ATOM     13  H   UNL     1      34.015 -16.314 -20.143  0.00  0.00    +0.143 HD
ENDROOT
BRANCH   5  14
ATOM     14  C   UNL     1      34.683 -17.724 -22.258  0.00  0.00    +0.016 C 
ATOM     15  C   UNL     1      34.297 -19.674 -20.855  0.00  0.00    +0.000 C 
ATOM     16  C   UNL     1      33.808 -18.616 -21.640  0.00  0.00    +0.001 C 
ATOM     17  C   UNL     1      35.695 -19.829 -20.697  0.00  0.00    +0.000 C 
ATOM     18  C   UNL     1      36.058 -17.876 -22.102  0.00  0.00    +0.001 C 
ATOM     19  C   UNL     1      36.562 -18.921 -21.327  0.00  0.00    +0.000 C 
ATOM     20  C   UNL     1      33.430 -20.582 -20.226  0.00  0.00    +0.000 C 
ATOM     21  C   UNL     1      36.185 -20.885 -19.913  0.00  0.00    +0.000 C 
ATOM     22  C   UNL     1      33.934 -21.626 -19.450  0.00  0.00    +0.000 C 
ATOM     23  C   UNL     1      35.308 -21.778 -19.294  0.00  0.00    +0.000 C 
ENDBRANCH   5  14
TORSDOF 1
ENDMDL
MODEL 3
REMARK VINA RESULT:     -10.2      3.546      6.975
REMARK  Name = 24905144
REMARK  1 active torsions:
REMARK  status: ('A' for Active; 'I' for Inactive)
REMARK    1  A    between atoms: C_5  and  C_11
REMARK                            x       y       z     vdW  Elec       q    Type
REMARK                         _______ _______ _______ _____ _____    ______ ____
ROOT
ATOM      1  N   UNL     1      36.495 -21.240 -18.921  0.00  0.00    -0.196 N 
ATOM      2  N   UNL     1      36.665 -20.253 -19.820  0.00  0.00    -0.180 NA
ATOM      3  N   UNL     1      34.745 -22.663 -18.042  0.00  0.00    -0.231 NA
ATOM      4  N   UNL     1      32.590 -22.193 -19.086  0.00  0.00    -0.234 NA
ATOM      5  C   UNL     1      35.438 -20.078 -20.326  0.00  0.00    +0.090 C 
ATOM      6  C   UNL     1      34.488 -20.946 -19.757  0.00  0.00    +0.150 C 
ATOM      7  C   UNL     1      35.212 -21.692 -18.844  0.00  0.00    +0.137 C 
ATOM      8  C   UNL     1      33.130 -21.225 -19.865  0.00  0.00    +0.112 C 
ATOM      9  C   UNL     1      37.628 -21.710 -18.159  0.00  0.00    +0.141 C 
ATOM     10  C   UNL     1      33.420 -22.843 -18.235  0.00  0.00    +0.252 C 
ATOM     11  N   UNL     1      32.310 -20.522 -20.767  0.00  0.00    -0.346 N 
ATOM     12  H   UNL     1      31.350 -20.734 -20.829  0.00  0.00    +0.143 HD
ATOM     13  H   UNL     1      32.695 -19.817 -21.336  0.00  0.00    +0.143 HD
ENDROOT
BRANCH   5  14
ATOM     14  C   UNL     1      35.219 -19.083 -21.338  0.00  0.00    +0.016 C 
ATOM     15  C   UNL     1      34.782 -16.770 -21.953  0.00  0.00    +0.000 C 
ATOM     16  C   UNL     1      35.000 -17.755 -20.975  0.00  0.00    +0.001 C 
ATOM     17  C   UNL     1      34.788 -17.139 -23.319  0.00  0.00    +0.000 C 
ATOM     18  C   UNL     1      35.223 -19.446 -22.682  0.00  0.00    +0.001 C 
ATOM     19  C   UNL     1      35.009 -18.482 -23.667  0.00  0.00    +0.000 C 
ATOM     20  C   UNL     1      34.562 -15.428 -21.604  0.00  0.00    +0.000 C 
ATOM     21  C   UNL     1      34.570 -16.155 -24.297  0.00  0.00    +0.000 C 
ATOM     22  C   UNL     1      34.347 -14.463 -22.589  0.00  0.00    +0.000 C 
ATOM     23  C   UNL     1      34.352 -14.826 -23.932  0.00  0.00    +0.000 C 
ENDBRANCH   5  14
TORSDOF 1
ENDMDL
MODEL 4
REMARK VINA RESULT:     -10.1      3.359      5.429
REMARK  Name = 24905144
REMARK  1 active torsions:
REMARK  status: ('A' for Active; 'I' for Inactive)
REMARK    1  A    between atoms: C_5  and  C_11
REMARK                            x       y       z     vdW  Elec       q    Type
REMARK                         _______ _______ _______ _____ _____    ______ ____
ROOT
ATOM      1  N   UNL     1      31.550 -11.307 -21.589  0.00  0.00    -0.196 N 
ATOM      2  N   UNL     1      31.754 -12.604 -21.884  0.00  0.00    -0.180 NA
ATOM      3  N   UNL     1      32.304  -9.112 -22.275  0.00  0.00    -0.231 NA
ATOM      4  N   UNL     1      33.959  -9.244 -24.063  0.00  0.00    -0.234 NA
ATOM      5  C   UNL     1      32.666 -12.561 -22.862  0.00  0.00    +0.090 C 
ATOM      6  C   UNL     1      33.044 -11.247 -23.194  0.00  0.00    +0.150 C 
ATOM      7  C   UNL     1      32.296 -10.452 -22.344  0.00  0.00    +0.137 C 
ATOM      8  C   UNL     1      33.900 -10.597 -24.077  0.00  0.00    +0.112 C 
ATOM      9  C   UNL     1      30.606 -10.953 -20.555  0.00  0.00    +0.141 C 
ATOM     10  C   UNL     1      33.168  -8.594 -23.175  0.00  0.00    +0.252 C 
ATOM     11  N   UNL     1      34.700 -11.318 -24.982  0.00  0.00    -0.346 N 
ATOM     12  H   UNL     1      35.300 -10.839 -25.600  0.00  0.00    +0.143 HD
ATOM     13  H   UNL     1      34.662 -12.302 -24.998  0.00  0.00    +0.143 HD
ENDROOT
BRANCH   5  14
ATOM     14  C   UNL     1      33.144 -13.783 -23.447  0.00  0.00    +0.016 C 
ATOM     15  C   UNL     1      34.297 -15.913 -23.215  0.00  0.00    +0.000 C 
ATOM     16  C   UNL     1      33.821 -14.714 -22.659  0.00  0.00    +0.001 C 
ATOM     17  C   UNL     1      34.080 -16.172 -24.590  0.00  0.00    +0.000 C 
ATOM     18  C   UNL     1      32.932 -14.037 -24.798  0.00  0.00    +0.001 C 
ATOM     19  C   UNL     1      33.396 -15.223 -25.368  0.00  0.00    +0.000 C 
ATOM     20  C   UNL     1      34.979 -16.862 -22.437  0.00  0.00    +0.000 C 
ATOM     21  C   UNL     1      34.555 -17.370 -25.147  0.00  0.00    +0.000 C 
ATOM     22  C   UNL     1      35.445 -18.047 -23.006  0.00  0.00    +0.000 C 
ATOM     23  C   UNL     1      35.233 -18.301 -24.358  0.00  0.00    +0.000 C 
ENDBRANCH   5  14
TORSDOF 1
ENDMDL
MODEL 5
REMARK VINA RESULT:     -10.0      3.338      5.676
REMARK  Name = 24905144
REMARK  1 active torsions:
REMARK  status: ('A' for Active; 'I' for Inactive)
REMARK    1  A    between atoms: C_5  and  C_11
REMARK                            x       y       z     vdW  Elec       q    Type
REMARK                         _______ _______ _______ _____ _____    ______ ____
ROOT
ATOM      1  N   UNL     1      34.049 -10.146 -24.152  0.00  0.00    -0.196 N 
ATOM      2  N   UNL     1      34.409 -11.322 -24.700  0.00  0.00    -0.180 NA
ATOM      3  N   UNL     1      32.589  -9.278 -22.427  0.00  0.00    -0.231 NA
ATOM      4  N   UNL     1      31.362 -11.062 -21.301  0.00  0.00    -0.234 NA
ATOM      5  C   UNL     1      33.687 -12.218 -24.017  0.00  0.00    +0.090 C 
ATOM      6  C   UNL     1      32.870 -11.624 -23.038  0.00  0.00    +0.150 C 
ATOM      7  C   UNL     1      33.130 -10.270 -23.152  0.00  0.00    +0.137 C 
ATOM      8  C   UNL     1      31.949 -12.010 -22.070  0.00  0.00    +0.112 C 
ATOM      9  C   UNL     1      34.636  -8.922 -24.643  0.00  0.00    +0.141 C 
ATOM     10  C   UNL     1      31.714  -9.773 -21.524  0.00  0.00    +0.252 C 
ATOM     11  N   UNL     1      31.619 -13.364 -21.876  0.00  0.00    -0.346 N 
ATOM     12  H   UNL     1      30.964 -13.618 -21.185  0.00  0.00    +0.143 HD
ATOM     13  H   UNL     1      32.041 -14.059 -22.431  0.00  0.00    +0.143 HD
ENDROOT
BRANCH   5  14
ATOM     14  C   UNL     1      33.806 -13.615 -24.327  0.00  0.00    +0.016 C 
ATOM     15  C   UNL     1      34.568 -15.845 -23.721  0.00  0.00    +0.000 C 
ATOM     16  C   UNL     1      34.442 -14.476 -23.433  0.00  0.00    +0.001 C 
ATOM     17  C   UNL     1      34.041 -16.348 -24.935  0.00  0.00    +0.000 C 
ATOM     18  C   UNL     1      33.288 -14.109 -25.521  0.00  0.00    +0.001 C 
ATOM     19  C   UNL     1      33.404 -15.466 -25.824  0.00  0.00    +0.000 C 
ATOM     20  C   UNL     1      35.204 -16.726 -22.832  0.00  0.00    +0.000 C 
ATOM     21  C   UNL     1      34.167 -17.715 -25.224  0.00  0.00    +0.000 C 
ATOM     22  C   UNL     1      35.321 -18.082 -23.136  0.00  0.00    +0.000 C 
ATOM     23  C   UNL     1      34.803 -18.576 -24.329  0.00  0.00    +0.000 C 
ENDBRANCH   5  14
TORSDOF 1
ENDMDL
MODEL 6
REMARK VINA RESULT:      -9.9      2.306      7.492
REMARK  Name = 24905144
REMARK  1 active torsions:
REMARK  status: ('A' for Active; 'I' for Inactive)
REMARK    1  A    between atoms: C_5  and  C_11
REMARK                            x       y       z     vdW  Elec       q    Type
REMARK                         _______ _______ _______ _____ _____    ______ ____
ROOT
ATOM      1  N   UNL     1      34.380 -16.962 -24.401  0.00  0.00    -0.196 N 
ATOM      2  N   UNL     1      33.807 -15.752 -24.545  0.00  0.00    -0.180 NA
ATOM      3  N   UNL     1      35.399 -18.335 -22.688  0.00  0.00    -0.231 NA
ATOM      4  N   UNL     1      35.417 -17.210 -20.523  0.00  0.00    -0.234 NA
ATOM      5  C   UNL     1      33.869 -15.230 -23.315  0.00  0.00    +0.090 C 
ATOM      6  C   UNL     1      34.476 -16.096 -22.387  0.00  0.00    +0.150 C 
ATOM      7  C   UNL     1      34.797 -17.219 -23.130  0.00  0.00    +0.137 C 
ATOM      8  C   UNL     1      34.808 -16.115 -21.037  0.00  0.00    +0.112 C 
ATOM      9  C   UNL     1      34.494 -17.835 -25.545  0.00  0.00    +0.141 C 
ATOM     10  C   UNL     1      35.672 -18.238 -21.369  0.00  0.00    +0.252 C 
ATOM     11  N   UNL     1      34.520 -15.023 -20.199  0.00  0.00    -0.346 N 
ATOM     12  H   UNL     1      34.763 -15.056 -19.245  0.00  0.00    +0.143 HD
ATOM     13  H   UNL     1      34.077 -14.223 -20.566  0.00  0.00    +0.143 HD
ENDROOT
BRANCH   5  14
ATOM     14  C   UNL     1      33.344 -13.915 -23.071  0.00  0.00    +0.016 C 
ATOM     15  C   UNL     1      33.394 -11.520 -23.492  0.00  0.00    +0.000 C 
ATOM     16  C   UNL     1      33.895 -12.812 -23.721  0.00  0.00    +0.001 C 
ATOM     17  C   UNL     1      32.317 -11.345 -22.591  0.00  0.00    +0.000 C 
ATOM     18  C   UNL     1      32.285 -13.744 -22.184  0.00  0.00    +0.001 C 
ATOM     19  C   UNL     1      31.774 -12.468 -21.945  0.00  0.00    +0.000 C 
ATOM     20  C   UNL     1      33.937 -10.398 -24.139  0.00  0.00    +0.000 C 
ATOM     21  C   UNL     1      31.816 -10.054 -22.361  0.00  0.00    +0.000 C 
ATOM     22  C   UNL     1      33.427  -9.122 -23.899  0.00  0.00    +0.000 C 
ATOM     23  C   UNL     1      32.368  -8.950 -23.013  0.00  0.00    +0.000 C 
ENDBRANCH   5  14
TORSDOF 1
ENDMDL
MODEL 7
REMARK VINA RESULT:      -9.8      2.300      7.276
REMARK  Name = 24905144
REMARK  1 active torsions:
REMARK  status: ('A' for Active; 'I' for Inactive)
REMARK    1  A    between atoms: C_5  and  C_11
REMARK                            x       y       z     vdW  Elec       q    Type
REMARK                         _______ _______ _______ _____ _____    ______ ____
ROOT
ATOM      1  N   UNL     1      34.748 -16.593 -21.971  0.00  0.00    -0.196 N 
ATOM      2  N   UNL     1      34.293 -15.404 -21.535  0.00  0.00    -0.180 NA
ATOM      3  N   UNL     1      34.913 -17.875 -24.017  0.00  0.00    -0.231 NA
ATOM      4  N   UNL     1      33.967 -16.671 -25.916  0.00  0.00    -0.234 NA
ATOM      5  C   UNL     1      33.801 -14.835 -22.642  0.00  0.00    +0.090 C 
ATOM      6  C   UNL     1      33.941 -15.650 -23.779  0.00  0.00    +0.150 C 
ATOM      7  C   UNL     1      34.563 -16.792 -23.306  0.00  0.00    +0.137 C 
ATOM      8  C   UNL     1      33.642 -15.611 -25.137  0.00  0.00    +0.112 C 
ATOM      9  C   UNL     1      35.361 -17.506 -21.035  0.00  0.00    +0.141 C 
ATOM     10  C   UNL     1      34.574 -17.723 -25.316  0.00  0.00    +0.252 C 
ATOM     11  N   UNL     1      33.011 -14.493 -25.713  0.00  0.00    -0.346 N 
ATOM     12  H   UNL     1      32.808 -14.484 -26.677  0.00  0.00    +0.143 HD
ATOM     13  H   UNL     1      32.772 -13.719 -25.154  0.00  0.00    +0.143 HD
ENDROOT
BRANCH   5  14
ATOM     14  C   UNL     1      33.215 -13.525 -22.570  0.00  0.00    +0.016 C 
ATOM     15  C   UNL     1      33.182 -11.196 -23.272  0.00  0.00    +0.000 C 
ATOM     16  C   UNL     1      33.743 -12.483 -23.332  0.00  0.00    +0.001 C 
ATOM     17  C   UNL     1      32.069 -10.965 -22.429  0.00  0.00    +0.000 C 
ATOM     18  C   UNL     1      32.121 -13.298 -21.741  0.00  0.00    +0.001 C 
ATOM     19  C   UNL     1      31.551 -12.026 -21.669  0.00  0.00    +0.000 C 
ATOM     20  C   UNL     1      33.701 -10.135 -24.033  0.00  0.00    +0.000 C 
ATOM     21  C   UNL     1      31.509  -9.679 -22.369  0.00  0.00    +0.000 C 
ATOM     22  C   UNL     1      33.131  -8.864 -23.961  0.00  0.00    +0.000 C 
ATOM     23  C   UNL     1      32.037  -8.636 -23.131  0.00  0.00    +0.000 C 
ENDBRANCH   5  14
TORSDOF 1
ENDMDL
MODEL 8
REMARK VINA RESULT:      -9.7      8.825     11.020
REMARK  Name = 24905144
REMARK  1 active torsions:
REMARK  status: ('A' for Active; 'I' for Inactive)
REMARK    1  A    between atoms: C_5  and  C_11
REMARK                            x       y       z     vdW  Elec       q    Type
REMARK                         _______ _______ _______ _____ _____    ______ ____
ROOT
ATOM      1  N   UNL     1      35.734 -23.767 -12.656  0.00  0.00    -0.196 N 
ATOM      2  N   UNL     1      34.413 -24.020 -12.627  0.00  0.00    -0.180 NA
ATOM      3  N   UNL     1      37.462 -23.122 -14.225  0.00  0.00    -0.231 NA
ATOM      4  N   UNL     1      36.571 -22.829 -16.478  0.00  0.00    -0.234 NA
ATOM      5  C   UNL     1      34.032 -23.833 -13.896  0.00  0.00    +0.090 C 
ATOM      6  C   UNL     1      35.099 -23.461 -14.734  0.00  0.00    +0.150 C 
ATOM      7  C   UNL     1      36.197 -23.427 -13.892  0.00  0.00    +0.137 C 
ATOM      8  C   UNL     1      35.319 -23.147 -16.071  0.00  0.00    +0.112 C 
ATOM      9  C   UNL     1      36.505 -23.870 -11.440  0.00  0.00    +0.141 C 
ATOM     10  C   UNL     1      37.551 -22.836 -15.542  0.00  0.00    +0.252 C 
ATOM     11  N   UNL     1      34.266 -23.152 -17.004  0.00  0.00    -0.346 N 
ATOM     12  H   UNL     1      34.442 -22.927 -17.947  0.00  0.00    +0.143 HD
ATOM     13  H   UNL     1      33.353 -23.382 -16.716  0.00  0.00    +0.143 HD
ENDROOT
BRANCH   5  14
ATOM     14  C   UNL     1      32.655 -24.016 -14.262  0.00  0.00    +0.016 C 
ATOM     15  C   UNL     1      30.679 -23.253 -15.459  0.00  0.00    +0.000 C 
ATOM     16  C   UNL     1      32.025 -23.089 -15.093  0.00  0.00    +0.001 C 
ATOM     17  C   UNL     1      29.963 -24.375 -14.977  0.00  0.00    +0.000 C 
ATOM     18  C   UNL     1      31.951 -25.119 -13.788  0.00  0.00    +0.001 C 
ATOM     19  C   UNL     1      30.613 -25.298 -14.142  0.00  0.00    +0.000 C 
ATOM     20  C   UNL     1      30.030 -22.330 -16.294  0.00  0.00    +0.000 C 
ATOM     21  C   UNL     1      28.617 -24.539 -15.343  0.00  0.00    +0.000 C 
ATOM     22  C   UNL     1      28.692 -22.509 -16.648  0.00  0.00    +0.000 C 
ATOM     23  C   UNL     1      27.987 -23.611 -16.173  0.00  0.00    +0.000 C 
ENDBRANCH   5  14
TORSDOF 1
ENDMDL
MODEL 9
REMARK VINA RESULT:      -9.7      7.287     11.024
REMARK  Name = 24905144
REMARK  1 active torsions:
REMARK  status: ('A' for Active; 'I' for Inactive)
REMARK    1  A    between atoms: C_5  and  C_11
REMARK                            x       y       z     vdW  Elec       q    Type
REMARK                         _______ _______ _______ _____ _____    ______ ____
ROOT
ATOM      1  N   UNL     1      37.936 -24.640 -14.118  0.00  0.00    -0.196 N 
ATOM      2  N   UNL     1      37.602 -24.182 -15.339  0.00  0.00    -0.180 NA
ATOM      3  N   UNL     1      36.966 -24.927 -11.919  0.00  0.00    -0.231 NA
ATOM      4  N   UNL     1      34.653 -24.154 -11.846  0.00  0.00    -0.234 NA
ATOM      5  C   UNL     1      36.332 -23.789 -15.187  0.00  0.00    +0.090 C 
ATOM      6  C   UNL     1      35.854 -23.993 -13.880  0.00  0.00    +0.150 C 
ATOM      7  C   UNL     1      36.927 -24.551 -13.208  0.00  0.00    +0.137 C 
ATOM      8  C   UNL     1      34.685 -23.797 -13.153  0.00  0.00    +0.112 C 
ATOM      9  C   UNL     1      39.265 -25.160 -13.893  0.00  0.00    +0.141 C 
ATOM     10  C   UNL     1      35.780 -24.690 -11.318  0.00  0.00    +0.252 C 
ATOM     11  N   UNL     1      33.539 -23.239 -13.748  0.00  0.00    -0.346 N 
ATOM     12  H   UNL     1      32.721 -23.108 -13.215  0.00  0.00    +0.143 HD
ATOM     13  H   UNL     1      33.555 -22.977 -14.697  0.00  0.00    +0.143 HD
ENDROOT
BRANCH   5  14
ATOM     14  C   UNL     1      35.620 -23.230 -16.303  0.00  0.00    +0.016 C 
ATOM     15  C   UNL     1      35.599 -21.842 -18.300  0.00  0.00    +0.000 C 
ATOM     16  C   UNL     1      36.281 -22.398 -17.205  0.00  0.00    +0.001 C 
ATOM     17  C   UNL     1      34.227 -22.137 -18.482  0.00  0.00    +0.000 C 
ATOM     18  C   UNL     1      34.271 -23.519 -16.481  0.00  0.00    +0.001 C 
ATOM     19  C   UNL     1      33.577 -22.977 -17.563  0.00  0.00    +0.000 C 
ATOM     20  C   UNL     1      36.249 -21.002 -19.219  0.00  0.00    +0.000 C 
ATOM     21  C   UNL     1      33.544 -21.581 -19.576  0.00  0.00    +0.000 C 
ATOM     22  C   UNL     1      35.556 -20.459 -20.301  0.00  0.00    +0.000 C 
ATOM     23  C   UNL     1      34.206 -20.748 -20.479  0.00  0.00    +0.000 C 
ENDBRANCH   5  14
TORSDOF 1
ENDMDL
