MODEL 1
REMARK VINA RESULT:     -10.3      0.000      0.000
REMARK  Name = 51040
REMARK  6 active torsions:
REMARK  status: ('A' for Active; 'I' for Inactive)
REMARK    1  A    between atoms: C_2  and  C_6
REMARK    2  A    between atoms: C_2  and  C_13
REMARK    3  A    between atoms: C_3  and  C_9
REMARK    4  A    between atoms: C_13  and  C_15
REMARK    5  A    between atoms: C_15  and  C_16
REMARK    6  A    between atoms: C_21  and  O_22
REMARK                            x       y       z     vdW  Elec       q    Type
REMARK                         _______ _______ _______ _____ _____    ______ ____
ROOT
ATOM      1  O   UNL     1      33.702 -24.244 -18.661  0.00  0.00    -0.291 OA
ATOM      2  C   UNL     1      33.525 -23.061 -18.309  0.00  0.00    +0.181 C 
ENDROOT
BRANCH   2   6
ATOM      3  C   UNL     1      34.779 -19.900 -20.771  0.00  0.00    -0.023 C 
ATOM      4  C   UNL     1      33.434 -20.050 -20.537  0.00  0.00    -0.004 C 
ATOM      5  C   UNL     1      35.733 -20.731 -20.241  0.00  0.00    -0.004 C 
ATOM      6  C   UNL     1      33.959 -21.966 -19.162  0.00  0.00    +0.035 C 
ATOM      7  C   UNL     1      33.018 -21.100 -19.719  0.00  0.00    +0.003 C 
ATOM      8  C   UNL     1      35.317 -21.781 -19.424  0.00  0.00    +0.003 C 
BRANCH   3   9
ATOM      9  C   UNL     1      35.237 -18.743 -21.674  0.00  0.00    +0.019 C 
ATOM     10  C   UNL     1      34.736 -17.355 -21.214  0.00  0.00    +0.004 C 
ATOM     11  C   UNL     1      34.712 -18.964 -23.109  0.00  0.00    +0.004 C 
ATOM     12  C   UNL     1      36.779 -18.684 -21.701  0.00  0.00    +0.004 C 
ENDBRANCH   3   9
ENDBRANCH   2   6
BRANCH   2  13
ATOM     13  C   UNL     1      32.876 -22.757 -16.949  0.00  0.00    +0.138 C 
BRANCH  13  15
ATOM     14  O   UNL     1      32.650 -24.035 -14.916  0.00  0.00    -0.291 OA
ATOM     15  C   UNL     1      33.396 -23.531 -15.750  0.00  0.00    +0.181 C 
BRANCH  15  16
ATOM     16  C   UNL     1      34.872 -23.654 -15.567  0.00  0.00    +0.035 C 
ATOM     17  C   UNL     1      35.659 -22.546 -15.787  0.00  0.00    +0.006 C 
ATOM     18  C   UNL     1      35.390 -24.870 -15.184  0.00  0.00    +0.006 C 
ATOM     19  C   UNL     1      37.039 -22.661 -15.617  0.00  0.00    +0.037 C 
ATOM     20  C   UNL     1      36.770 -24.985 -15.012  0.00  0.00    +0.037 C 
ATOM     21  C   UNL     1      37.595 -23.880 -15.229  0.00  0.00    +0.139 C 
BRANCH  21  22
ATOM     22  O   UNL     1      38.941 -23.992 -15.064  0.00  0.00    -0.471 OA
ATOM     23  C   UNL     1      39.452 -25.290 -14.762  0.00  0.00    +0.252 C 
ENDBRANCH  21  22
ENDBRANCH  15  16
ENDBRANCH  13  15
ENDBRANCH   2  13
TORSDOF 6
ENDMDL
MODEL 2
REMARK VINA RESULT:     -10.0      2.250      4.900
REMARK  Name = 51040
REMARK  6 active torsions:
REMARK  status: ('A' for Active; 'I' for Inactive)
REMARK    1  A    between atoms: C_2  and  C_6
REMARK    2  A    between atoms: C_2  and  C_13
REMARK    3  A    between atoms: C_3  and  C_9
REMARK    4  A    between atoms: C_13  and  C_15
REMARK    5  A    between atoms: C_15  and  C_16
REMARK    6  A    between atoms: C_21  and  O_22
REMARK                            x       y       z     vdW  Elec       q    Type
REMARK                         _______ _______ _______ _____ _____    ______ ____
ROOT
ATOM      1  O   UNL     1      33.701 -24.166 -18.507  0.00  0.00    -0.291 OA
ATOM      2  C   UNL     1      34.011 -23.032 -18.090  0.00  0.00    +0.181 C 
ENDROOT
BRANCH   2   6
ATOM      3  C   UNL     1      34.819 -19.919 -20.788  0.00  0.00    -0.023 C 
ATOM      4  C   UNL     1      35.879 -20.589 -20.230  0.00  0.00    -0.004 C 
ATOM      5  C   UNL     1      33.509 -20.216 -20.508  0.00  0.00    -0.004 C 
ATOM      6  C   UNL     1      34.291 -21.954 -19.024  0.00  0.00    +0.035 C 
ATOM      7  C   UNL     1      35.611 -21.624 -19.334  0.00  0.00    +0.003 C 
ATOM      8  C   UNL     1      33.240 -21.249 -19.612  0.00  0.00    +0.003 C 
BRANCH   3   9
ATOM      9  C   UNL     1      35.116 -18.778 -21.775  0.00  0.00    +0.019 C 
ATOM     10  C   UNL     1      34.430 -17.443 -21.410  0.00  0.00    +0.004 C 
ATOM     11  C   UNL     1      34.627 -19.171 -23.186  0.00  0.00    +0.004 C 
ATOM     12  C   UNL     1      36.635 -18.512 -21.820  0.00  0.00    +0.004 C 
ENDBRANCH   3   9
ENDBRANCH   2   6
BRANCH   2  13
ATOM     13  C   UNL     1      34.130 -22.782 -16.578  0.00  0.00    +0.138 C 
BRANCH  13  15
ATOM     14  O   UNL     1      33.966 -24.582 -14.980  0.00  0.00    -0.291 OA
ATOM     15  C   UNL     1      33.388 -23.740 -15.661  0.00  0.00    +0.181 C 
BRANCH  15  16
ATOM     16  C   UNL     1      31.899 -23.670 -15.614  0.00  0.00    +0.035 C 
ATOM     17  C   UNL     1      31.229 -24.458 -14.705  0.00  0.00    +0.006 C 
ATOM     18  C   UNL     1      31.250 -22.820 -16.481  0.00  0.00    +0.006 C 
ATOM     19  C   UNL     1      29.836 -24.394 -14.662  0.00  0.00    +0.037 C 
ATOM     20  C   UNL     1      29.856 -22.755 -16.436  0.00  0.00    +0.037 C 
ATOM     21  C   UNL     1      29.149 -23.542 -15.527  0.00  0.00    +0.139 C 
BRANCH  21  22
ATOM     22  O   UNL     1      27.791 -23.481 -15.484  0.00  0.00    -0.471 OA
ATOM     23  C   UNL     1      27.177 -22.316 -16.034  0.00  0.00    +0.252 C 
ENDBRANCH  21  22
ENDBRANCH  15  16
ENDBRANCH  13  15
ENDBRANCH   2  13
TORSDOF 6
ENDMDL
MODEL 3
REMARK VINA RESULT:      -9.6      4.571      7.844
REMARK  Name = 51040
REMARK  6 active torsions:
REMARK  status: ('A' for Active; 'I' for Inactive)
REMARK    1  A    between atoms: C_2  and  C_6
REMARK    2  A    between atoms: C_2  and  C_13
REMARK    3  A    between atoms: C_3  and  C_9
REMARK    4  A    between atoms: C_13  and  C_15
REMARK    5  A    between atoms: C_15  and  C_16
REMARK    6  A    between atoms: C_21  and  O_22
REMARK                            x       y       z     vdW  Elec       q    Type
REMARK                         _______ _______ _______ _____ _____    ______ ____
ROOT
ATOM      1  O   UNL     1      34.204 -16.540 -23.520  0.00  0.00    -0.291 OA
ATOM      2  C   UNL     1      34.254 -16.103 -22.354  0.00  0.00    +0.181 C 
ENDROOT
BRANCH   2   6
ATOM      3  C   UNL     1      32.250 -12.561 -21.323  0.00  0.00    -0.023 C 
ATOM      4  C   UNL     1      32.488 -13.485 -20.336  0.00  0.00    -0.004 C 
ATOM      5  C   UNL     1      32.634 -12.736 -22.628  0.00  0.00    -0.004 C 
ATOM      6  C   UNL     1      33.560 -14.876 -21.996  0.00  0.00    +0.035 C 
ATOM      7  C   UNL     1      33.155 -14.662 -20.679  0.00  0.00    +0.003 C 
ATOM      8  C   UNL     1      33.299 -13.913 -22.971  0.00  0.00    +0.003 C 
BRANCH   3   9
ATOM      9  C   UNL     1      31.515 -11.264 -20.945  0.00  0.00    +0.019 C 
ATOM     10  C   UNL     1      32.119  -9.994 -21.585  0.00  0.00    +0.004 C 
ATOM     11  C   UNL     1      31.561 -11.068 -19.414  0.00  0.00    +0.004 C 
ATOM     12  C   UNL     1      30.043 -11.349 -21.402  0.00  0.00    +0.004 C 
ENDBRANCH   3   9
ENDBRANCH   2   6
BRANCH   2  13
ATOM     13  C   UNL     1      35.083 -16.846 -21.294  0.00  0.00    +0.138 C 
BRANCH  13  15
ATOM     14  O   UNL     1      36.379 -18.507 -22.469  0.00  0.00    -0.291 OA
ATOM     15  C   UNL     1      35.517 -18.263 -21.630  0.00  0.00    +0.181 C 
BRANCH  15  16
ATOM     16  C   UNL     1      34.845 -19.398 -20.934  0.00  0.00    +0.035 C 
ATOM     17  C   UNL     1      33.469 -19.420 -20.881  0.00  0.00    +0.006 C 
ATOM     18  C   UNL     1      35.625 -20.382 -20.370  0.00  0.00    +0.006 C 
ATOM     19  C   UNL     1      32.840 -20.480 -20.229  0.00  0.00    +0.037 C 
ATOM     20  C   UNL     1      34.996 -21.444 -19.718  0.00  0.00    +0.037 C 
ATOM     21  C   UNL     1      33.603 -21.493 -19.648  0.00  0.00    +0.139 C 
BRANCH  21  22
ATOM     22  O   UNL     1      32.989 -22.527 -19.012  0.00  0.00    -0.471 OA
ATOM     23  C   UNL     1      33.543 -22.941 -17.763  0.00  0.00    +0.252 C 
ENDBRANCH  21  22
ENDBRANCH  15  16
ENDBRANCH  13  15
ENDBRANCH   2  13
TORSDOF 6
ENDMDL
MODEL 4
REMARK VINA RESULT:      -9.6      3.078      8.567
REMARK  Name = 51040
REMARK  6 active torsions:
REMARK  status: ('A' for Active; 'I' for Inactive)
REMARK    1  A    between atoms: C_2  and  C_6
REMARK    2  A    between atoms: C_2  and  C_13
REMARK    3  A    between atoms: C_3  and  C_9
REMARK    4  A    between atoms: C_13  and  C_15
REMARK    5  A    between atoms: C_15  and  C_16
REMARK    6  A    between atoms: C_21  and  O_22
REMARK                            x       y       z     vdW  Elec       q    Type
REMARK                         _______ _______ _______ _____ _____    ______ ____
ROOT
ATOM      1  O   UNL     1      32.887 -20.761 -20.309  0.00  0.00    -0.291 OA
ATOM      2  C   UNL     1      34.055 -21.120 -20.064  0.00  0.00    +0.181 C 
ENDROOT
BRANCH   2   6
ATOM      3  C   UNL     1      34.955 -23.132 -16.490  0.00  0.00    -0.023 C 
ATOM      4  C   UNL     1      35.948 -22.404 -17.095  0.00  0.00    -0.004 C 
ATOM      5  C   UNL     1      33.682 -23.236 -16.994  0.00  0.00    -0.004 C 
ATOM      6  C   UNL     1      34.367 -21.817 -18.826  0.00  0.00    +0.035 C 
ATOM      7  C   UNL     1      35.649 -21.735 -18.283  0.00  0.00    +0.003 C 
ATOM      8  C   UNL     1      33.384 -22.568 -18.181  0.00  0.00    +0.003 C 
BRANCH   3   9
ATOM      9  C   UNL     1      35.285 -23.870 -15.182  0.00  0.00    +0.019 C 
ATOM     10  C   UNL     1      35.686 -25.348 -15.383  0.00  0.00    +0.004 C 
ATOM     11  C   UNL     1      34.053 -23.854 -14.251  0.00  0.00    +0.004 C 
ATOM     12  C   UNL     1      36.465 -23.170 -14.475  0.00  0.00    +0.004 C 
ENDBRANCH   3   9
ENDBRANCH   2   6
BRANCH   2  13
ATOM     13  C   UNL     1      35.179 -20.795 -21.060  0.00  0.00    +0.138 C 
BRANCH  13  15
ATOM     14  O   UNL     1      36.143 -18.711 -20.322  0.00  0.00    -0.291 OA
ATOM     15  C   UNL     1      35.565 -19.333 -21.209  0.00  0.00    +0.181 C 
BRANCH  15  16
ATOM     16  C   UNL     1      35.199 -18.624 -22.468  0.00  0.00    +0.035 C 
ATOM     17  C   UNL     1      35.255 -17.249 -22.493  0.00  0.00    +0.006 C 
ATOM     18  C   UNL     1      34.819 -19.371 -23.560  0.00  0.00    +0.006 C 
ATOM     19  C   UNL     1      34.911 -16.585 -23.671  0.00  0.00    +0.037 C 
ATOM     20  C   UNL     1      34.476 -18.708 -24.739  0.00  0.00    +0.037 C 
ATOM     21  C   UNL     1      34.522 -17.315 -24.794  0.00  0.00    +0.139 C 
BRANCH  21  22
ATOM     22  O   UNL     1      34.187 -16.667 -25.943  0.00  0.00    -0.471 OA
ATOM     23  C   UNL     1      33.485 -15.431 -25.810  0.00  0.00    +0.252 C 
ENDBRANCH  21  22
ENDBRANCH  15  16
ENDBRANCH  13  15
ENDBRANCH   2  13
TORSDOF 6
ENDMDL
MODEL 5
REMARK VINA RESULT:      -9.3      4.573      9.474
REMARK  Name = 51040
REMARK  6 active torsions:
REMARK  status: ('A' for Active; 'I' for Inactive)
REMARK    1  A    between atoms: C_2  and  C_6
REMARK    2  A    between atoms: C_2  and  C_13
REMARK    3  A    between atoms: C_3  and  C_9
REMARK    4  A    between atoms: C_13  and  C_15
REMARK    5  A    between atoms: C_15  and  C_16
REMARK    6  A    between atoms: C_21  and  O_22
REMARK                            x       y       z     vdW  Elec       q    Type
REMARK                         _______ _______ _______ _____ _____    ______ ____
ROOT
ATOM      1  O   UNL     1      34.516 -18.755 -23.215  0.00  0.00    -0.291 OA
ATOM      2  C   UNL     1      34.631 -18.536 -21.993  0.00  0.00    +0.181 C 
ENDROOT
BRANCH   2   6
ATOM      3  C   UNL     1      34.046 -21.628 -19.214  0.00  0.00    -0.023 C 
ATOM      4  C   UNL     1      32.945 -20.951 -19.677  0.00  0.00    -0.004 C 
ATOM      5  C   UNL     1      35.328 -21.344 -19.613  0.00  0.00    -0.004 C 
ATOM      6  C   UNL     1      34.428 -19.607 -21.030  0.00  0.00    +0.035 C 
ATOM      7  C   UNL     1      33.140 -19.924 -20.601  0.00  0.00    +0.003 C 
ATOM      8  C   UNL     1      35.523 -20.317 -20.536  0.00  0.00    +0.003 C 
BRANCH   3   9
ATOM      9  C   UNL     1      33.831 -22.759 -18.195  0.00  0.00    +0.019 C 
ATOM     10  C   UNL     1      34.880 -22.785 -17.060  0.00  0.00    +0.004 C 
ATOM     11  C   UNL     1      33.903 -24.124 -18.912  0.00  0.00    +0.004 C 
ATOM     12  C   UNL     1      32.446 -22.606 -17.532  0.00  0.00    +0.004 C 
ENDBRANCH   3   9
ENDBRANCH   2   6
BRANCH   2  13
ATOM     13  C   UNL     1      34.957 -17.117 -21.498  0.00  0.00    +0.138 C 
BRANCH  13  15
ATOM     14  O   UNL     1      35.482 -15.934 -23.534  0.00  0.00    -0.291 OA
ATOM     15  C   UNL     1      34.814 -15.988 -22.505  0.00  0.00    +0.181 C 
BRANCH  15  16
ATOM     16  C   UNL     1      33.847 -14.891 -22.212  0.00  0.00    +0.035 C 
ATOM     17  C   UNL     1      33.426 -14.088 -23.248  0.00  0.00    +0.006 C 
ATOM     18  C   UNL     1      33.412 -14.722 -20.917  0.00  0.00    +0.006 C 
ATOM     19  C   UNL     1      32.522 -13.061 -22.975  0.00  0.00    +0.037 C 
ATOM     20  C   UNL     1      32.508 -13.695 -20.644  0.00  0.00    +0.037 C 
ATOM     21  C   UNL     1      32.063 -12.864 -21.672  0.00  0.00    +0.139 C 
BRANCH  21  22
ATOM     22  O   UNL     1      31.182 -11.862 -21.406  0.00  0.00    -0.471 OA
ATOM     23  C   UNL     1      31.246 -11.270 -20.110  0.00  0.00    +0.252 C 
ENDBRANCH  21  22
ENDBRANCH  15  16
ENDBRANCH  13  15
ENDBRANCH   2  13
TORSDOF 6
ENDMDL
MODEL 6
REMARK VINA RESULT:      -9.3      2.903      8.212
REMARK  Name = 51040
REMARK  6 active torsions:
REMARK  status: ('A' for Active; 'I' for Inactive)
REMARK    1  A    between atoms: C_2  and  C_6
REMARK    2  A    between atoms: C_2  and  C_13
REMARK    3  A    between atoms: C_3  and  C_9
REMARK    4  A    between atoms: C_13  and  C_15
REMARK    5  A    between atoms: C_15  and  C_16
REMARK    6  A    between atoms: C_21  and  O_22
REMARK                            x       y       z     vdW  Elec       q    Type
REMARK                         _______ _______ _______ _____ _____    ______ ____
ROOT
ATOM      1  O   UNL     1      36.898 -20.130 -19.651  0.00  0.00    -0.291 OA
ATOM      2  C   UNL     1      35.985 -20.965 -19.491  0.00  0.00    +0.181 C 
ENDROOT
BRANCH   2   6
ATOM      3  C   UNL     1      35.697 -23.145 -15.915  0.00  0.00    -0.023 C 
ATOM      4  C   UNL     1      36.860 -22.459 -16.168  0.00  0.00    -0.004 C 
ATOM      5  C   UNL     1      34.625 -23.153 -16.771  0.00  0.00    -0.004 C 
ATOM      6  C   UNL     1      35.886 -21.720 -18.252  0.00  0.00    +0.035 C 
ATOM      7  C   UNL     1      36.955 -21.734 -17.356  0.00  0.00    +0.003 C 
ATOM      8  C   UNL     1      34.721 -22.430 -17.959  0.00  0.00    +0.003 C 
BRANCH   3   9
ATOM      9  C   UNL     1      35.593 -23.944 -14.605  0.00  0.00    +0.019 C 
ATOM     10  C   UNL     1      36.453 -23.373 -13.454  0.00  0.00    +0.004 C 
ATOM     11  C   UNL     1      36.059 -25.396 -14.845  0.00  0.00    +0.004 C 
ATOM     12  C   UNL     1      34.129 -23.955 -14.118  0.00  0.00    +0.004 C 
ENDBRANCH   3   9
ENDBRANCH   2   6
BRANCH   2  13
ATOM     13  C   UNL     1      34.978 -21.222 -20.623  0.00  0.00    +0.138 C 
BRANCH  13  15
ATOM     14  O   UNL     1      32.738 -20.350 -20.429  0.00  0.00    -0.291 OA
ATOM     15  C   UNL     1      33.888 -20.183 -20.823  0.00  0.00    +0.181 C 
BRANCH  15  16
ATOM     16  C   UNL     1      34.225 -18.927 -21.554  0.00  0.00    +0.035 C 
ATOM     17  C   UNL     1      33.966 -17.719 -20.947  0.00  0.00    +0.006 C 
ATOM     18  C   UNL     1      34.785 -19.023 -22.808  0.00  0.00    +0.006 C 
ATOM     19  C   UNL     1      34.280 -16.545 -21.631  0.00  0.00    +0.037 C 
ATOM     20  C   UNL     1      35.100 -17.848 -23.492  0.00  0.00    +0.037 C 
ATOM     21  C   UNL     1      34.848 -16.609 -22.903  0.00  0.00    +0.139 C 
BRANCH  21  22
ATOM     22  O   UNL     1      35.154 -15.463 -23.570  0.00  0.00    -0.471 OA
ATOM     23  C   UNL     1      34.309 -14.335 -23.343  0.00  0.00    +0.252 C 
ENDBRANCH  21  22
ENDBRANCH  15  16
ENDBRANCH  13  15
ENDBRANCH   2  13
TORSDOF 6
ENDMDL
MODEL 7
REMARK VINA RESULT:      -9.3      6.931     10.651
REMARK  Name = 51040
REMARK  6 active torsions:
REMARK  status: ('A' for Active; 'I' for Inactive)
REMARK    1  A    between atoms: C_2  and  C_6
REMARK    2  A    between atoms: C_2  and  C_13
REMARK    3  A    between atoms: C_3  and  C_9
REMARK    4  A    between atoms: C_13  and  C_15
REMARK    5  A    between atoms: C_15  and  C_16
REMARK    6  A    between atoms: C_21  and  O_22
REMARK                            x       y       z     vdW  Elec       q    Type
REMARK                         _______ _______ _______ _____ _____    ______ ____
ROOT
ATOM      1  O   UNL     1      32.043 -14.152 -22.398  0.00  0.00    -0.291 OA
ATOM      2  C   UNL     1      32.939 -13.422 -22.866  0.00  0.00    +0.181 C 
ENDROOT
BRANCH   2   6
ATOM      3  C   UNL     1      32.393  -9.267 -23.104  0.00  0.00    -0.023 C 
ATOM      4  C   UNL     1      31.582  -9.983 -22.259  0.00  0.00    -0.004 C 
ATOM      5  C   UNL     1      33.373  -9.840 -23.875  0.00  0.00    -0.004 C 
ATOM      6  C   UNL     1      32.750 -11.982 -22.949  0.00  0.00    +0.035 C 
ATOM      7  C   UNL     1      31.764 -11.364 -22.179  0.00  0.00    +0.003 C 
ATOM      8  C   UNL     1      33.554 -11.221 -23.796  0.00  0.00    +0.003 C 
BRANCH   3   9
ATOM      9  C   UNL     1      32.192  -7.744 -23.191  0.00  0.00    +0.019 C 
ATOM     10  C   UNL     1      31.869  -7.078 -21.835  0.00  0.00    +0.004 C 
ATOM     11  C   UNL     1      31.019  -7.430 -24.144  0.00  0.00    +0.004 C 
ATOM     12  C   UNL     1      33.476  -7.081 -23.731  0.00  0.00    +0.004 C 
ENDBRANCH   3   9
ENDBRANCH   2   6
BRANCH   2  13
ATOM     13  C   UNL     1      34.239 -14.052 -23.392  0.00  0.00    +0.138 C 
BRANCH  13  15
ATOM     14  O   UNL     1      33.665 -15.660 -25.095  0.00  0.00    -0.291 OA
ATOM     15  C   UNL     1      34.138 -15.448 -23.982  0.00  0.00    +0.181 C 
BRANCH  15  16
ATOM     16  C   UNL     1      34.605 -16.603 -23.163  0.00  0.00    +0.035 C 
ATOM     17  C   UNL     1      34.827 -17.810 -23.788  0.00  0.00    +0.006 C 
ATOM     18  C   UNL     1      34.796 -16.420 -21.812  0.00  0.00    +0.006 C 
ATOM     19  C   UNL     1      35.262 -18.891 -23.021  0.00  0.00    +0.037 C 
ATOM     20  C   UNL     1      35.233 -17.501 -21.045  0.00  0.00    +0.037 C 
ATOM     21  C   UNL     1      35.466 -18.737 -21.650  0.00  0.00    +0.139 C 
BRANCH  21  22
ATOM     22  O   UNL     1      35.890 -19.792 -20.903  0.00  0.00    -0.471 OA
ATOM     23  C   UNL     1      34.885 -20.596 -20.286  0.00  0.00    +0.252 C 
ENDBRANCH  21  22
ENDBRANCH  15  16
ENDBRANCH  13  15
ENDBRANCH   2  13
TORSDOF 6
ENDMDL
MODEL 8
REMARK VINA RESULT:      -9.3      2.196      7.486
REMARK  Name = 51040
REMARK  6 active torsions:
REMARK  status: ('A' for Active; 'I' for Inactive)
REMARK    1  A    between atoms: C_2  and  C_6
REMARK    2  A    between atoms: C_2  and  C_13
REMARK    3  A    between atoms: C_3  and  C_9
REMARK    4  A    between atoms: C_13  and  C_15
REMARK    5  A    between atoms: C_15  and  C_16
REMARK    6  A    between atoms: C_21  and  O_22
REMARK                            x       y       z     vdW  Elec       q    Type
REMARK                         _______ _______ _______ _____ _____    ______ ____
ROOT
ATOM      1  O   UNL     1      31.342 -24.110 -16.328  0.00  0.00    -0.291 OA
ATOM      2  C   UNL     1      32.391 -23.436 -16.353  0.00  0.00    +0.181 C 
ENDROOT
BRANCH   2   6
ATOM      3  C   UNL     1      35.316 -23.946 -13.385  0.00  0.00    -0.023 C 
ATOM      4  C   UNL     1      35.700 -23.424 -14.594  0.00  0.00    -0.004 C 
ATOM      5  C   UNL     1      34.025 -24.311 -13.097  0.00  0.00    -0.004 C 
ATOM      6  C   UNL     1      33.405 -23.613 -15.325  0.00  0.00    +0.035 C 
ATOM      7  C   UNL     1      34.728 -23.253 -15.581  0.00  0.00    +0.003 C 
ATOM      8  C   UNL     1      33.053 -24.142 -14.083  0.00  0.00    +0.003 C 
BRANCH   3   9
ATOM      9  C   UNL     1      36.388 -24.134 -12.298  0.00  0.00    +0.019 C 
ATOM     10  C   UNL     1      37.303 -25.358 -12.529  0.00  0.00    +0.004 C 
ATOM     11  C   UNL     1      35.708 -24.325 -10.925  0.00  0.00    +0.004 C 
ATOM     12  C   UNL     1      37.298 -22.889 -12.246  0.00  0.00    +0.004 C 
ENDBRANCH   3   9
ENDBRANCH   2   6
BRANCH   2  13
ATOM     13  C   UNL     1      32.600 -22.389 -17.458  0.00  0.00    +0.138 C 
BRANCH  13  15
ATOM     14  O   UNL     1      33.753 -23.946 -18.894  0.00  0.00    -0.291 OA
ATOM     15  C   UNL     1      33.511 -22.776 -18.610  0.00  0.00    +0.181 C 
BRANCH  15  16
ATOM     16  C   UNL     1      34.158 -21.691 -19.403  0.00  0.00    +0.035 C 
ATOM     17  C   UNL     1      33.357 -20.772 -20.041  0.00  0.00    +0.006 C 
ATOM     18  C   UNL     1      35.533 -21.649 -19.466  0.00  0.00    +0.006 C 
ATOM     19  C   UNL     1      33.962 -19.758 -20.784  0.00  0.00    +0.037 C 
ATOM     20  C   UNL     1      36.138 -20.634 -20.208  0.00  0.00    +0.037 C 
ATOM     21  C   UNL     1      35.352 -19.688 -20.867  0.00  0.00    +0.139 C 
BRANCH  21  22
ATOM     22  O   UNL     1      35.942 -18.699 -21.592  0.00  0.00    -0.471 OA
ATOM     23  C   UNL     1      35.307 -17.421 -21.581  0.00  0.00    +0.252 C 
ENDBRANCH  21  22
ENDBRANCH  15  16
ENDBRANCH  13  15
ENDBRANCH   2  13
TORSDOF 6
ENDMDL
MODEL 9
REMARK VINA RESULT:      -9.2      7.957     12.595
REMARK  Name = 51040
REMARK  6 active torsions:
REMARK  status: ('A' for Active; 'I' for Inactive)
REMARK    1  A    between atoms: C_2  and  C_6
REMARK    2  A    between atoms: C_2  and  C_13
REMARK    3  A    between atoms: C_3  and  C_9
REMARK    4  A    between atoms: C_13  and  C_15
REMARK    5  A    between atoms: C_15  and  C_16
REMARK    6  A    between atoms: C_21  and  O_22
REMARK                            x       y       z     vdW  Elec       q    Type
REMARK                         _______ _______ _______ _____ _____    ______ ____
ROOT
ATOM      1  O   UNL     1      33.815 -12.316 -23.563  0.00  0.00    -0.291 OA
ATOM      2  C   UNL     1      33.104 -13.081 -22.881  0.00  0.00    +0.181 C 
ENDROOT
BRANCH   2   6
ATOM      3  C   UNL     1      34.319 -17.034 -22.159  0.00  0.00    -0.023 C 
ATOM      4  C   UNL     1      34.659 -16.457 -23.357  0.00  0.00    -0.004 C 
ATOM      5  C   UNL     1      33.601 -16.384 -21.186  0.00  0.00    -0.004 C 
ATOM      6  C   UNL     1      33.525 -14.451 -22.632  0.00  0.00    +0.035 C 
ATOM      7  C   UNL     1      34.256 -15.143 -23.597  0.00  0.00    +0.003 C 
ATOM      8  C   UNL     1      33.198 -15.072 -21.426  0.00  0.00    +0.003 C 
BRANCH   3   9
ATOM      9  C   UNL     1      34.763 -18.483 -21.896  0.00  0.00    +0.019 C 
ATOM     10  C   UNL     1      36.126 -18.597 -21.177  0.00  0.00    +0.004 C 
ATOM     11  C   UNL     1      34.889 -19.239 -23.235  0.00  0.00    +0.004 C 
ATOM     12  C   UNL     1      33.719 -19.192 -21.008  0.00  0.00    +0.004 C 
ENDBRANCH   3   9
ENDBRANCH   2   6
BRANCH   2  13
ATOM     13  C   UNL     1      31.759 -12.583 -22.329  0.00  0.00    +0.138 C 
BRANCH  13  15
ATOM     14  O   UNL     1      31.804 -12.094 -19.968  0.00  0.00    -0.291 OA
ATOM     15  C   UNL     1      31.809 -11.667 -21.119  0.00  0.00    +0.181 C 
BRANCH  15  16
ATOM     16  C   UNL     1      31.833 -10.192 -21.342  0.00  0.00    +0.035 C 
ATOM     17  C   UNL     1      32.143  -9.369 -20.283  0.00  0.00    +0.006 C 
ATOM     18  C   UNL     1      31.547  -9.710 -22.599  0.00  0.00    +0.006 C 
ATOM     19  C   UNL     1      32.165  -7.990 -20.491  0.00  0.00    +0.037 C 
ATOM     20  C   UNL     1      31.570  -8.330 -22.808  0.00  0.00    +0.037 C 
ATOM     21  C   UNL     1      31.879  -7.470 -21.754  0.00  0.00    +0.139 C 
BRANCH  21  22
ATOM     22  O   UNL     1      31.900  -6.125 -21.956  0.00  0.00    -0.471 OA
ATOM     23  C   UNL     1      30.641  -5.455 -22.002  0.00  0.00    +0.252 C 
ENDBRANCH  21  22
ENDBRANCH  15  16
ENDBRANCH  13  15
ENDBRANCH   2  13
TORSDOF 6
ENDMDL
