MODEL 1
REMARK VINA RESULT:      -9.2      0.000      0.000
REMARK  Name = 462919
REMARK  5 active torsions:
REMARK  status: ('A' for Active; 'I' for Inactive)
REMARK    1  A    between atoms: N_2  and  C_6
REMARK    2  A    between atoms: C_3  and  C_17
REMARK    3  A    between atoms: C_5  and  S_11
REMARK    4  A    between atoms: S_11  and  N_14
REMARK    5  A    between atoms: C_18  and  S_23
REMARK                            x       y       z     vdW  Elec       q    Type
REMARK                         _______ _______ _______ _____ _____    ______ ____
ROOT
ATOM      1  O   UNL     1      34.945 -16.204 -20.511  0.00  0.00    -0.270 OA
ATOM      2  N   UNL     1      33.682 -17.703 -21.800  0.00  0.00    -0.280 N 
ATOM      3  C   UNL     1      34.237 -16.454 -21.497  0.00  0.00    +0.250 C 
ATOM      4  H   UNL     1      33.139 -17.744 -22.621  0.00  0.00    +0.155 HD
ENDROOT
BRANCH   2   6
ATOM      5  C   UNL     1      34.030 -21.286 -19.664  0.00  0.00    +0.122 C 
ATOM      6  C   UNL     1      33.800 -18.915 -21.078  0.00  0.00    +0.051 C 
ATOM      7  C   UNL     1      35.168 -20.672 -20.188  0.00  0.00    +0.021 C 
ATOM      8  C   UNL     1      32.775 -20.705 -19.854  0.00  0.00    +0.021 C 
ATOM      9  C   UNL     1      35.051 -19.478 -20.899  0.00  0.00    +0.016 C 
ATOM     10  C   UNL     1      32.659 -19.511 -20.565  0.00  0.00    +0.016 C 
BRANCH   5  11
ATOM     11  S   UNL     1      34.175 -22.780 -18.775  0.00  0.00    +0.057 S 
ATOM     12  O   UNL     1      34.192 -23.882 -19.727  0.00  0.00    -0.153 OA
ATOM     13  O   UNL     1      35.257 -22.641 -17.810  0.00  0.00    -0.153 OA
BRANCH  11  14
ATOM     14  N   UNL     1      32.689 -22.804 -17.931  0.00  0.00    -0.203 NA
ATOM     15  H   UNL     1      32.182 -21.937 -18.112  0.00  0.00    +0.144 HD
ATOM     16  H   UNL     1      32.867 -22.890 -16.931  0.00  0.00    +0.144 HD
ENDBRANCH  11  14
ENDBRANCH   5  11
ENDBRANCH   2   6
BRANCH   3  17
ATOM     17  C   UNL     1      33.913 -15.375 -22.424  0.00  0.00    +0.059 C 
ATOM     18  C   UNL     1      34.133 -15.483 -23.798  0.00  0.00    +0.026 C 
ATOM     19  C   UNL     1      33.367 -14.207 -21.894  0.00  0.00    +0.005 C 
ATOM     20  C   UNL     1      33.805 -14.421 -24.641  0.00  0.00    +0.006 C 
ATOM     21  C   UNL     1      33.040 -13.144 -22.737  0.00  0.00    +0.000 C 
ATOM     22  C   UNL     1      33.259 -13.252 -24.111  0.00  0.00    +0.000 C 
BRANCH  18  23
ATOM     23  S   UNL     1      34.831 -16.957 -24.531  0.00  0.00    -0.141 S 
ATOM     24  H   UNL     1      35.105 -16.725 -25.842  0.00  0.00    +0.107 HD
ENDBRANCH  18  23
ENDBRANCH   3  17
TORSDOF 5
ENDMDL
MODEL 2
REMARK VINA RESULT:      -9.2      0.029      1.081
REMARK  Name = 462919
REMARK  5 active torsions:
REMARK  status: ('A' for Active; 'I' for Inactive)
REMARK    1  A    between atoms: N_2  and  C_6
REMARK    2  A    between atoms: C_3  and  C_17
REMARK    3  A    between atoms: C_5  and  S_11
REMARK    4  A    between atoms: S_11  and  N_14
REMARK    5  A    between atoms: C_18  and  S_23
REMARK                            x       y       z     vdW  Elec       q    Type
REMARK                         _______ _______ _______ _____ _____    ______ ____
ROOT
ATOM      1  O   UNL     1      34.940 -16.189 -20.500  0.00  0.00    -0.270 OA
ATOM      2  N   UNL     1      33.673 -17.683 -21.791  0.00  0.00    -0.280 N 
ATOM      3  C   UNL     1      34.228 -16.435 -21.484  0.00  0.00    +0.250 C 
ATOM      4  H   UNL     1      33.127 -17.721 -22.610  0.00  0.00    +0.155 HD
ENDROOT
BRANCH   2   6
ATOM      5  C   UNL     1      34.036 -21.276 -19.674  0.00  0.00    +0.122 C 
ATOM      6  C   UNL     1      33.795 -18.898 -21.075  0.00  0.00    +0.051 C 
ATOM      7  C   UNL     1      32.779 -20.697 -19.857  0.00  0.00    +0.021 C 
ATOM      8  C   UNL     1      35.172 -20.655 -20.196  0.00  0.00    +0.021 C 
ATOM      9  C   UNL     1      32.659 -19.500 -20.563  0.00  0.00    +0.016 C 
ATOM     10  C   UNL     1      35.051 -19.459 -20.902  0.00  0.00    +0.016 C 
BRANCH   5  11
ATOM     11  S   UNL     1      34.187 -22.773 -18.790  0.00  0.00    +0.057 S 
ATOM     12  O   UNL     1      34.200 -23.872 -19.746  0.00  0.00    -0.153 OA
ATOM     13  O   UNL     1      35.274 -22.636 -17.830  0.00  0.00    -0.153 OA
BRANCH  11  14
ATOM     14  N   UNL     1      32.705 -22.800 -17.939  0.00  0.00    -0.203 NA
ATOM     15  H   UNL     1      32.846 -23.229 -17.025  0.00  0.00    +0.144 HD
ATOM     16  H   UNL     1      32.020 -23.342 -18.466  0.00  0.00    +0.144 HD
ENDBRANCH  11  14
ENDBRANCH   5  11
ENDBRANCH   2   6
BRANCH   3  17
ATOM     17  C   UNL     1      33.900 -15.352 -22.406  0.00  0.00    +0.059 C 
ATOM     18  C   UNL     1      34.121 -15.450 -23.779  0.00  0.00    +0.026 C 
ATOM     19  C   UNL     1      33.347 -14.190 -21.869  0.00  0.00    +0.005 C 
ATOM     20  C   UNL     1      33.788 -14.385 -24.616  0.00  0.00    +0.006 C 
ATOM     21  C   UNL     1      33.014 -13.124 -22.706  0.00  0.00    +0.000 C 
ATOM     22  C   UNL     1      33.235 -13.222 -24.080  0.00  0.00    +0.000 C 
BRANCH  18  23
ATOM     23  S   UNL     1      34.828 -16.917 -24.521  0.00  0.00    -0.141 S 
ATOM     24  H   UNL     1      34.988 -16.717 -25.856  0.00  0.00    +0.107 HD
ENDBRANCH  18  23
ENDBRANCH   3  17
TORSDOF 5
ENDMDL
MODEL 3
REMARK VINA RESULT:      -9.2      4.494      6.942
REMARK  Name = 462919
REMARK  5 active torsions:
REMARK  status: ('A' for Active; 'I' for Inactive)
REMARK    1  A    between atoms: N_2  and  C_6
REMARK    2  A    between atoms: C_3  and  C_17
REMARK    3  A    between atoms: C_5  and  S_11
REMARK    4  A    between atoms: S_11  and  N_14
REMARK    5  A    between atoms: C_18  and  S_23
REMARK                            x       y       z     vdW  Elec       q    Type
REMARK                         _______ _______ _______ _____ _____    ______ ____
ROOT
ATOM      1  O   UNL     1      34.170 -23.551 -18.801  0.00  0.00    -0.270 OA
ATOM      2  N   UNL     1      35.263 -22.048 -17.369  0.00  0.00    -0.280 N 
ATOM      3  C   UNL     1      34.554 -22.406 -18.522  0.00  0.00    +0.250 C 
ATOM      4  H   UNL     1      35.500 -21.095 -17.289  0.00  0.00    +0.155 HD
ENDROOT
BRANCH   2   6
ATOM      5  C   UNL     1      36.510 -24.507 -14.219  0.00  0.00    +0.122 C 
ATOM      6  C   UNL     1      35.685 -22.880 -16.303  0.00  0.00    +0.051 C 
ATOM      7  C   UNL     1      35.155 -24.418 -14.542  0.00  0.00    +0.021 C 
ATOM      8  C   UNL     1      37.449 -23.773 -14.946  0.00  0.00    +0.021 C 
ATOM      9  C   UNL     1      34.741 -23.599 -15.592  0.00  0.00    +0.016 C 
ATOM     10  C   UNL     1      37.034 -22.955 -15.996  0.00  0.00    +0.016 C 
BRANCH   5  11
ATOM     11  S   UNL     1      37.030 -25.531 -12.905  0.00  0.00    +0.057 S 
ATOM     12  O   UNL     1      38.464 -25.355 -12.724  0.00  0.00    -0.153 OA
ATOM     13  O   UNL     1      36.128 -25.331 -11.778  0.00  0.00    -0.153 OA
BRANCH  11  14
ATOM     14  N   UNL     1      36.744 -27.080 -13.566  0.00  0.00    -0.203 NA
ATOM     15  H   UNL     1      37.516 -27.701 -13.325  0.00  0.00    +0.144 HD
ATOM     16  H   UNL     1      36.671 -27.009 -14.581  0.00  0.00    +0.144 HD
ENDBRANCH  11  14
ENDBRANCH   5  11
ENDBRANCH   2   6
BRANCH   3  17
ATOM     17  C   UNL     1      34.285 -21.323 -19.461  0.00  0.00    +0.059 C 
ATOM     18  C   UNL     1      35.303 -20.670 -20.157  0.00  0.00    +0.026 C 
ATOM     19  C   UNL     1      32.956 -20.947 -19.652  0.00  0.00    +0.005 C 
ATOM     20  C   UNL     1      34.990 -19.640 -21.044  0.00  0.00    +0.006 C 
ATOM     21  C   UNL     1      32.644 -19.916 -20.540  0.00  0.00    +0.000 C 
ATOM     22  C   UNL     1      33.661 -19.263 -21.235  0.00  0.00    +0.000 C 
BRANCH  18  23
ATOM     23  S   UNL     1      37.024 -21.112 -19.949  0.00  0.00    -0.141 S 
ATOM     24  H   UNL     1      37.777 -20.439 -20.860  0.00  0.00    +0.107 HD
ENDBRANCH  18  23
ENDBRANCH   3  17
TORSDOF 5
ENDMDL
MODEL 4
REMARK VINA RESULT:      -9.1      1.232      1.629
REMARK  Name = 462919
REMARK  5 active torsions:
REMARK  status: ('A' for Active; 'I' for Inactive)
REMARK    1  A    between atoms: N_2  and  C_6
REMARK    2  A    between atoms: C_3  and  C_17
REMARK    3  A    between atoms: C_5  and  S_11
REMARK    4  A    between atoms: S_11  and  N_14
REMARK    5  A    between atoms: C_18  and  S_23
REMARK                            x       y       z     vdW  Elec       q    Type
REMARK                         _______ _______ _______ _____ _____    ______ ____
ROOT
ATOM      1  O   UNL     1      34.949 -16.225 -20.538  0.00  0.00    -0.270 OA
ATOM      2  N   UNL     1      33.764 -17.751 -21.869  0.00  0.00    -0.280 N 
ATOM      3  C   UNL     1      34.292 -16.493 -21.554  0.00  0.00    +0.250 C 
ATOM      4  H   UNL     1      33.262 -17.807 -22.715  0.00  0.00    +0.155 HD
ENDROOT
BRANCH   2   6
ATOM      5  C   UNL     1      34.042 -21.305 -19.675  0.00  0.00    +0.122 C 
ATOM      6  C   UNL     1      33.858 -18.954 -21.127  0.00  0.00    +0.051 C 
ATOM      7  C   UNL     1      35.192 -20.721 -20.207  0.00  0.00    +0.021 C 
ATOM      8  C   UNL     1      32.798 -20.704 -19.876  0.00  0.00    +0.021 C 
ATOM      9  C   UNL     1      35.099 -19.537 -20.938  0.00  0.00    +0.016 C 
ATOM     10  C   UNL     1      32.706 -19.520 -20.606  0.00  0.00    +0.016 C 
BRANCH   5  11
ATOM     11  S   UNL     1      34.158 -22.788 -18.762  0.00  0.00    +0.057 S 
ATOM     12  O   UNL     1      34.162 -23.905 -19.696  0.00  0.00    -0.153 OA
ATOM     13  O   UNL     1      35.238 -22.651 -17.793  0.00  0.00    -0.153 OA
BRANCH  11  14
ATOM     14  N   UNL     1      32.668 -22.773 -17.926  0.00  0.00    -0.203 NA
ATOM     15  H   UNL     1      32.135 -23.609 -18.166  0.00  0.00    +0.144 HD
ATOM     16  H   UNL     1      32.137 -21.944 -18.192  0.00  0.00    +0.144 HD
ENDBRANCH  11  14
ENDBRANCH   5  11
ENDBRANCH   2   6
BRANCH   3  17
ATOM     17  C   UNL     1      34.003 -15.429 -22.510  0.00  0.00    +0.059 C 
ATOM     18  C   UNL     1      33.262 -14.299 -22.166  0.00  0.00    +0.026 C 
ATOM     19  C   UNL     1      34.497 -15.572 -23.806  0.00  0.00    +0.005 C 
ATOM     20  C   UNL     1      33.015 -13.311 -23.119  0.00  0.00    +0.006 C 
ATOM     21  C   UNL     1      34.250 -14.583 -24.760  0.00  0.00    +0.000 C 
ATOM     22  C   UNL     1      33.508 -13.453 -24.415  0.00  0.00    +0.000 C 
BRANCH  18  23
ATOM     23  S   UNL     1      32.604 -14.066 -20.518  0.00  0.00    -0.141 S 
ATOM     24  H   UNL     1      31.292 -14.423 -20.500  0.00  0.00    +0.107 HD
ENDBRANCH  18  23
ENDBRANCH   3  17
TORSDOF 5
ENDMDL
MODEL 5
REMARK VINA RESULT:      -8.9      3.531      5.093
REMARK  Name = 462919
REMARK  5 active torsions:
REMARK  status: ('A' for Active; 'I' for Inactive)
REMARK    1  A    between atoms: N_2  and  C_6
REMARK    2  A    between atoms: C_3  and  C_17
REMARK    3  A    between atoms: C_5  and  S_11
REMARK    4  A    between atoms: S_11  and  N_14
REMARK    5  A    between atoms: C_18  and  S_23
REMARK                            x       y       z     vdW  Elec       q    Type
REMARK                         _______ _______ _______ _____ _____    ______ ____
ROOT
ATOM      1  O   UNL     1      32.935 -13.163 -24.664  0.00  0.00    -0.270 OA
ATOM      2  N   UNL     1      34.322 -13.239 -22.773  0.00  0.00    -0.280 N 
ATOM      3  C   UNL     1      33.620 -12.597 -23.800  0.00  0.00    +0.250 C 
ATOM      4  H   UNL     1      34.823 -12.651 -22.163  0.00  0.00    +0.155 HD
ENDROOT
BRANCH   2   6
ATOM      5  C   UNL     1      34.567 -17.339 -21.965  0.00  0.00    +0.122 C 
ATOM      6  C   UNL     1      34.405 -14.626 -22.500  0.00  0.00    +0.051 C 
ATOM      7  C   UNL     1      34.842 -16.862 -23.248  0.00  0.00    +0.021 C 
ATOM      8  C   UNL     1      34.210 -16.448 -20.952  0.00  0.00    +0.021 C 
ATOM      9  C   UNL     1      34.760 -15.496 -23.516  0.00  0.00    +0.016 C 
ATOM     10  C   UNL     1      34.129 -15.082 -21.222  0.00  0.00    +0.016 C 
BRANCH   5  11
ATOM     11  S   UNL     1      34.668 -19.048 -21.629  0.00  0.00    +0.057 S 
ATOM     12  O   UNL     1      33.501 -19.433 -20.848  0.00  0.00    -0.153 OA
ATOM     13  O   UNL     1      34.970 -19.747 -22.871  0.00  0.00    -0.153 OA
BRANCH  11  14
ATOM     14  N   UNL     1      36.048 -19.101 -20.622  0.00  0.00    -0.203 NA
ATOM     15  H   UNL     1      36.869 -19.330 -21.182  0.00  0.00    +0.144 HD
ATOM     16  H   UNL     1      35.917 -19.814 -19.904  0.00  0.00    +0.144 HD
ENDBRANCH  11  14
ENDBRANCH   5  11
ENDBRANCH   2   6
BRANCH   3  17
ATOM     17  C   UNL     1      33.748 -11.144 -23.842  0.00  0.00    +0.059 C 
ATOM     18  C   UNL     1      32.870 -10.299 -23.164  0.00  0.00    +0.026 C 
ATOM     19  C   UNL     1      34.792 -10.608 -24.594  0.00  0.00    +0.005 C 
ATOM     20  C   UNL     1      33.038  -8.916 -23.237  0.00  0.00    +0.006 C 
ATOM     21  C   UNL     1      34.960  -9.224 -24.668  0.00  0.00    +0.000 C 
ATOM     22  C   UNL     1      34.082  -8.379 -23.990  0.00  0.00    +0.000 C 
BRANCH  18  23
ATOM     23  S   UNL     1      31.513 -10.933 -22.185  0.00  0.00    -0.141 S 
ATOM     24  H   UNL     1      30.386 -10.223 -22.460  0.00  0.00    +0.107 HD
ENDBRANCH  18  23
ENDBRANCH   3  17
TORSDOF 5
ENDMDL
MODEL 6
REMARK VINA RESULT:      -8.9      8.650     10.853
REMARK  Name = 462919
REMARK  5 active torsions:
REMARK  status: ('A' for Active; 'I' for Inactive)
REMARK    1  A    between atoms: N_2  and  C_6
REMARK    2  A    between atoms: C_3  and  C_17
REMARK    3  A    between atoms: C_5  and  S_11
REMARK    4  A    between atoms: S_11  and  N_14
REMARK    5  A    between atoms: C_18  and  S_23
REMARK                            x       y       z     vdW  Elec       q    Type
REMARK                         _______ _______ _______ _____ _____    ______ ____
ROOT
ATOM      1  O   UNL     1      35.058 -24.258 -15.854  0.00  0.00    -0.270 OA
ATOM      2  N   UNL     1      33.679 -24.131 -13.960  0.00  0.00    -0.280 N 
ATOM      3  C   UNL     1      34.905 -24.252 -14.624  0.00  0.00    +0.250 C 
ATOM      4  H   UNL     1      33.719 -24.144 -12.976  0.00  0.00    +0.155 HD
ENDROOT
BRANCH   2   6
ATOM      5  C   UNL     1      29.859 -23.718 -15.621  0.00  0.00    +0.122 C 
ATOM      6  C   UNL     1      32.386 -23.992 -14.522  0.00  0.00    +0.051 C 
ATOM      7  C   UNL     1      30.114 -24.736 -14.702  0.00  0.00    +0.021 C 
ATOM      8  C   UNL     1      30.878 -22.839 -15.988  0.00  0.00    +0.021 C 
ATOM      9  C   UNL     1      31.387 -24.873 -14.148  0.00  0.00    +0.016 C 
ATOM     10  C   UNL     1      32.151 -22.976 -15.434  0.00  0.00    +0.016 C 
BRANCH   5  11
ATOM     11  S   UNL     1      28.267 -23.548 -16.315  0.00  0.00    +0.057 S 
ATOM     12  O   UNL     1      28.054 -24.641 -17.254  0.00  0.00    -0.153 OA
ATOM     13  O   UNL     1      27.314 -23.325 -15.236  0.00  0.00    -0.153 OA
BRANCH  11  14
ATOM     14  N   UNL     1      28.448 -22.094 -17.194  0.00  0.00    -0.203 NA
ATOM     15  H   UNL     1      27.630 -21.950 -17.786  0.00  0.00    +0.144 HD
ATOM     16  H   UNL     1      29.283 -22.151 -17.777  0.00  0.00    +0.144 HD
ENDBRANCH  11  14
ENDBRANCH   5  11
ENDBRANCH   2   6
BRANCH   3  17
ATOM     17  C   UNL     1      36.076 -24.410 -13.767  0.00  0.00    +0.059 C 
ATOM     18  C   UNL     1      36.974 -25.465 -13.919  0.00  0.00    +0.026 C 
ATOM     19  C   UNL     1      36.279 -23.458 -12.768  0.00  0.00    +0.005 C 
ATOM     20  C   UNL     1      38.078 -25.568 -13.072  0.00  0.00    +0.006 C 
ATOM     21  C   UNL     1      37.383 -23.561 -11.920  0.00  0.00    +0.000 C 
ATOM     22  C   UNL     1      38.282 -24.617 -12.072  0.00  0.00    +0.000 C 
BRANCH  18  23
ATOM     23  S   UNL     1      36.761 -26.714 -15.182  0.00  0.00    -0.141 S 
ATOM     24  H   UNL     1      35.574 -26.519 -15.816  0.00  0.00    +0.107 HD
ENDBRANCH  18  23
ENDBRANCH   3  17
TORSDOF 5
ENDMDL
MODEL 7
REMARK VINA RESULT:      -8.8      2.702      3.638
REMARK  Name = 462919
REMARK  5 active torsions:
REMARK  status: ('A' for Active; 'I' for Inactive)
REMARK    1  A    between atoms: N_2  and  C_6
REMARK    2  A    between atoms: C_3  and  C_17
REMARK    3  A    between atoms: C_5  and  S_11
REMARK    4  A    between atoms: S_11  and  N_14
REMARK    5  A    between atoms: C_18  and  S_23
REMARK                            x       y       z     vdW  Elec       q    Type
REMARK                         _______ _______ _______ _____ _____    ______ ____
ROOT
ATOM      1  O   UNL     1      36.089 -18.280 -20.613  0.00  0.00    -0.270 OA
ATOM      2  N   UNL     1      34.903 -20.264 -21.022  0.00  0.00    -0.280 N 
ATOM      3  C   UNL     1      35.392 -18.993 -21.350  0.00  0.00    +0.250 C 
ATOM      4  H   UNL     1      34.360 -20.707 -21.714  0.00  0.00    +0.155 HD
ENDROOT
BRANCH   2   6
ATOM      5  C   UNL     1      35.451 -22.419 -17.476  0.00  0.00    +0.122 C 
ATOM      6  C   UNL     1      35.089 -20.993 -19.822  0.00  0.00    +0.051 C 
ATOM      7  C   UNL     1      36.505 -21.680 -18.014  0.00  0.00    +0.021 C 
ATOM      8  C   UNL     1      34.214 -22.440 -18.121  0.00  0.00    +0.021 C 
ATOM      9  C   UNL     1      36.322 -20.962 -19.195  0.00  0.00    +0.016 C 
ATOM     10  C   UNL     1      34.031 -21.722 -19.302  0.00  0.00    +0.016 C 
BRANCH   5  11
ATOM     11  S   UNL     1      35.680 -23.319 -15.998  0.00  0.00    +0.057 S 
ATOM     12  O   UNL     1      35.301 -22.469 -14.878  0.00  0.00    -0.153 OA
ATOM     13  O   UNL     1      35.062 -24.629 -16.153  0.00  0.00    -0.153 OA
BRANCH  11  14
ATOM     14  N   UNL     1      37.378 -23.512 -15.993  0.00  0.00    -0.203 NA
ATOM     15  H   UNL     1      37.787 -22.937 -16.730  0.00  0.00    +0.144 HD
ATOM     16  H   UNL     1      37.609 -24.491 -16.158  0.00  0.00    +0.144 HD
ENDBRANCH  11  14
ENDBRANCH   5  11
ENDBRANCH   2   6
BRANCH   3  17
ATOM     17  C   UNL     1      35.007 -18.487 -22.663  0.00  0.00    +0.059 C 
ATOM     18  C   UNL     1      34.659 -17.153 -22.875  0.00  0.00    +0.026 C 
ATOM     19  C   UNL     1      34.994 -19.390 -23.726  0.00  0.00    +0.005 C 
ATOM     20  C   UNL     1      34.299 -16.722 -24.152  0.00  0.00    +0.006 C 
ATOM     21  C   UNL     1      34.634 -18.958 -25.004  0.00  0.00    +0.000 C 
ATOM     22  C   UNL     1      34.286 -17.624 -25.216  0.00  0.00    +0.000 C 
BRANCH  18  23
ATOM     23  S   UNL     1      34.658 -15.954 -21.548  0.00  0.00    -0.141 S 
ATOM     24  H   UNL     1      35.635 -16.265 -20.655  0.00  0.00    +0.107 HD
ENDBRANCH  18  23
ENDBRANCH   3  17
TORSDOF 5
ENDMDL
MODEL 8
REMARK VINA RESULT:      -8.5      3.508      8.382
REMARK  Name = 462919
REMARK  5 active torsions:
REMARK  status: ('A' for Active; 'I' for Inactive)
REMARK    1  A    between atoms: N_2  and  C_6
REMARK    2  A    between atoms: C_3  and  C_17
REMARK    3  A    between atoms: C_5  and  S_11
REMARK    4  A    between atoms: S_11  and  N_14
REMARK    5  A    between atoms: C_18  and  S_23
REMARK                            x       y       z     vdW  Elec       q    Type
REMARK                         _______ _______ _______ _____ _____    ______ ____
ROOT
ATOM      1  O   UNL     1      33.844 -23.790 -18.904  0.00  0.00    -0.270 OA
ATOM      2  N   UNL     1      33.340 -21.555 -18.401  0.00  0.00    -0.280 N 
ATOM      3  C   UNL     1      33.402 -22.927 -18.132  0.00  0.00    +0.250 C 
ATOM      4  H   UNL     1      32.960 -20.993 -17.686  0.00  0.00    +0.155 HD
ENDROOT
BRANCH   2   6
ATOM      5  C   UNL     1      34.562 -19.529 -21.854  0.00  0.00    +0.122 C 
ATOM      6  C   UNL     1      33.754 -20.869 -19.569  0.00  0.00    +0.051 C 
ATOM      7  C   UNL     1      35.499 -20.208 -21.074  0.00  0.00    +0.021 C 
ATOM      8  C   UNL     1      33.217 -19.524 -21.481  0.00  0.00    +0.021 C 
ATOM      9  C   UNL     1      35.091 -20.883 -19.925  0.00  0.00    +0.016 C 
ATOM     10  C   UNL     1      32.810 -20.200 -20.331  0.00  0.00    +0.016 C 
BRANCH   5  11
ATOM     11  S   UNL     1      35.071 -18.683 -23.293  0.00  0.00    +0.057 S 
ATOM     12  O   UNL     1      35.018 -19.610 -24.415  0.00  0.00    -0.153 OA
ATOM     13  O   UNL     1      34.353 -17.418 -23.365  0.00  0.00    -0.153 OA
BRANCH  11  14
ATOM     14  N   UNL     1      36.708 -18.363 -22.921  0.00  0.00    -0.203 NA
ATOM     15  H   UNL     1      36.883 -18.585 -21.941  0.00  0.00    +0.144 HD
ATOM     16  H   UNL     1      36.908 -17.377 -23.087  0.00  0.00    +0.144 HD
ENDBRANCH  11  14
ENDBRANCH   5  11
ENDBRANCH   2   6
BRANCH   3  17
ATOM     17  C   UNL     1      32.869 -23.343 -16.839  0.00  0.00    +0.059 C 
ATOM     18  C   UNL     1      33.683 -23.525 -15.721  0.00  0.00    +0.026 C 
ATOM     19  C   UNL     1      31.495 -23.561 -16.745  0.00  0.00    +0.005 C 
ATOM     20  C   UNL     1      33.121 -23.924 -14.508  0.00  0.00    +0.006 C 
ATOM     21  C   UNL     1      30.933 -23.960 -15.531  0.00  0.00    +0.000 C 
ATOM     22  C   UNL     1      31.747 -24.142 -14.413  0.00  0.00    +0.000 C 
BRANCH  18  23
ATOM     23  S   UNL     1      35.451 -23.262 -15.787  0.00  0.00    -0.141 S 
ATOM     24  H   UNL     1      35.867 -22.689 -14.625  0.00  0.00    +0.107 HD
ENDBRANCH  18  23
ENDBRANCH   3  17
TORSDOF 5
ENDMDL
MODEL 9
REMARK VINA RESULT:      -8.5      4.744      9.130
REMARK  Name = 462919
REMARK  5 active torsions:
REMARK  status: ('A' for Active; 'I' for Inactive)
REMARK    1  A    between atoms: N_2  and  C_6
REMARK    2  A    between atoms: C_3  and  C_17
REMARK    3  A    between atoms: C_5  and  S_11
REMARK    4  A    between atoms: S_11  and  N_14
REMARK    5  A    between atoms: C_18  and  S_23
REMARK                            x       y       z     vdW  Elec       q    Type
REMARK                         _______ _______ _______ _____ _____    ______ ____
ROOT
ATOM      1  O   UNL     1      35.040 -14.529 -22.072  0.00  0.00    -0.270 OA
ATOM      2  N   UNL     1      33.382 -14.066 -23.667  0.00  0.00    -0.280 N 
ATOM      3  C   UNL     1      34.317 -14.880 -23.016  0.00  0.00    +0.250 C 
ATOM      4  H   UNL     1      32.882 -14.490 -24.403  0.00  0.00    +0.155 HD
ENDROOT
BRANCH   2   6
ATOM      5  C   UNL     1      32.439 -10.063 -22.891  0.00  0.00    +0.122 C 
ATOM      6  C   UNL     1      33.063 -12.712 -23.405  0.00  0.00    +0.051 C 
ATOM      7  C   UNL     1      33.376 -10.381 -23.874  0.00  0.00    +0.021 C 
ATOM      8  C   UNL     1      31.816 -11.080 -22.166  0.00  0.00    +0.021 C 
ATOM      9  C   UNL     1      33.690 -11.715 -24.132  0.00  0.00    +0.016 C 
ATOM     10  C   UNL     1      32.130 -12.413 -22.425  0.00  0.00    +0.016 C 
BRANCH   5  11
ATOM     11  S   UNL     1      32.047  -8.393 -22.566  0.00  0.00    +0.057 S 
ATOM     12  O   UNL     1      31.005  -7.977 -23.495  0.00  0.00    -0.153 OA
ATOM     13  O   UNL     1      31.842  -8.236 -21.133  0.00  0.00    -0.153 OA
BRANCH  11  14
ATOM     14  N   UNL     1      33.510  -7.625 -22.998  0.00  0.00    -0.203 NA
ATOM     15  H   UNL     1      33.745  -7.859 -23.963  0.00  0.00    +0.144 HD
ATOM     16  H   UNL     1      34.257  -7.943 -22.381  0.00  0.00    +0.144 HD
ENDBRANCH  11  14
ENDBRANCH   5  11
ENDBRANCH   2   6
BRANCH   3  17
ATOM     17  C   UNL     1      34.443 -16.238 -23.534  0.00  0.00    +0.059 C 
ATOM     18  C   UNL     1      34.712 -17.329 -22.707  0.00  0.00    +0.026 C 
ATOM     19  C   UNL     1      34.285 -16.425 -24.906  0.00  0.00    +0.005 C 
ATOM     20  C   UNL     1      34.822 -18.607 -23.254  0.00  0.00    +0.006 C 
ATOM     21  C   UNL     1      34.395 -17.704 -25.454  0.00  0.00    +0.000 C 
ATOM     22  C   UNL     1      34.664 -18.795 -24.627  0.00  0.00    +0.000 C 
BRANCH  18  23
ATOM     23  S   UNL     1      34.925 -17.146 -20.940  0.00  0.00    -0.141 S 
ATOM     24  H   UNL     1      34.660 -15.861 -20.583  0.00  0.00    +0.107 HD
ENDBRANCH  18  23
ENDBRANCH   3  17
TORSDOF 5
ENDMDL
