MODEL 1
REMARK VINA RESULT:      -8.0      0.000      0.000
REMARK  Name = 26937
REMARK  6 active torsions:
REMARK  status: ('A' for Active; 'I' for Inactive)
REMARK    1  A    between atoms: C_1  and  O_3
REMARK    2  A    between atoms: C_1  and  C_5
REMARK    3  A    between atoms: C_1  and  C_12
REMARK    4  A    between atoms: C_5  and  C_7
REMARK    5  A    between atoms: C_7  and  N_8
REMARK    6  A    between atoms: C_12  and  C_14
REMARK                            x       y       z     vdW  Elec       q    Type
REMARK                         _______ _______ _______ _____ _____    ______ ____
ROOT
ATOM      1  C   UNL     1      35.235 -17.546 -22.489  0.00  0.00    +0.090 C 
ATOM      2  C   UNL     1      34.962 -16.924 -21.114  0.00  0.00    +0.030 C 
ENDROOT
BRANCH   1   3
ATOM      3  O   UNL     1      36.634 -17.872 -22.523  0.00  0.00    -0.386 OA
ATOM      4  H   UNL     1      36.834 -18.508 -21.819  0.00  0.00    +0.210 HD
ENDBRANCH   1   3
BRANCH   1   5
ATOM      5  C   UNL     1      34.955 -16.542 -23.668  0.00  0.00    +0.004 C 
ATOM      6  C   UNL     1      34.753 -17.264 -25.014  0.00  0.00    +0.000 C 
BRANCH   5   7
ATOM      7  C   UNL     1      33.775 -15.584 -23.376  0.00  0.00    -0.075 C 
BRANCH   7   8
ATOM      8  N   UNL     1      33.917 -14.278 -24.018  0.00  0.00    +0.384 N 
ATOM      9  C   UNL     1      33.641 -13.206 -23.063  0.00  0.00    -0.101 C 
ATOM     10  C   UNL     1      33.024 -14.177 -25.173  0.00  0.00    -0.101 C 
ATOM     11  H   UNL     1      34.879 -14.181 -24.344  0.00  0.00    -0.080 HD
ENDBRANCH   7   8
ENDBRANCH   5   7
ENDBRANCH   1   5
BRANCH   1  12
ATOM     12  C   UNL     1      34.436 -18.867 -22.687  0.00  0.00    +0.053 C 
BRANCH  12  14
ATOM     13 CL   UNL     1      34.245 -22.535 -17.941  0.00  0.00    -0.082 Cl
ATOM     14  C   UNL     1      34.388 -19.791 -21.490  0.00  0.00    -0.020 C 
ATOM     15  C   UNL     1      35.561 -20.366 -21.033  0.00  0.00    -0.003 C 
ATOM     16  C   UNL     1      33.173 -20.042 -20.879  0.00  0.00    -0.003 C 
ATOM     17  C   UNL     1      35.517 -21.218 -19.930  0.00  0.00    +0.011 C 
ATOM     18  C   UNL     1      33.128 -20.894 -19.775  0.00  0.00    +0.011 C 
ATOM     19  C   UNL     1      34.300 -21.482 -19.301  0.00  0.00    +0.058 C 
ENDBRANCH  12  14
ENDBRANCH   1  12
TORSDOF 6
ENDMDL
MODEL 2
REMARK VINA RESULT:      -7.9      1.156      1.823
REMARK  Name = 26937
REMARK  6 active torsions:
REMARK  status: ('A' for Active; 'I' for Inactive)
REMARK    1  A    between atoms: C_1  and  O_3
REMARK    2  A    between atoms: C_1  and  C_5
REMARK    3  A    between atoms: C_1  and  C_12
REMARK    4  A    between atoms: C_5  and  C_7
REMARK    5  A    between atoms: C_7  and  N_8
REMARK    6  A    between atoms: C_12  and  C_14
REMARK                            x       y       z     vdW  Elec       q    Type
REMARK                         _______ _______ _______ _____ _____    ______ ____
ROOT
ATOM      1  C   UNL     1      34.382 -16.825 -21.597  0.00  0.00    +0.090 C 
ATOM      2  C   UNL     1      33.010 -16.528 -20.979  0.00  0.00    +0.030 C 
ENDROOT
BRANCH   1   3
ATOM      3  O   UNL     1      35.337 -16.764 -20.525  0.00  0.00    -0.386 OA
ATOM      4  H   UNL     1      34.878 -16.570 -19.693  0.00  0.00    +0.210 HD
ENDBRANCH   1   3
BRANCH   1   5
ATOM      5  C   UNL     1      34.803 -15.751 -22.667  0.00  0.00    +0.004 C 
ATOM      6  C   UNL     1      34.318 -16.117 -24.083  0.00  0.00    +0.000 C 
BRANCH   5   7
ATOM      7  C   UNL     1      34.361 -14.317 -22.287  0.00  0.00    -0.075 C 
BRANCH   7   8
ATOM      8  N   UNL     1      33.334 -13.774 -23.176  0.00  0.00    +0.384 N 
ATOM      9  C   UNL     1      33.883 -12.687 -23.986  0.00  0.00    -0.101 C 
ATOM     10  C   UNL     1      32.184 -13.305 -22.403  0.00  0.00    -0.101 C 
ATOM     11  H   UNL     1      33.022 -14.517 -23.801  0.00  0.00    -0.080 HD
ENDBRANCH   7   8
ENDBRANCH   5   7
ENDBRANCH   1   5
BRANCH   1  12
ATOM     12  C   UNL     1      34.439 -18.257 -22.200  0.00  0.00    +0.053 C 
BRANCH  12  14
ATOM     13 CL   UNL     1      33.992 -22.763 -18.261  0.00  0.00    -0.082 Cl
ATOM     14  C   UNL     1      34.326 -19.394 -21.208  0.00  0.00    -0.020 C 
ATOM     15  C   UNL     1      33.074 -19.781 -20.764  0.00  0.00    -0.003 C 
ATOM     16  C   UNL     1      35.478 -20.021 -20.766  0.00  0.00    -0.003 C 
ATOM     17  C   UNL     1      32.970 -20.828 -19.849  0.00  0.00    +0.011 C 
ATOM     18  C   UNL     1      35.374 -21.069 -19.850  0.00  0.00    +0.011 C 
ATOM     19  C   UNL     1      34.120 -21.472 -19.392  0.00  0.00    +0.058 C 
ENDBRANCH  12  14
ENDBRANCH   1  12
TORSDOF 6
ENDMDL
MODEL 3
REMARK VINA RESULT:      -7.8      1.159      1.342
REMARK  Name = 26937
REMARK  6 active torsions:
REMARK  status: ('A' for Active; 'I' for Inactive)
REMARK    1  A    between atoms: C_1  and  O_3
REMARK    2  A    between atoms: C_1  and  C_5
REMARK    3  A    between atoms: C_1  and  C_12
REMARK    4  A    between atoms: C_5  and  C_7
REMARK    5  A    between atoms: C_7  and  N_8
REMARK    6  A    between atoms: C_12  and  C_14
REMARK                            x       y       z     vdW  Elec       q    Type
REMARK                         _______ _______ _______ _____ _____    ______ ____
ROOT
ATOM      1  C   UNL     1      34.240 -16.852 -21.536  0.00  0.00    +0.090 C 
ATOM      2  C   UNL     1      32.901 -16.614 -20.827  0.00  0.00    +0.030 C 
ENDROOT
BRANCH   1   3
ATOM      3  O   UNL     1      35.261 -16.744 -20.531  0.00  0.00    -0.386 OA
ATOM      4  H   UNL     1      35.372 -15.813 -20.281  0.00  0.00    +0.210 HD
ENDBRANCH   1   3
BRANCH   1   5
ATOM      5  C   UNL     1      34.538 -15.764 -22.633  0.00  0.00    +0.004 C 
ATOM      6  C   UNL     1      35.193 -16.367 -23.891  0.00  0.00    +0.000 C 
BRANCH   5   7
ATOM      7  C   UNL     1      33.291 -14.929 -23.009  0.00  0.00    -0.075 C 
BRANCH   7   8
ATOM      8  N   UNL     1      33.422 -13.511 -22.678  0.00  0.00    +0.384 N 
ATOM      9  C   UNL     1      32.223 -13.033 -21.989  0.00  0.00    -0.101 C 
ATOM     10  C   UNL     1      33.664 -12.723 -23.887  0.00  0.00    -0.101 C 
ATOM     11  H   UNL     1      34.220 -13.397 -22.053  0.00  0.00    -0.080 HD
ENDBRANCH   7   8
ENDBRANCH   5   7
ENDBRANCH   1   5
BRANCH   1  12
ATOM     12  C   UNL     1      34.320 -18.282 -22.141  0.00  0.00    +0.053 C 
BRANCH  12  14
ATOM     13 CL   UNL     1      33.936 -22.801 -18.211  0.00  0.00    -0.082 Cl
ATOM     14  C   UNL     1      34.224 -19.421 -21.150  0.00  0.00    -0.020 C 
ATOM     15  C   UNL     1      35.384 -20.025 -20.699  0.00  0.00    -0.003 C 
ATOM     16  C   UNL     1      32.976 -19.834 -20.715  0.00  0.00    -0.003 C 
ATOM     17  C   UNL     1      35.295 -21.075 -19.786  0.00  0.00    +0.011 C 
ATOM     18  C   UNL     1      32.887 -20.884 -19.801  0.00  0.00    +0.011 C 
ATOM     19  C   UNL     1      34.046 -21.505 -19.337  0.00  0.00    +0.058 C 
ENDBRANCH  12  14
ENDBRANCH   1  12
TORSDOF 6
ENDMDL
MODEL 4
REMARK VINA RESULT:      -7.2      1.259      2.316
REMARK  Name = 26937
REMARK  6 active torsions:
REMARK  status: ('A' for Active; 'I' for Inactive)
REMARK    1  A    between atoms: C_1  and  O_3
REMARK    2  A    between atoms: C_1  and  C_5
REMARK    3  A    between atoms: C_1  and  C_12
REMARK    4  A    between atoms: C_5  and  C_7
REMARK    5  A    between atoms: C_7  and  N_8
REMARK    6  A    between atoms: C_12  and  C_14
REMARK                            x       y       z     vdW  Elec       q    Type
REMARK                         _______ _______ _______ _____ _____    ______ ____
ROOT
ATOM      1  C   UNL     1      34.889 -18.398 -22.538  0.00  0.00    +0.090 C 
ATOM      2  C   UNL     1      35.573 -18.545 -23.903  0.00  0.00    +0.030 C 
ENDROOT
BRANCH   1   3
ATOM      3  O   UNL     1      33.716 -19.227 -22.575  0.00  0.00    -0.386 OA
ATOM      4  H   UNL     1      33.852 -20.006 -22.014  0.00  0.00    +0.210 HD
ENDBRANCH   1   3
BRANCH   1   5
ATOM      5  C   UNL     1      34.416 -16.923 -22.260  0.00  0.00    +0.004 C 
ATOM      6  C   UNL     1      34.855 -16.423 -20.870  0.00  0.00    +0.000 C 
BRANCH   5   7
ATOM      7  C   UNL     1      34.854 -15.932 -23.365  0.00  0.00    -0.075 C 
BRANCH   7   8
ATOM      8  N   UNL     1      33.732 -15.259 -24.017  0.00  0.00    +0.384 N 
ATOM      9  C   UNL     1      33.678 -15.613 -25.435  0.00  0.00    -0.101 C 
ATOM     10  C   UNL     1      33.840 -13.809 -23.855  0.00  0.00    -0.101 C 
ATOM     11  H   UNL     1      32.867 -15.570 -23.574  0.00  0.00    -0.080 HD
ENDBRANCH   7   8
ENDBRANCH   5   7
ENDBRANCH   1   5
BRANCH   1  12
ATOM     12  C   UNL     1      35.796 -18.914 -21.385  0.00  0.00    +0.053 C 
BRANCH  12  14
ATOM     13 CL   UNL     1      33.504 -23.343 -18.046  0.00  0.00    -0.082 Cl
ATOM     14  C   UNL     1      35.218 -20.031 -20.544  0.00  0.00    -0.020 C 
ATOM     15  C   UNL     1      33.845 -20.131 -20.405  0.00  0.00    -0.003 C 
ATOM     16  C   UNL     1      36.075 -20.928 -19.931  0.00  0.00    -0.003 C 
ATOM     17  C   UNL     1      33.312 -21.160 -19.629  0.00  0.00    +0.011 C 
ATOM     18  C   UNL     1      35.542 -21.958 -19.155  0.00  0.00    +0.011 C 
ATOM     19  C   UNL     1      34.161 -22.074 -19.004  0.00  0.00    +0.058 C 
ENDBRANCH  12  14
ENDBRANCH   1  12
TORSDOF 6
ENDMDL
MODEL 5
REMARK VINA RESULT:      -7.2      1.760      2.846
REMARK  Name = 26937
REMARK  6 active torsions:
REMARK  status: ('A' for Active; 'I' for Inactive)
REMARK    1  A    between atoms: C_1  and  O_3
REMARK    2  A    between atoms: C_1  and  C_5
REMARK    3  A    between atoms: C_1  and  C_12
REMARK    4  A    between atoms: C_5  and  C_7
REMARK    5  A    between atoms: C_7  and  N_8
REMARK    6  A    between atoms: C_12  and  C_14
REMARK                            x       y       z     vdW  Elec       q    Type
REMARK                         _______ _______ _______ _____ _____    ______ ____
ROOT
ATOM      1  C   UNL     1      33.644 -15.673 -21.630  0.00  0.00    +0.090 C 
ATOM      2  C   UNL     1      32.700 -16.188 -20.536  0.00  0.00    +0.030 C 
ENDROOT
BRANCH   1   3
ATOM      3  O   UNL     1      34.748 -15.045 -20.958  0.00  0.00    -0.386 OA
ATOM      4  H   UNL     1      35.481 -15.676 -20.882  0.00  0.00    +0.210 HD
ENDBRANCH   1   3
BRANCH   1   5
ATOM      5  C   UNL     1      32.966 -14.585 -22.543  0.00  0.00    +0.004 C 
ATOM      6  C   UNL     1      32.314 -13.457 -21.720  0.00  0.00    +0.000 C 
BRANCH   5   7
ATOM      7  C   UNL     1      33.930 -14.004 -23.605  0.00  0.00    -0.075 C 
BRANCH   7   8
ATOM      8  N   UNL     1      33.250 -13.227 -24.640  0.00  0.00    +0.384 N 
ATOM      9  C   UNL     1      33.142 -14.004 -25.875  0.00  0.00    -0.101 C 
ATOM     10  C   UNL     1      33.961 -11.972 -24.887  0.00  0.00    -0.101 C 
ATOM     11  H   UNL     1      32.310 -13.007 -24.314  0.00  0.00    -0.080 HD
ENDBRANCH   7   8
ENDBRANCH   5   7
ENDBRANCH   1   5
BRANCH   1  12
ATOM     12  C   UNL     1      34.213 -16.838 -22.489  0.00  0.00    +0.053 C 
BRANCH  12  14
ATOM     13 CL   UNL     1      35.954 -21.708 -19.445  0.00  0.00    -0.082 Cl
ATOM     14  C   UNL     1      34.652 -18.066 -21.722  0.00  0.00    -0.020 C 
ATOM     15  C   UNL     1      33.700 -18.984 -21.314  0.00  0.00    -0.003 C 
ATOM     16  C   UNL     1      35.996 -18.245 -21.446  0.00  0.00    -0.003 C 
ATOM     17  C   UNL     1      34.104 -20.116 -20.606  0.00  0.00    +0.011 C 
ATOM     18  C   UNL     1      36.401 -19.378 -20.738  0.00  0.00    +0.011 C 
ATOM     19  C   UNL     1      35.455 -20.312 -20.319  0.00  0.00    +0.058 C 
ENDBRANCH  12  14
ENDBRANCH   1  12
TORSDOF 6
ENDMDL
MODEL 6
REMARK VINA RESULT:      -7.1      1.333      2.130
REMARK  Name = 26937
REMARK  6 active torsions:
REMARK  status: ('A' for Active; 'I' for Inactive)
REMARK    1  A    between atoms: C_1  and  O_3
REMARK    2  A    between atoms: C_1  and  C_5
REMARK    3  A    between atoms: C_1  and  C_12
REMARK    4  A    between atoms: C_5  and  C_7
REMARK    5  A    between atoms: C_7  and  N_8
REMARK    6  A    between atoms: C_12  and  C_14
REMARK                            x       y       z     vdW  Elec       q    Type
REMARK                         _______ _______ _______ _____ _____    ______ ____
ROOT
ATOM      1  C   UNL     1      34.045 -16.727 -21.375  0.00  0.00    +0.090 C 
ATOM      2  C   UNL     1      32.726 -16.795 -20.595  0.00  0.00    +0.030 C 
ENDROOT
BRANCH   1   3
ATOM      3  O   UNL     1      35.071 -16.411 -20.420  0.00  0.00    -0.386 OA
ATOM      4  H   UNL     1      35.879 -16.150 -20.889  0.00  0.00    +0.210 HD
ENDBRANCH   1   3
BRANCH   1   5
ATOM      5  C   UNL     1      34.042 -15.587 -22.460  0.00  0.00    +0.004 C 
ATOM      6  C   UNL     1      34.549 -14.245 -21.897  0.00  0.00    +0.000 C 
BRANCH   5   7
ATOM      7  C   UNL     1      34.816 -15.973 -23.742  0.00  0.00    -0.075 C 
BRANCH   7   8
ATOM      8  N   UNL     1      33.951 -16.462 -24.815  0.00  0.00    +0.384 N 
ATOM      9  C   UNL     1      34.597 -17.562 -25.532  0.00  0.00    -0.101 C 
ATOM     10  C   UNL     1      33.617 -15.377 -25.738  0.00  0.00    -0.101 C 
ATOM     11  H   UNL     1      33.087 -16.811 -24.401  0.00  0.00    -0.080 HD
ENDBRANCH   7   8
ENDBRANCH   5   7
ENDBRANCH   1   5
BRANCH   1  12
ATOM     12  C   UNL     1      34.402 -18.098 -22.017  0.00  0.00    +0.053 C 
BRANCH  12  14
ATOM     13 CL   UNL     1      33.949 -22.865 -18.399  0.00  0.00    -0.082 Cl
ATOM     14  C   UNL     1      34.288 -19.300 -21.104  0.00  0.00    -0.020 C 
ATOM     15  C   UNL     1      35.441 -19.908 -20.640  0.00  0.00    -0.003 C 
ATOM     16  C   UNL     1      33.032 -19.764 -20.753  0.00  0.00    -0.003 C 
ATOM     17  C   UNL     1      35.336 -21.015 -19.799  0.00  0.00    +0.011 C 
ATOM     18  C   UNL     1      32.927 -20.872 -19.911  0.00  0.00    +0.011 C 
ATOM     19  C   UNL     1      34.079 -21.498 -19.435  0.00  0.00    +0.058 C 
ENDBRANCH  12  14
ENDBRANCH   1  12
TORSDOF 6
ENDMDL
MODEL 7
REMARK VINA RESULT:      -7.1      3.924      6.670
REMARK  Name = 26937
REMARK  6 active torsions:
REMARK  status: ('A' for Active; 'I' for Inactive)
REMARK    1  A    between atoms: C_1  and  O_3
REMARK    2  A    between atoms: C_1  and  C_5
REMARK    3  A    between atoms: C_1  and  C_12
REMARK    4  A    between atoms: C_5  and  C_7
REMARK    5  A    between atoms: C_7  and  N_8
REMARK    6  A    between atoms: C_12  and  C_14
REMARK                            x       y       z     vdW  Elec       q    Type
REMARK                         _______ _______ _______ _____ _____    ______ ____
ROOT
ATOM      1  C   UNL     1      34.522 -17.026 -21.569  0.00  0.00    +0.090 C 
ATOM      2  C   UNL     1      35.143 -16.177 -22.684  0.00  0.00    +0.030 C 
ENDROOT
BRANCH   1   3
ATOM      3  O   UNL     1      35.282 -16.760 -20.378  0.00  0.00    -0.386 OA
ATOM      4  H   UNL     1      35.916 -17.479 -20.233  0.00  0.00    +0.210 HD
ENDBRANCH   1   3
BRANCH   1   5
ATOM      5  C   UNL     1      34.626 -18.569 -21.861  0.00  0.00    +0.004 C 
ATOM      6  C   UNL     1      34.777 -18.868 -23.365  0.00  0.00    +0.000 C 
BRANCH   5   7
ATOM      7  C   UNL     1      35.744 -19.262 -21.047  0.00  0.00    -0.075 C 
BRANCH   7   8
ATOM      8  N   UNL     1      35.235 -20.195 -20.042  0.00  0.00    +0.384 N 
ATOM      9  C   UNL     1      35.982 -21.451 -20.086  0.00  0.00    -0.101 C 
ATOM     10  C   UNL     1      33.808 -20.441 -20.249  0.00  0.00    -0.101 C 
ATOM     11  H   UNL     1      35.361 -19.777 -19.121  0.00  0.00    -0.080 HD
ENDBRANCH   7   8
ENDBRANCH   5   7
ENDBRANCH   1   5
BRANCH   1  12
ATOM     12  C   UNL     1      33.048 -16.615 -21.291  0.00  0.00    +0.053 C 
BRANCH  12  14
ATOM     13 CL   UNL     1      31.791 -10.789 -21.998  0.00  0.00    -0.082 Cl
ATOM     14  C   UNL     1      32.730 -15.146 -21.469  0.00  0.00    -0.020 C 
ATOM     15  C   UNL     1      32.610 -14.631 -22.748  0.00  0.00    -0.003 C 
ATOM     16  C   UNL     1      32.567 -14.350 -20.349  0.00  0.00    -0.003 C 
ATOM     17  C   UNL     1      32.318 -13.278 -22.912  0.00  0.00    +0.011 C 
ATOM     18  C   UNL     1      32.274 -12.995 -20.514  0.00  0.00    +0.011 C 
ATOM     19  C   UNL     1      32.150 -12.460 -21.795  0.00  0.00    +0.058 C 
ENDBRANCH  12  14
ENDBRANCH   1  12
TORSDOF 6
ENDMDL
MODEL 8
REMARK VINA RESULT:      -6.9      9.005     10.709
REMARK  Name = 26937
REMARK  6 active torsions:
REMARK  status: ('A' for Active; 'I' for Inactive)
REMARK    1  A    between atoms: C_1  and  O_3
REMARK    2  A    between atoms: C_1  and  C_5
REMARK    3  A    between atoms: C_1  and  C_12
REMARK    4  A    between atoms: C_5  and  C_7
REMARK    5  A    between atoms: C_7  and  N_8
REMARK    6  A    between atoms: C_12  and  C_14
REMARK                            x       y       z     vdW  Elec       q    Type
REMARK                         _______ _______ _______ _____ _____    ______ ____
ROOT
ATOM      1  C   UNL     1      35.382 -23.948 -14.477  0.00  0.00    +0.090 C 
ATOM      2  C   UNL     1      35.720 -23.840 -12.985  0.00  0.00    +0.030 C 
ENDROOT
BRANCH   1   3
ATOM      3  O   UNL     1      34.699 -25.200 -14.655  0.00  0.00    -0.386 OA
ATOM      4  H   UNL     1      34.451 -25.558 -13.789  0.00  0.00    +0.210 HD
ENDBRANCH   1   3
BRANCH   1   5
ATOM      5  C   UNL     1      36.668 -23.978 -15.383  0.00  0.00    +0.004 C 
ATOM      6  C   UNL     1      36.881 -22.653 -16.139  0.00  0.00    +0.000 C 
BRANCH   5   7
ATOM      7  C   UNL     1      37.944 -24.377 -14.603  0.00  0.00    -0.075 C 
BRANCH   7   8
ATOM      8  N   UNL     1      38.543 -25.626 -15.073  0.00  0.00    +0.384 N 
ATOM      9  C   UNL     1      37.780 -26.774 -14.584  0.00  0.00    -0.101 C 
ATOM     10  C   UNL     1      39.938 -25.718 -14.643  0.00  0.00    -0.101 C 
ATOM     11  H   UNL     1      38.518 -25.633 -16.092  0.00  0.00    -0.080 HD
ENDBRANCH   7   8
ENDBRANCH   5   7
ENDBRANCH   1   5
BRANCH   1  12
ATOM     12  C   UNL     1      34.416 -22.814 -14.928  0.00  0.00    +0.053 C 
BRANCH  12  14
ATOM     13 CL   UNL     1      28.618 -24.322 -15.286  0.00  0.00    -0.082 Cl
ATOM     14  C   UNL     1      32.954 -23.194 -15.018  0.00  0.00    -0.020 C 
ATOM     15  C   UNL     1      32.236 -23.396 -13.853  0.00  0.00    -0.003 C 
ATOM     16  C   UNL     1      32.368 -23.331 -16.264  0.00  0.00    -0.003 C 
ATOM     17  C   UNL     1      30.889 -23.746 -13.936  0.00  0.00    +0.011 C 
ATOM     18  C   UNL     1      31.019 -23.681 -16.347  0.00  0.00    +0.011 C 
ATOM     19  C   UNL     1      30.280 -23.889 -15.183  0.00  0.00    +0.058 C 
ENDBRANCH  12  14
ENDBRANCH   1  12
TORSDOF 6
ENDMDL
MODEL 9
REMARK VINA RESULT:      -6.9      2.139      3.445
REMARK  Name = 26937
REMARK  6 active torsions:
REMARK  status: ('A' for Active; 'I' for Inactive)
REMARK    1  A    between atoms: C_1  and  O_3
REMARK    2  A    between atoms: C_1  and  C_5
REMARK    3  A    between atoms: C_1  and  C_12
REMARK    4  A    between atoms: C_5  and  C_7
REMARK    5  A    between atoms: C_7  and  N_8
REMARK    6  A    between atoms: C_12  and  C_14
REMARK                            x       y       z     vdW  Elec       q    Type
REMARK                         _______ _______ _______ _____ _____    ______ ____
ROOT
ATOM      1  C   UNL     1      34.120 -14.609 -23.309  0.00  0.00    +0.090 C 
ATOM      2  C   UNL     1      32.885 -15.085 -22.535  0.00  0.00    +0.030 C 
ENDROOT
BRANCH   1   3
ATOM      3  O   UNL     1      34.949 -13.906 -22.368  0.00  0.00    -0.386 OA
ATOM      4  H   UNL     1      34.996 -12.970 -22.615  0.00  0.00    +0.210 HD
ENDBRANCH   1   3
BRANCH   1   5
ATOM      5  C   UNL     1      33.754 -13.601 -24.460  0.00  0.00    +0.004 C 
ATOM      6  C   UNL     1      32.767 -14.210 -25.476  0.00  0.00    +0.000 C 
BRANCH   5   7
ATOM      7  C   UNL     1      33.231 -12.245 -23.931  0.00  0.00    -0.075 C 
BRANCH   7   8
ATOM      8  N   UNL     1      34.200 -11.158 -24.067  0.00  0.00    +0.384 N 
ATOM      9  C   UNL     1      33.615  -9.893 -23.623  0.00  0.00    -0.101 C 
ATOM     10  C   UNL     1      34.657 -11.051 -25.453  0.00  0.00    -0.101 C 
ATOM     11  H   UNL     1      35.005 -11.366 -23.477  0.00  0.00    -0.080 HD
ENDBRANCH   7   8
ENDBRANCH   5   7
ENDBRANCH   1   5
BRANCH   1  12
ATOM     12  C   UNL     1      34.945 -15.806 -23.863  0.00  0.00    +0.053 C 
BRANCH  12  14
ATOM     13 CL   UNL     1      35.087 -20.700 -20.393  0.00  0.00    -0.082 Cl
ATOM     14  C   UNL     1      34.981 -17.040 -22.989  0.00  0.00    -0.020 C 
ATOM     15  C   UNL     1      34.687 -18.272 -23.546  0.00  0.00    -0.003 C 
ATOM     16  C   UNL     1      35.308 -16.910 -21.650  0.00  0.00    -0.003 C 
ATOM     17  C   UNL     1      34.720 -19.409 -22.740  0.00  0.00    +0.011 C 
ATOM     18  C   UNL     1      35.342 -18.048 -20.843  0.00  0.00    +0.011 C 
ATOM     19  C   UNL     1      35.047 -19.297 -21.388  0.00  0.00    +0.058 C 
ENDBRANCH  12  14
ENDBRANCH   1  12
TORSDOF 6
ENDMDL
