MODEL 1
REMARK VINA RESULT:      -6.4      0.000      0.000
REMARK  Name = 3675
REMARK  4 active torsions:
REMARK  status: ('A' for Active; 'I' for Inactive)
REMARK    1  A    between atoms: C_1  and  C_2
REMARK    2  A    between atoms: C_1  and  C_8
REMARK    3  A    between atoms: C_8  and  N_9
REMARK    4  A    between atoms: N_9  and  N_11
REMARK                            x       y       z     vdW  Elec       q    Type
REMARK                         _______ _______ _______ _____ _____    ______ ____
ROOT
ATOM      1  C   UNL     1      35.634 -18.502 -22.119  0.00  0.00    +0.045 C 
ENDROOT
BRANCH   1   2
ATOM      2  C   UNL     1      34.943 -19.475 -21.226  0.00  0.00    -0.021 C 
ATOM      3  C   UNL     1      35.685 -20.413 -20.507  0.00  0.00    -0.004 C 
ATOM      4  C   UNL     1      33.552 -19.448 -21.108  0.00  0.00    -0.004 C 
ATOM      5  C   UNL     1      35.038 -21.323 -19.672  0.00  0.00    -0.000 C 
ATOM      6  C   UNL     1      32.906 -20.358 -20.272  0.00  0.00    -0.000 C 
ATOM      7  C   UNL     1      33.648 -21.296 -19.554  0.00  0.00    -0.000 C 
ENDBRANCH   1   2
BRANCH   1   8
ATOM      8  C   UNL     1      35.167 -18.626 -23.576  0.00  0.00    +0.089 C 
BRANCH   8   9
ATOM      9  N   UNL     1      35.330 -17.371 -24.303  0.00  0.00    -0.248 NA
ATOM     10  H   UNL     1      36.118 -17.444 -24.946  0.00  0.00    +0.141 HD
BRANCH   9  11
ATOM     11  N   UNL     1      35.575 -16.334 -23.353  0.00  0.00    -0.270 NA
ATOM     12  H   UNL     1      34.826 -16.323 -22.661  0.00  0.00    +0.137 HD
ATOM     13  H   UNL     1      35.608 -15.435 -23.834  0.00  0.00    +0.137 HD
ENDBRANCH   9  11
ENDBRANCH   8   9
ENDBRANCH   1   8
TORSDOF 4
ENDMDL
MODEL 2
REMARK VINA RESULT:      -6.4      0.773      1.788
REMARK  Name = 3675
REMARK  4 active torsions:
REMARK  status: ('A' for Active; 'I' for Inactive)
REMARK    1  A    between atoms: C_1  and  C_2
REMARK    2  A    between atoms: C_1  and  C_8
REMARK    3  A    between atoms: C_8  and  N_9
REMARK    4  A    between atoms: N_9  and  N_11
REMARK                            x       y       z     vdW  Elec       q    Type
REMARK                         _______ _______ _______ _____ _____    ______ ____
ROOT
ATOM      1  C   UNL     1      34.432 -18.619 -21.615  0.00  0.00    +0.045 C 
ENDROOT
BRANCH   1   2
ATOM      2  C   UNL     1      34.502 -19.827 -20.745  0.00  0.00    -0.021 C 
ATOM      3  C   UNL     1      33.330 -20.407 -20.259  0.00  0.00    -0.004 C 
ATOM      4  C   UNL     1      35.740 -20.380 -20.417  0.00  0.00    -0.004 C 
ATOM      5  C   UNL     1      33.395 -21.538 -19.446  0.00  0.00    -0.000 C 
ATOM      6  C   UNL     1      35.806 -21.512 -19.605  0.00  0.00    -0.000 C 
ATOM      7  C   UNL     1      34.633 -22.091 -19.118  0.00  0.00    -0.000 C 
ENDBRANCH   1   2
BRANCH   1   8
ATOM      8  C   UNL     1      35.798 -18.264 -22.218  0.00  0.00    +0.089 C 
BRANCH   8   9
ATOM      9  N   UNL     1      35.670 -17.750 -23.578  0.00  0.00    -0.248 NA
ATOM     10  H   UNL     1      36.464 -18.058 -24.140  0.00  0.00    +0.141 HD
BRANCH   9  11
ATOM     11  N   UNL     1      35.646 -16.324 -23.516  0.00  0.00    -0.270 NA
ATOM     12  H   UNL     1      34.682 -16.005 -23.423  0.00  0.00    +0.137 HD
ATOM     13  H   UNL     1      36.051 -15.941 -24.370  0.00  0.00    +0.137 HD
ENDBRANCH   9  11
ENDBRANCH   8   9
ENDBRANCH   1   8
TORSDOF 4
ENDMDL
MODEL 3
REMARK VINA RESULT:      -6.0      8.336      9.433
REMARK  Name = 3675
REMARK  4 active torsions:
REMARK  status: ('A' for Active; 'I' for Inactive)
REMARK    1  A    between atoms: C_1  and  C_2
REMARK    2  A    between atoms: C_1  and  C_8
REMARK    3  A    between atoms: C_8  and  N_9
REMARK    4  A    between atoms: N_9  and  N_11
REMARK                            x       y       z     vdW  Elec       q    Type
REMARK                         _______ _______ _______ _____ _____    ______ ____
ROOT
ATOM      1  C   UNL     1      28.030 -22.893 -16.939  0.00  0.00    +0.045 C 
ENDROOT
BRANCH   1   2
ATOM      2  C   UNL     1      29.145 -23.479 -16.143  0.00  0.00    -0.021 C 
ATOM      3  C   UNL     1      28.944 -24.655 -15.419  0.00  0.00    -0.004 C 
ATOM      4  C   UNL     1      30.392 -22.853 -16.121  0.00  0.00    -0.004 C 
ATOM      5  C   UNL     1      29.987 -25.203 -14.674  0.00  0.00    -0.000 C 
ATOM      6  C   UNL     1      31.436 -23.401 -15.376  0.00  0.00    -0.000 C 
ATOM      7  C   UNL     1      31.234 -24.577 -14.652  0.00  0.00    -0.000 C 
ENDBRANCH   1   2
BRANCH   1   8
ATOM      8  C   UNL     1      27.030 -22.133 -16.056  0.00  0.00    +0.089 C 
BRANCH   8   9
ATOM      9  N   UNL     1      25.890 -21.648 -16.827  0.00  0.00    -0.248 NA
ATOM     10  H   UNL     1      25.401 -22.436 -17.252  0.00  0.00    +0.141 HD
BRANCH   9  11
ATOM     11  N   UNL     1      26.378 -20.777 -17.847  0.00  0.00    -0.270 NA
ATOM     12  H   UNL     1      26.141 -21.161 -18.763  0.00  0.00    +0.137 HD
ATOM     13  H   UNL     1      27.391 -20.693 -17.765  0.00  0.00    +0.137 HD
ENDBRANCH   9  11
ENDBRANCH   8   9
ENDBRANCH   1   8
TORSDOF 4
ENDMDL
MODEL 4
REMARK VINA RESULT:      -6.0      3.423      4.801
REMARK  Name = 3675
REMARK  4 active torsions:
REMARK  status: ('A' for Active; 'I' for Inactive)
REMARK    1  A    between atoms: C_1  and  C_2
REMARK    2  A    between atoms: C_1  and  C_8
REMARK    3  A    between atoms: C_8  and  N_9
REMARK    4  A    between atoms: N_9  and  N_11
REMARK                            x       y       z     vdW  Elec       q    Type
REMARK                         _______ _______ _______ _____ _____    ______ ____
ROOT
ATOM      1  C   UNL     1      34.647 -20.145 -20.592  0.00  0.00    +0.045 C 
ENDROOT
BRANCH   1   2
ATOM      2  C   UNL     1      34.765 -19.043 -21.588  0.00  0.00    -0.021 C 
ATOM      3  C   UNL     1      34.852 -17.719 -21.157  0.00  0.00    -0.004 C 
ATOM      4  C   UNL     1      34.790 -19.334 -22.953  0.00  0.00    -0.004 C 
ATOM      5  C   UNL     1      34.963 -16.687 -22.089  0.00  0.00    -0.000 C 
ATOM      6  C   UNL     1      34.902 -18.303 -23.884  0.00  0.00    -0.000 C 
ATOM      7  C   UNL     1      34.987 -16.978 -23.453  0.00  0.00    -0.000 C 
ENDBRANCH   1   2
BRANCH   1   8
ATOM      8  C   UNL     1      33.185 -20.427 -20.216  0.00  0.00    +0.089 C 
BRANCH   8   9
ATOM      9  N   UNL     1      32.952 -21.848 -19.986  0.00  0.00    -0.248 NA
ATOM     10  H   UNL     1      32.199 -22.177 -20.592  0.00  0.00    +0.141 HD
BRANCH   9  11
ATOM     11  N   UNL     1      32.582 -22.025 -18.619  0.00  0.00    -0.270 NA
ATOM     12  H   UNL     1      32.778 -21.168 -18.101  0.00  0.00    +0.137 HD
ATOM     13  H   UNL     1      33.118 -22.795 -18.219  0.00  0.00    +0.137 HD
ENDBRANCH   9  11
ENDBRANCH   8   9
ENDBRANCH   1   8
TORSDOF 4
ENDMDL
MODEL 5
REMARK VINA RESULT:      -5.9      4.331      5.160
REMARK  Name = 3675
REMARK  4 active torsions:
REMARK  status: ('A' for Active; 'I' for Inactive)
REMARK    1  A    between atoms: C_1  and  C_2
REMARK    2  A    between atoms: C_1  and  C_8
REMARK    3  A    between atoms: C_8  and  N_9
REMARK    4  A    between atoms: N_9  and  N_11
REMARK                            x       y       z     vdW  Elec       q    Type
REMARK                         _______ _______ _______ _____ _____    ______ ____
ROOT
ATOM      1  C   UNL     1      36.632 -21.618 -19.232  0.00  0.00    +0.045 C 
ENDROOT
BRANCH   1   2
ATOM      2  C   UNL     1      35.366 -21.029 -19.756  0.00  0.00    -0.021 C 
ATOM      3  C   UNL     1      34.135 -21.531 -19.334  0.00  0.00    -0.004 C 
ATOM      4  C   UNL     1      35.413 -19.976 -20.671  0.00  0.00    -0.004 C 
ATOM      5  C   UNL     1      32.952 -20.980 -19.824  0.00  0.00    -0.000 C 
ATOM      6  C   UNL     1      34.229 -19.424 -21.160  0.00  0.00    -0.000 C 
ATOM      7  C   UNL     1      32.998 -19.927 -20.737  0.00  0.00    -0.000 C 
ENDBRANCH   1   2
BRANCH   1   8
ATOM      8  C   UNL     1      36.782 -21.403 -17.719  0.00  0.00    +0.089 C 
BRANCH   8   9
ATOM      9  N   UNL     1      37.016 -22.661 -17.017  0.00  0.00    -0.248 NA
ATOM     10  H   UNL     1      37.365 -23.362 -17.671  0.00  0.00    +0.141 HD
BRANCH   9  11
ATOM     11  N   UNL     1      35.777 -23.098 -16.458  0.00  0.00    -0.270 NA
ATOM     12  H   UNL     1      35.825 -23.039 -15.441  0.00  0.00    +0.137 HD
ATOM     13  H   UNL     1      35.601 -24.063 -16.736  0.00  0.00    +0.137 HD
ENDBRANCH   9  11
ENDBRANCH   8   9
ENDBRANCH   1   8
TORSDOF 4
ENDMDL
MODEL 6
REMARK VINA RESULT:      -5.9      4.039      4.935
REMARK  Name = 3675
REMARK  4 active torsions:
REMARK  status: ('A' for Active; 'I' for Inactive)
REMARK    1  A    between atoms: C_1  and  C_2
REMARK    2  A    between atoms: C_1  and  C_8
REMARK    3  A    between atoms: C_8  and  N_9
REMARK    4  A    between atoms: N_9  and  N_11
REMARK                            x       y       z     vdW  Elec       q    Type
REMARK                         _______ _______ _______ _____ _____    ______ ____
ROOT
ATOM      1  C   UNL     1      33.512 -21.341 -19.745  0.00  0.00    +0.045 C 
ENDROOT
BRANCH   1   2
ATOM      2  C   UNL     1      34.329 -20.265 -20.375  0.00  0.00    -0.021 C 
ATOM      3  C   UNL     1      35.721 -20.315 -20.310  0.00  0.00    -0.004 C 
ATOM      4  C   UNL     1      33.700 -19.206 -21.032  0.00  0.00    -0.004 C 
ATOM      5  C   UNL     1      36.485 -19.309 -20.900  0.00  0.00    -0.000 C 
ATOM      6  C   UNL     1      34.464 -18.200 -21.623  0.00  0.00    -0.000 C 
ATOM      7  C   UNL     1      35.857 -18.251 -21.557  0.00  0.00    -0.000 C 
ENDBRANCH   1   2
BRANCH   1   8
ATOM      8  C   UNL     1      34.380 -22.510 -19.257  0.00  0.00    +0.089 C 
BRANCH   8   9
ATOM      9  N   UNL     1      33.624 -23.426 -18.409  0.00  0.00    -0.248 NA
ATOM     10  H   UNL     1      33.340 -24.243 -18.950  0.00  0.00    +0.141 HD
BRANCH   9  11
ATOM     11  N   UNL     1      32.468 -22.739 -17.930  0.00  0.00    -0.270 NA
ATOM     12  H   UNL     1      31.633 -23.275 -18.167  0.00  0.00    +0.137 HD
ATOM     13  H   UNL     1      32.416 -21.818 -18.365  0.00  0.00    +0.137 HD
ENDBRANCH   9  11
ENDBRANCH   8   9
ENDBRANCH   1   8
TORSDOF 4
ENDMDL
MODEL 7
REMARK VINA RESULT:      -5.8      3.244      4.742
REMARK  Name = 3675
REMARK  4 active torsions:
REMARK  status: ('A' for Active; 'I' for Inactive)
REMARK    1  A    between atoms: C_1  and  C_2
REMARK    2  A    between atoms: C_1  and  C_8
REMARK    3  A    between atoms: C_8  and  N_9
REMARK    4  A    between atoms: N_9  and  N_11
REMARK                            x       y       z     vdW  Elec       q    Type
REMARK                         _______ _______ _______ _____ _____    ______ ____
ROOT
ATOM      1  C   UNL     1      34.367 -19.868 -20.814  0.00  0.00    +0.045 C 
ENDROOT
BRANCH   1   2
ATOM      2  C   UNL     1      34.612 -18.779 -21.802  0.00  0.00    -0.021 C 
ATOM      3  C   UNL     1      34.744 -19.082 -23.157  0.00  0.00    -0.004 C 
ATOM      4  C   UNL     1      34.708 -17.455 -21.372  0.00  0.00    -0.004 C 
ATOM      5  C   UNL     1      34.973 -18.064 -24.081  0.00  0.00    -0.000 C 
ATOM      6  C   UNL     1      34.936 -16.436 -22.296  0.00  0.00    -0.000 C 
ATOM      7  C   UNL     1      35.069 -16.740 -23.652  0.00  0.00    -0.000 C 
ENDBRANCH   1   2
BRANCH   1   8
ATOM      8  C   UNL     1      32.868 -20.100 -20.573  0.00  0.00    +0.089 C 
BRANCH   8   9
ATOM      9  N   UNL     1      32.636 -20.987 -19.438  0.00  0.00    -0.248 NA
ATOM     10  H   UNL     1      32.509 -20.435 -18.589  0.00  0.00    +0.141 HD
BRANCH   9  11
ATOM     11  N   UNL     1      33.775 -21.836 -19.294  0.00  0.00    -0.270 NA
ATOM     12  H   UNL     1      33.470 -22.809 -19.259  0.00  0.00    +0.137 HD
ATOM     13  H   UNL     1      34.266 -21.602 -18.431  0.00  0.00    +0.137 HD
ENDBRANCH   9  11
ENDBRANCH   8   9
ENDBRANCH   1   8
TORSDOF 4
ENDMDL
MODEL 8
REMARK VINA RESULT:      -5.8      2.933      4.785
REMARK  Name = 3675
REMARK  4 active torsions:
REMARK  status: ('A' for Active; 'I' for Inactive)
REMARK    1  A    between atoms: C_1  and  C_2
REMARK    2  A    between atoms: C_1  and  C_8
REMARK    3  A    between atoms: C_8  and  N_9
REMARK    4  A    between atoms: N_9  and  N_11
REMARK                            x       y       z     vdW  Elec       q    Type
REMARK                         _______ _______ _______ _____ _____    ______ ____
ROOT
ATOM      1  C   UNL     1      35.104 -18.715 -21.120  0.00  0.00    +0.045 C 
ENDROOT
BRANCH   1   2
ATOM      2  C   UNL     1      34.940 -18.174 -22.499  0.00  0.00    -0.021 C 
ATOM      3  C   UNL     1      35.032 -16.800 -22.726  0.00  0.00    -0.004 C 
ATOM      4  C   UNL     1      34.696 -19.041 -23.564  0.00  0.00    -0.004 C 
ATOM      5  C   UNL     1      34.879 -16.294 -24.016  0.00  0.00    -0.000 C 
ATOM      6  C   UNL     1      34.543 -18.535 -24.855  0.00  0.00    -0.000 C 
ATOM      7  C   UNL     1      34.635 -17.161 -25.081  0.00  0.00    -0.000 C 
ENDBRANCH   1   2
BRANCH   1   8
ATOM      8  C   UNL     1      34.384 -20.059 -20.940  0.00  0.00    +0.089 C 
BRANCH   8   9
ATOM      9  N   UNL     1      32.990 -19.876 -20.553  0.00  0.00    -0.248 NA
ATOM     10  H   UNL     1      32.853 -18.933 -20.190  0.00  0.00    +0.141 HD
BRANCH   9  11
ATOM     11  N   UNL     1      32.677 -20.833 -19.541  0.00  0.00    -0.270 NA
ATOM     12  H   UNL     1      32.984 -21.758 -19.842  0.00  0.00    +0.137 HD
ATOM     13  H   UNL     1      31.670 -20.843 -19.382  0.00  0.00    +0.137 HD
ENDBRANCH   9  11
ENDBRANCH   8   9
ENDBRANCH   1   8
TORSDOF 4
ENDMDL
MODEL 9
REMARK VINA RESULT:      -5.8      8.407      9.290
REMARK  Name = 3675
REMARK  4 active torsions:
REMARK  status: ('A' for Active; 'I' for Inactive)
REMARK    1  A    between atoms: C_1  and  C_2
REMARK    2  A    between atoms: C_1  and  C_8
REMARK    3  A    between atoms: C_8  and  N_9
REMARK    4  A    between atoms: N_9  and  N_11
REMARK                            x       y       z     vdW  Elec       q    Type
REMARK                         _______ _______ _______ _____ _____    ______ ____
ROOT
ATOM      1  C   UNL     1      28.734 -23.093 -15.589  0.00  0.00    +0.045 C 
ENDROOT
BRANCH   1   2
ATOM      2  C   UNL     1      30.045 -23.545 -15.042  0.00  0.00    -0.021 C 
ATOM      3  C   UNL     1      31.213 -22.855 -15.367  0.00  0.00    -0.004 C 
ATOM      4  C   UNL     1      30.104 -24.659 -14.204  0.00  0.00    -0.004 C 
ATOM      5  C   UNL     1      32.439 -23.278 -14.855  0.00  0.00    -0.000 C 
ATOM      6  C   UNL     1      31.331 -25.082 -13.691  0.00  0.00    -0.000 C 
ATOM      7  C   UNL     1      32.499 -24.392 -14.017  0.00  0.00    -0.000 C 
ENDBRANCH   1   2
BRANCH   1   8
ATOM      8  C   UNL     1      28.312 -23.909 -16.819  0.00  0.00    +0.089 C 
BRANCH   8   9
ATOM      9  N   UNL     1      27.605 -23.087 -17.795  0.00  0.00    -0.248 NA
ATOM     10  H   UNL     1      28.176 -22.979 -18.634  0.00  0.00    +0.141 HD
BRANCH   9  11
ATOM     11  N   UNL     1      27.363 -21.808 -17.210  0.00  0.00    -0.270 NA
ATOM     12  H   UNL     1      27.907 -21.100 -17.704  0.00  0.00    +0.137 HD
ATOM     13  H   UNL     1      27.639 -21.826 -16.229  0.00  0.00    +0.137 HD
ENDBRANCH   9  11
ENDBRANCH   8   9
ENDBRANCH   1   8
TORSDOF 4
ENDMDL
