MODEL 1
REMARK VINA RESULT:      -4.1      0.000      0.000
REMARK  Name = 15689
REMARK  0 active torsions:
REMARK  status: ('A' for Active; 'I' for Inactive)
REMARK                            x       y       z     vdW  Elec       q    Type
REMARK                         _______ _______ _______ _____ _____    ______ ____
ROOT
ATOM      1  S   UNL     1      41.836 -13.419 -16.125  0.00  0.00    -0.079 S 
ATOM      2  N   UNL     1      40.766 -15.314 -14.693  0.00  0.00    -0.250 NA
ATOM      3  N   UNL     1      40.624 -13.123 -13.774  0.00  0.00    -0.338 N 
ATOM      4  C   UNL     1      41.497 -14.952 -17.004  0.00  0.00    +0.091 C 
ATOM      5  C   UNL     1      41.379 -15.956 -15.872  0.00  0.00    +0.139 C 
ATOM      6  C   UNL     1      40.990 -14.038 -14.715  0.00  0.00    +0.148 C 
ATOM      7  H   UNL     1      40.849 -12.173 -13.897  0.00  0.00    +0.144 HD
ATOM      8  H   UNL     1      40.133 -13.412 -12.970  0.00  0.00    +0.144 HD
ENDROOT
TORSDOF 0
ENDMDL
MODEL 2
REMARK VINA RESULT:      -3.9      2.682      3.556
REMARK  Name = 15689
REMARK  0 active torsions:
REMARK  status: ('A' for Active; 'I' for Inactive)
REMARK                            x       y       z     vdW  Elec       q    Type
REMARK                         _______ _______ _______ _____ _____    ______ ____
ROOT
ATOM      1  S   UNL     1      41.434 -14.508 -17.850  0.00  0.00    -0.079 S 
ATOM      2  N   UNL     1      42.082 -16.863 -16.943  0.00  0.00    -0.250 NA
ATOM      3  N   UNL     1      42.579 -16.470 -19.238  0.00  0.00    -0.338 N 
ATOM      4  C   UNL     1      41.529 -14.646 -16.058  0.00  0.00    +0.091 C 
ATOM      5  C   UNL     1      41.415 -16.143 -15.841  0.00  0.00    +0.139 C 
ATOM      6  C   UNL     1      42.094 -16.129 -18.011  0.00  0.00    +0.148 C 
ATOM      7  H   UNL     1      42.534 -15.827 -19.981  0.00  0.00    +0.144 HD
ATOM      8  H   UNL     1      42.974 -17.361 -19.381  0.00  0.00    +0.144 HD
ENDROOT
TORSDOF 0
ENDMDL
MODEL 3
REMARK VINA RESULT:      -3.9     11.845     12.394
REMARK  Name = 15689
REMARK  0 active torsions:
REMARK  status: ('A' for Active; 'I' for Inactive)
REMARK                            x       y       z     vdW  Elec       q    Type
REMARK                         _______ _______ _______ _____ _____    ______ ____
ROOT
ATOM      1  S   UNL     1      37.160 -25.906 -12.829  0.00  0.00    -0.079 S 
ATOM      2  N   UNL     1      38.526 -26.286 -15.016  0.00  0.00    -0.250 NA
ATOM      3  N   UNL     1      36.254 -26.993 -15.085  0.00  0.00    -0.338 N 
ATOM      4  C   UNL     1      38.680 -24.953 -12.964  0.00  0.00    +0.091 C 
ATOM      5  C   UNL     1      39.456 -25.726 -14.016  0.00  0.00    +0.139 C 
ATOM      6  C   UNL     1      37.355 -26.455 -14.488  0.00  0.00    +0.148 C 
ATOM      7  H   UNL     1      35.411 -27.072 -14.583  0.00  0.00    +0.144 HD
ATOM      8  H   UNL     1      36.302 -27.302 -16.018  0.00  0.00    +0.144 HD
ENDROOT
TORSDOF 0
ENDMDL
MODEL 4
REMARK VINA RESULT:      -3.8     10.499     11.007
REMARK  Name = 15689
REMARK  0 active torsions:
REMARK  status: ('A' for Active; 'I' for Inactive)
REMARK                            x       y       z     vdW  Elec       q    Type
REMARK                         _______ _______ _______ _____ _____    ______ ____
ROOT
ATOM      1  S   UNL     1      35.141 -21.419 -19.795  0.00  0.00    -0.079 S 
ATOM      2  N   UNL     1      32.753 -20.498 -20.287  0.00  0.00    -0.250 NA
ATOM      3  N   UNL     1      32.873 -22.237 -18.667  0.00  0.00    -0.338 N 
ATOM      4  C   UNL     1      35.085 -19.818 -20.613  0.00  0.00    +0.091 C 
ATOM      5  C   UNL     1      33.683 -19.798 -21.194  0.00  0.00    +0.139 C 
ATOM      6  C   UNL     1      33.397 -21.370 -19.577  0.00  0.00    +0.148 C 
ATOM      7  H   UNL     1      33.462 -22.860 -18.183  0.00  0.00    +0.144 HD
ATOM      8  H   UNL     1      31.903 -22.242 -18.492  0.00  0.00    +0.144 HD
ENDROOT
TORSDOF 0
ENDMDL
MODEL 5
REMARK VINA RESULT:      -3.8     11.898     12.399
REMARK  Name = 15689
REMARK  0 active torsions:
REMARK  status: ('A' for Active; 'I' for Inactive)
REMARK                            x       y       z     vdW  Elec       q    Type
REMARK                         _______ _______ _______ _____ _____    ______ ____
ROOT
ATOM      1  S   UNL     1      33.519 -14.901 -23.842  0.00  0.00    -0.079 S 
ATOM      2  N   UNL     1      33.988 -16.311 -25.983  0.00  0.00    -0.250 NA
ATOM      3  N   UNL     1      32.527 -14.454 -26.271  0.00  0.00    -0.338 N 
ATOM      4  C   UNL     1      34.965 -15.969 -23.761  0.00  0.00    +0.091 C 
ATOM      5  C   UNL     1      34.690 -16.972 -24.867  0.00  0.00    +0.139 C 
ATOM      6  C   UNL     1      33.331 -15.282 -25.547  0.00  0.00    +0.148 C 
ATOM      7  H   UNL     1      32.075 -13.698 -25.831  0.00  0.00    +0.144 HD
ATOM      8  H   UNL     1      32.398 -14.610 -27.235  0.00  0.00    +0.144 HD
ENDROOT
TORSDOF 0
ENDMDL
MODEL 6
REMARK VINA RESULT:      -3.8     11.652     12.084
REMARK  Name = 15689
REMARK  0 active torsions:
REMARK  status: ('A' for Active; 'I' for Inactive)
REMARK                            x       y       z     vdW  Elec       q    Type
REMARK                         _______ _______ _______ _____ _____    ______ ____
ROOT
ATOM      1  S   UNL     1      37.939 -24.492 -14.701  0.00  0.00    -0.079 S 
ATOM      2  N   UNL     1      38.088 -27.093 -14.691  0.00  0.00    -0.250 NA
ATOM      3  N   UNL     1      40.016 -25.948 -13.892  0.00  0.00    -0.338 N 
ATOM      4  C   UNL     1      36.365 -25.355 -14.820  0.00  0.00    +0.091 C 
ATOM      5  C   UNL     1      36.787 -26.736 -15.287  0.00  0.00    +0.139 C 
ATOM      6  C   UNL     1      38.757 -26.020 -14.408  0.00  0.00    +0.148 C 
ATOM      7  H   UNL     1      40.427 -25.071 -13.717  0.00  0.00    +0.144 HD
ATOM      8  H   UNL     1      40.515 -26.773 -13.693  0.00  0.00    +0.144 HD
ENDROOT
TORSDOF 0
ENDMDL
MODEL 7
REMARK VINA RESULT:      -3.7     11.313     11.500
REMARK  Name = 15689
REMARK  0 active torsions:
REMARK  status: ('A' for Active; 'I' for Inactive)
REMARK                            x       y       z     vdW  Elec       q    Type
REMARK                         _______ _______ _______ _____ _____    ______ ____
ROOT
ATOM      1  S   UNL     1      31.861  -9.667 -21.571  0.00  0.00    -0.079 S 
ATOM      2  N   UNL     1      32.093  -9.941 -18.990  0.00  0.00    -0.250 NA
ATOM      3  N   UNL     1      32.796  -7.845 -19.870  0.00  0.00    -0.338 N 
ATOM      4  C   UNL     1      30.899 -11.005 -20.847  0.00  0.00    +0.091 C 
ATOM      5  C   UNL     1      31.600 -11.227 -19.519  0.00  0.00    +0.139 C 
ATOM      6  C   UNL     1      32.298  -9.109 -19.962  0.00  0.00    +0.148 C 
ATOM      7  H   UNL     1      32.910  -7.300 -20.682  0.00  0.00    +0.144 HD
ATOM      8  H   UNL     1      33.043  -7.475 -18.992  0.00  0.00    +0.144 HD
ENDROOT
TORSDOF 0
ENDMDL
MODEL 8
REMARK VINA RESULT:      -3.7      8.982      9.356
REMARK  Name = 15689
REMARK  0 active torsions:
REMARK  status: ('A' for Active; 'I' for Inactive)
REMARK                            x       y       z     vdW  Elec       q    Type
REMARK                         _______ _______ _______ _____ _____    ______ ____
ROOT
ATOM      1  S   UNL     1      35.385 -18.133 -22.937  0.00  0.00    -0.079 S 
ATOM      2  N   UNL     1      35.233 -16.976 -20.608  0.00  0.00    -0.250 NA
ATOM      3  N   UNL     1      36.206 -19.149 -20.618  0.00  0.00    -0.338 N 
ATOM      4  C   UNL     1      35.127 -16.353 -22.975  0.00  0.00    +0.091 C 
ATOM      5  C   UNL     1      34.594 -16.072 -21.583  0.00  0.00    +0.139 C 
ATOM      6  C   UNL     1      35.620 -18.063 -21.197  0.00  0.00    +0.148 C 
ATOM      7  H   UNL     1      36.459 -19.924 -21.168  0.00  0.00    +0.144 HD
ATOM      8  H   UNL     1      36.376 -19.157 -19.648  0.00  0.00    +0.144 HD
ENDROOT
TORSDOF 0
ENDMDL
MODEL 9
REMARK VINA RESULT:      -3.7     11.475     12.108
REMARK  Name = 15689
REMARK  0 active torsions:
REMARK  status: ('A' for Active; 'I' for Inactive)
REMARK                            x       y       z     vdW  Elec       q    Type
REMARK                         _______ _______ _______ _____ _____    ______ ____
ROOT
ATOM      1  S   UNL     1      34.421 -15.236 -23.569  0.00  0.00    -0.079 S 
ATOM      2  N   UNL     1      34.106 -16.484 -25.834  0.00  0.00    -0.250 NA
ATOM      3  N   UNL     1      35.328 -17.666 -24.168  0.00  0.00    -0.338 N 
ATOM      4  C   UNL     1      33.116 -14.594 -24.629  0.00  0.00    +0.091 C 
ATOM      5  C   UNL     1      33.500 -15.148 -25.988  0.00  0.00    +0.139 C 
ATOM      6  C   UNL     1      34.638 -16.598 -24.658  0.00  0.00    +0.148 C 
ATOM      7  H   UNL     1      35.689 -17.641 -23.253  0.00  0.00    +0.144 HD
ATOM      8  H   UNL     1      35.465 -18.463 -24.730  0.00  0.00    +0.144 HD
ENDROOT
TORSDOF 0
ENDMDL
