MODEL 1
REMARK VINA RESULT:      -7.6      0.000      0.000
REMARK  Name = 1503946
REMARK  1 active torsions:
REMARK  status: ('A' for Active; 'I' for Inactive)
REMARK    1  A    between atoms: N_1  and  C_13
REMARK                            x       y       z     vdW  Elec       q    Type
REMARK                         _______ _______ _______ _____ _____    ______ ____
ROOT
ATOM      1  N   UNL     1      35.270 -19.494 -21.606  0.00  0.00    -0.258 N 
ATOM      2  N   UNL     1      33.012 -19.918 -20.890  0.00  0.00    -0.095 NA
ATOM      3  N   UNL     1      34.733 -20.979 -19.870  0.00  0.00    -0.072 NA
ATOM      4  N   UNL     1      32.636 -20.749 -19.909  0.00  0.00    -0.139 N 
ATOM      5  N   UNL     1      33.622 -21.400 -19.277  0.00  0.00    -0.020 NA
ATOM      6  C   UNL     1      34.332 -20.097 -20.826  0.00  0.00    +0.130 C 
ATOM      7  H   UNL     1      36.201 -19.749 -21.416  0.00  0.00    +0.164 HD
ATOM      8  H   UNL     1      31.690 -20.875 -19.667  0.00  0.00    +0.197 HD
ENDROOT
BRANCH   1  13
ATOM      9  O   UNL     1      34.950 -15.091 -23.301  0.00  0.00    -0.291 OA
ATOM     10  C   UNL     1      34.240 -18.213 -24.964  0.00  0.00    +0.014 C 
ATOM     11  C   UNL     1      34.935 -19.171 -24.001  0.00  0.00    +0.042 C 
ATOM     12  C   UNL     1      34.891 -16.840 -24.938  0.00  0.00    +0.070 C 
ATOM     13  C   UNL     1      35.107 -18.586 -22.617  0.00  0.00    +0.037 C 
ATOM     14  C   UNL     1      34.952 -16.299 -23.529  0.00  0.00    +0.174 C 
ATOM     15  C   UNL     1      35.087 -17.260 -22.404  0.00  0.00    +0.048 C 
ENDBRANCH   1  13
TORSDOF 1
ENDMDL
MODEL 2
REMARK VINA RESULT:      -7.6      8.906     10.270
REMARK  Name = 1503946
REMARK  1 active torsions:
REMARK  status: ('A' for Active; 'I' for Inactive)
REMARK    1  A    between atoms: N_1  and  C_13
REMARK                            x       y       z     vdW  Elec       q    Type
REMARK                         _______ _______ _______ _____ _____    ______ ____
ROOT
ATOM      1  N   UNL     1      28.752 -22.917 -16.979  0.00  0.00    -0.258 N 
ATOM      2  N   UNL     1      26.975 -22.247 -15.501  0.00  0.00    -0.095 NA
ATOM      3  N   UNL     1      26.775 -21.900 -17.730  0.00  0.00    -0.072 NA
ATOM      4  N   UNL     1      25.824 -21.665 -15.861  0.00  0.00    -0.139 N 
ATOM      5  N   UNL     1      25.661 -21.439 -17.172  0.00  0.00    -0.020 NA
ATOM      6  C   UNL     1      27.535 -22.374 -16.704  0.00  0.00    +0.130 C 
ATOM      7  H   UNL     1      29.002 -22.927 -17.930  0.00  0.00    +0.164 HD
ATOM      8  H   UNL     1      25.136 -21.416 -15.201  0.00  0.00    +0.197 HD
ENDROOT
BRANCH   1  13
ATOM      9  O   UNL     1      33.061 -23.134 -15.043  0.00  0.00    -0.291 OA
ATOM     10  C   UNL     1      30.331 -25.476 -14.758  0.00  0.00    +0.014 C 
ATOM     11  C   UNL     1      29.194 -24.594 -15.263  0.00  0.00    +0.042 C 
ATOM     12  C   UNL     1      31.436 -24.641 -14.132  0.00  0.00    +0.070 C 
ATOM     13  C   UNL     1      29.678 -23.450 -16.125  0.00  0.00    +0.037 C 
ATOM     14  C   UNL     1      31.914 -23.575 -15.089  0.00  0.00    +0.174 C 
ATOM     15  C   UNL     1      30.944 -23.003 -16.057  0.00  0.00    +0.048 C 
ENDBRANCH   1  13
TORSDOF 1
ENDMDL
MODEL 3
REMARK VINA RESULT:      -7.5      1.184      1.855
REMARK  Name = 1503946
REMARK  1 active torsions:
REMARK  status: ('A' for Active; 'I' for Inactive)
REMARK    1  A    between atoms: N_1  and  C_13
REMARK                            x       y       z     vdW  Elec       q    Type
REMARK                         _______ _______ _______ _____ _____    ______ ____
ROOT
ATOM      1  N   UNL     1      35.235 -18.823 -21.466  0.00  0.00    -0.258 N 
ATOM      2  N   UNL     1      33.087 -19.772 -20.943  0.00  0.00    -0.095 NA
ATOM      3  N   UNL     1      34.952 -20.603 -19.964  0.00  0.00    -0.072 NA
ATOM      4  N   UNL     1      32.855 -20.785 -20.098  0.00  0.00    -0.139 N 
ATOM      5  N   UNL     1      33.930 -21.309 -19.494  0.00  0.00    -0.020 NA
ATOM      6  C   UNL     1      34.413 -19.696 -20.824  0.00  0.00    +0.130 C 
ATOM      7  H   UNL     1      36.191 -18.913 -21.255  0.00  0.00    +0.164 HD
ATOM      8  H   UNL     1      31.946 -21.125 -19.929  0.00  0.00    +0.197 HD
ENDROOT
BRANCH   1  13
ATOM      9  O   UNL     1      34.784 -17.109 -25.850  0.00  0.00    -0.291 OA
ATOM     10  C   UNL     1      34.629 -15.348 -22.706  0.00  0.00    +0.014 C 
ATOM     11  C   UNL     1      34.442 -16.535 -21.765  0.00  0.00    +0.042 C 
ATOM     12  C   UNL     1      34.073 -15.650 -24.087  0.00  0.00    +0.070 C 
ATOM     13  C   UNL     1      34.926 -17.837 -22.363  0.00  0.00    +0.037 C 
ATOM     14  C   UNL     1      34.668 -16.924 -24.640  0.00  0.00    +0.174 C 
ATOM     15  C   UNL     1      35.053 -17.999 -23.691  0.00  0.00    +0.048 C 
ENDBRANCH   1  13
TORSDOF 1
ENDMDL
MODEL 4
REMARK VINA RESULT:      -7.5      3.207      5.373
REMARK  Name = 1503946
REMARK  1 active torsions:
REMARK  status: ('A' for Active; 'I' for Inactive)
REMARK    1  A    between atoms: N_1  and  C_13
REMARK                            x       y       z     vdW  Elec       q    Type
REMARK                         _______ _______ _______ _____ _____    ______ ____
ROOT
ATOM      1  N   UNL     1      35.036 -18.323 -21.653  0.00  0.00    -0.258 N 
ATOM      2  N   UNL     1      34.627 -19.078 -23.901  0.00  0.00    -0.095 NA
ATOM      3  N   UNL     1      34.981 -16.877 -23.501  0.00  0.00    -0.072 NA
ATOM      4  N   UNL     1      34.583 -18.310 -24.998  0.00  0.00    -0.139 N 
ATOM      5  N   UNL     1      34.786 -16.999 -24.809  0.00  0.00    -0.020 NA
ATOM      6  C   UNL     1      34.879 -18.136 -22.992  0.00  0.00    +0.130 C 
ATOM      7  H   UNL     1      35.218 -17.508 -21.134  0.00  0.00    +0.164 HD
ATOM      8  H   UNL     1      34.410 -18.687 -25.892  0.00  0.00    +0.197 HD
ENDROOT
BRANCH   1  13
ATOM      9  O   UNL     1      32.709 -21.758 -19.385  0.00  0.00    -0.291 OA
ATOM     10  C   UNL     1      36.245 -21.047 -19.397  0.00  0.00    +0.014 C 
ATOM     11  C   UNL     1      36.309 -20.123 -20.609  0.00  0.00    +0.042 C 
ATOM     12  C   UNL     1      35.087 -22.023 -19.511  0.00  0.00    +0.070 C 
ATOM     13  C   UNL     1      34.978 -19.480 -20.925  0.00  0.00    +0.037 C 
ATOM     14  C   UNL     1      33.787 -21.291 -19.747  0.00  0.00    +0.174 C 
ATOM     15  C   UNL     1      33.819 -20.011 -20.500  0.00  0.00    +0.048 C 
ENDBRANCH   1  13
TORSDOF 1
ENDMDL
MODEL 5
REMARK VINA RESULT:      -7.5      3.356      5.450
REMARK  Name = 1503946
REMARK  1 active torsions:
REMARK  status: ('A' for Active; 'I' for Inactive)
REMARK    1  A    between atoms: N_1  and  C_13
REMARK                            x       y       z     vdW  Elec       q    Type
REMARK                         _______ _______ _______ _____ _____    ______ ____
ROOT
ATOM      1  N   UNL     1      34.925 -19.072 -21.908  0.00  0.00    -0.258 N 
ATOM      2  N   UNL     1      34.871 -17.017 -20.657  0.00  0.00    -0.095 NA
ATOM      3  N   UNL     1      35.008 -16.954 -22.916  0.00  0.00    -0.072 NA
ATOM      4  N   UNL     1      34.914 -15.779 -21.167  0.00  0.00    -0.139 N 
ATOM      5  N   UNL     1      34.996 -15.693 -22.501  0.00  0.00    -0.020 NA
ATOM      6  C   UNL     1      34.932 -17.716 -21.790  0.00  0.00    +0.130 C 
ATOM      7  H   UNL     1      34.978 -19.413 -22.829  0.00  0.00    +0.164 HD
ATOM      8  H   UNL     1      34.887 -14.978 -20.594  0.00  0.00    +0.197 HD
ENDROOT
BRANCH   1  13
ATOM      9  O   UNL     1      32.569 -21.854 -18.897  0.00  0.00    -0.291 OA
ATOM     10  C   UNL     1      36.115 -21.223 -19.092  0.00  0.00    +0.014 C 
ATOM     11  C   UNL     1      36.181 -20.604 -20.485  0.00  0.00    +0.042 C 
ATOM     12  C   UNL     1      34.942 -22.180 -18.972  0.00  0.00    +0.070 C 
ATOM     13  C   UNL     1      34.857 -20.028 -20.932  0.00  0.00    +0.037 C 
ATOM     14  C   UNL     1      33.651 -21.501 -19.363  0.00  0.00    +0.174 C 
ATOM     15  C   UNL     1      33.694 -20.429 -20.390  0.00  0.00    +0.048 C 
ENDBRANCH   1  13
TORSDOF 1
ENDMDL
MODEL 6
REMARK VINA RESULT:      -7.4      2.080      3.213
REMARK  Name = 1503946
REMARK  1 active torsions:
REMARK  status: ('A' for Active; 'I' for Inactive)
REMARK    1  A    between atoms: N_1  and  C_13
REMARK                            x       y       z     vdW  Elec       q    Type
REMARK                         _______ _______ _______ _____ _____    ______ ____
ROOT
ATOM      1  N   UNL     1      35.780 -17.001 -22.906  0.00  0.00    -0.258 N 
ATOM      2  N   UNL     1      34.297 -18.276 -21.504  0.00  0.00    -0.095 NA
ATOM      3  N   UNL     1      36.525 -18.674 -21.438  0.00  0.00    -0.072 NA
ATOM      4  N   UNL     1      34.653 -19.241 -20.646  0.00  0.00    -0.139 N 
ATOM      5  N   UNL     1      35.963 -19.512 -20.573  0.00  0.00    -0.020 NA
ATOM      6  C   UNL     1      35.502 -17.953 -21.974  0.00  0.00    +0.130 C 
ATOM      7  H   UNL     1      36.732 -16.900 -23.131  0.00  0.00    +0.164 HD
ATOM      8  H   UNL     1      33.991 -19.725 -20.101  0.00  0.00    +0.197 HD
ENDROOT
BRANCH   1  13
ATOM      9  O   UNL     1      33.215 -15.736 -26.671  0.00  0.00    -0.291 OA
ATOM     10  C   UNL     1      33.999 -13.817 -23.719  0.00  0.00    +0.014 C 
ATOM     11  C   UNL     1      34.471 -14.945 -22.807  0.00  0.00    +0.042 C 
ATOM     12  C   UNL     1      33.002 -14.323 -24.747  0.00  0.00    +0.070 C 
ATOM     13  C   UNL     1      34.929 -16.165 -23.575  0.00  0.00    +0.037 C 
ATOM     14  C   UNL     1      33.570 -15.490 -25.520  0.00  0.00    +0.174 C 
ATOM     15  C   UNL     1      34.529 -16.395 -24.837  0.00  0.00    +0.048 C 
ENDBRANCH   1  13
TORSDOF 1
ENDMDL
MODEL 7
REMARK VINA RESULT:      -7.2      8.802     10.113
REMARK  Name = 1503946
REMARK  1 active torsions:
REMARK  status: ('A' for Active; 'I' for Inactive)
REMARK    1  A    between atoms: N_1  and  C_13
REMARK                            x       y       z     vdW  Elec       q    Type
REMARK                         _______ _______ _______ _____ _____    ______ ____
ROOT
ATOM      1  N   UNL     1      34.305 -24.650 -12.956  0.00  0.00    -0.258 N 
ATOM      2  N   UNL     1      36.133 -23.202 -12.366  0.00  0.00    -0.095 NA
ATOM      3  N   UNL     1      35.504 -24.852 -10.949  0.00  0.00    -0.072 NA
ATOM      4  N   UNL     1      36.859 -23.262 -11.242  0.00  0.00    -0.139 N 
ATOM      5  N   UNL     1      36.522 -24.224 -10.372  0.00  0.00    -0.020 NA
ATOM      6  C   UNL     1      35.300 -24.216 -12.136  0.00  0.00    +0.130 C 
ATOM      7  H   UNL     1      33.788 -25.416 -12.620  0.00  0.00    +0.164 HD
ATOM      8  H   UNL     1      37.598 -22.634 -11.064  0.00  0.00    +0.197 HD
ENDROOT
BRANCH   1  13
ATOM      9  O   UNL     1      35.176 -22.900 -17.261  0.00  0.00    -0.291 OA
ATOM     10  C   UNL     1      32.029 -23.154 -15.516  0.00  0.00    +0.014 C 
ATOM     11  C   UNL     1      32.427 -24.148 -14.430  0.00  0.00    +0.042 C 
ATOM     12  C   UNL     1      32.873 -23.339 -16.766  0.00  0.00    +0.070 C 
ATOM     13  C   UNL     1      33.918 -24.175 -14.179  0.00  0.00    +0.037 C 
ATOM     14  C   UNL     1      34.345 -23.274 -16.436  0.00  0.00    +0.174 C 
ATOM     15  C   UNL     1      34.796 -23.744 -15.101  0.00  0.00    +0.048 C 
ENDBRANCH   1  13
TORSDOF 1
ENDMDL
MODEL 8
REMARK VINA RESULT:      -7.1      3.511      5.273
REMARK  Name = 1503946
REMARK  1 active torsions:
REMARK  status: ('A' for Active; 'I' for Inactive)
REMARK    1  A    between atoms: N_1  and  C_13
REMARK                            x       y       z     vdW  Elec       q    Type
REMARK                         _______ _______ _______ _____ _____    ______ ____
ROOT
ATOM      1  N   UNL     1      34.939 -17.956 -22.167  0.00  0.00    -0.258 N 
ATOM      2  N   UNL     1      34.529 -16.079 -20.719  0.00  0.00    -0.095 NA
ATOM      3  N   UNL     1      35.002 -15.729 -22.905  0.00  0.00    -0.072 NA
ATOM      4  N   UNL     1      34.548 -14.787 -21.073  0.00  0.00    -0.139 N 
ATOM      5  N   UNL     1      34.825 -14.531 -22.359  0.00  0.00    -0.020 NA
ATOM      6  C   UNL     1      34.818 -16.627 -21.899  0.00  0.00    +0.130 C 
ATOM      7  H   UNL     1      35.158 -18.177 -23.100  0.00  0.00    +0.164 HD
ATOM      8  H   UNL     1      34.370 -14.066 -20.425  0.00  0.00    +0.197 HD
ENDROOT
BRANCH   1  13
ATOM      9  O   UNL     1      36.650 -21.502 -19.549  0.00  0.00    -0.291 OA
ATOM     10  C   UNL     1      33.232 -20.821 -20.479  0.00  0.00    +0.014 C 
ATOM     11  C   UNL     1      33.382 -19.373 -20.935  0.00  0.00    +0.042 C 
ATOM     12  C   UNL     1      34.278 -21.180 -19.438  0.00  0.00    +0.070 C 
ATOM     13  C   UNL     1      34.801 -19.028 -21.328  0.00  0.00    +0.037 C 
ATOM     14  C   UNL     1      35.669 -20.876 -19.944  0.00  0.00    +0.174 C 
ATOM     15  C   UNL     1      35.849 -19.744 -20.888  0.00  0.00    +0.048 C 
ENDBRANCH   1  13
TORSDOF 1
ENDMDL
MODEL 9
REMARK VINA RESULT:      -7.1      7.914      9.231
REMARK  Name = 1503946
REMARK  1 active torsions:
REMARK  status: ('A' for Active; 'I' for Inactive)
REMARK    1  A    between atoms: N_1  and  C_13
REMARK                            x       y       z     vdW  Elec       q    Type
REMARK                         _______ _______ _______ _____ _____    ______ ____
ROOT
ATOM      1  N   UNL     1      35.479 -24.094 -14.926  0.00  0.00    -0.258 N 
ATOM      2  N   UNL     1      35.770 -26.335 -15.753  0.00  0.00    -0.095 NA
ATOM      3  N   UNL     1      37.408 -25.369 -14.523  0.00  0.00    -0.072 NA
ATOM      4  N   UNL     1      36.841 -27.116 -15.561  0.00  0.00    -0.139 N 
ATOM      5  N   UNL     1      37.836 -26.586 -14.837  0.00  0.00    -0.020 NA
ATOM      6  C   UNL     1      36.173 -25.254 -15.085  0.00  0.00    +0.130 C 
ATOM      7  H   UNL     1      35.935 -23.401 -14.398  0.00  0.00    +0.164 HD
ATOM      8  H   UNL     1      36.894 -28.028 -15.930  0.00  0.00    +0.197 HD
ENDROOT
BRANCH   1  13
ATOM      9  O   UNL     1      32.516 -22.567 -18.279  0.00  0.00    -0.291 OA
ATOM     10  C   UNL     1      31.895 -23.043 -14.758  0.00  0.00    +0.014 C 
ATOM     11  C   UNL     1      33.102 -23.908 -14.407  0.00  0.00    +0.042 C 
ATOM     12  C   UNL     1      31.495 -23.222 -16.212  0.00  0.00    +0.070 C 
ATOM     13  C   UNL     1      34.239 -23.753 -15.392  0.00  0.00    +0.037 C 
ATOM     14  C   UNL     1      32.670 -22.972 -17.129  0.00  0.00    +0.174 C 
ATOM     15  C   UNL     1      34.034 -23.294 -16.639  0.00  0.00    +0.048 C 
ENDBRANCH   1  13
TORSDOF 1
ENDMDL
