MODEL 1
REMARK VINA RESULT:      -7.6      0.000      0.000
REMARK  Name = 5289474
REMARK  5 active torsions:
REMARK  status: ('A' for Active; 'I' for Inactive)
REMARK    1  A    between atoms: N_2  and  C_12
REMARK    2  A    between atoms: C_12  and  C_13
REMARK    3  A    between atoms: C_13  and  N_14
REMARK    4  A    between atoms: C_13  and  C_18
REMARK    5  A    between atoms: C_18  and  C_19
REMARK                            x       y       z     vdW  Elec       q    Type
REMARK                         _______ _______ _______ _____ _____    ______ ____
ROOT
ATOM      1  N   UNL     1      32.639 -14.034 -23.019  0.00  0.00    +0.377 N 
ATOM      2  N   UNL     1      33.918 -16.084 -22.829  0.00  0.00    +0.376 N 
ATOM      3  C   UNL     1      33.655 -14.764 -22.246  0.00  0.00    -0.123 C 
ATOM      4  C   UNL     1      32.980 -14.770 -20.878  0.00  0.00    -0.043 C 
ATOM      5  C   UNL     1      32.307 -12.858 -22.222  0.00  0.00    -0.080 C 
ATOM      6  C   UNL     1      32.312 -13.396 -20.793  0.00  0.00    -0.027 C 
ATOM      7  C   UNL     1      33.107 -13.744 -24.368  0.00  0.00    -0.082 C 
ATOM      8  C   UNL     1      34.417 -15.917 -24.208  0.00  0.00    -0.082 C 
ATOM      9  C   UNL     1      33.447 -15.074 -25.049  0.00  0.00    -0.046 C 
ATOM     10  H   UNL     1      31.794 -14.583 -23.177  0.00  0.00    -0.083 HD
ATOM     11  H   UNL     1      33.043 -16.609 -22.836  0.00  0.00    -0.083 HD
ENDROOT
BRANCH   2  12
ATOM     12  C   UNL     1      34.878 -16.852 -22.036  0.00  0.00    -0.102 C 
BRANCH  12  13
ATOM     13  C   UNL     1      35.385 -18.094 -22.791  0.00  0.00    -0.087 C 
BRANCH  13  14
ATOM     14  N   UNL     1      36.812 -18.271 -22.504  0.00  0.00    +0.380 N 
ATOM     15  H   UNL     1      36.924 -18.854 -21.676  0.00  0.00    -0.089 HD
ATOM     16  H   UNL     1      37.241 -17.360 -22.340  0.00  0.00    -0.089 HD
ATOM     17  H   UNL     1      37.266 -18.720 -23.300  0.00  0.00    -0.089 HD
ENDBRANCH  13  14
BRANCH  13  18
ATOM     18  C   UNL     1      34.605 -19.368 -22.402  0.00  0.00    -0.024 C 
BRANCH  18  19
ATOM     19  C   UNL     1      34.334 -19.545 -20.891  0.00  0.00    -0.002 C 
ATOM     20  C   UNL     1      35.245 -20.594 -20.254  0.00  0.00    -0.000 C 
ATOM     21  C   UNL     1      32.868 -19.934 -20.673  0.00  0.00    -0.000 C 
ENDBRANCH  18  19
ENDBRANCH  13  18
ENDBRANCH  12  13
ENDBRANCH   2  12
TORSDOF 5
ENDMDL
MODEL 2
REMARK VINA RESULT:      -7.2      1.807      5.770
REMARK  Name = 5289474
REMARK  5 active torsions:
REMARK  status: ('A' for Active; 'I' for Inactive)
REMARK    1  A    between atoms: N_2  and  C_12
REMARK    2  A    between atoms: C_12  and  C_13
REMARK    3  A    between atoms: C_13  and  N_14
REMARK    4  A    between atoms: C_13  and  C_18
REMARK    5  A    between atoms: C_18  and  C_19
REMARK                            x       y       z     vdW  Elec       q    Type
REMARK                         _______ _______ _______ _____ _____    ______ ____
ROOT
ATOM      1  N   UNL     1      35.068 -20.355 -19.912  0.00  0.00    +0.377 N 
ATOM      2  N   UNL     1      35.007 -18.534 -21.511  0.00  0.00    +0.376 N 
ATOM      3  C   UNL     1      34.424 -19.824 -21.123  0.00  0.00    -0.123 C 
ATOM      4  C   UNL     1      32.977 -19.777 -20.645  0.00  0.00    -0.043 C 
ATOM      5  C   UNL     1      34.261 -21.500 -19.508  0.00  0.00    -0.080 C 
ATOM      6  C   UNL     1      32.833 -21.035 -19.786  0.00  0.00    -0.027 C 
ATOM      7  C   UNL     1      36.475 -20.652 -20.147  0.00  0.00    -0.082 C 
ATOM      8  C   UNL     1      36.445 -18.713 -21.791  0.00  0.00    -0.082 C 
ATOM      9  C   UNL     1      37.164 -19.359 -20.598  0.00  0.00    -0.046 C 
ATOM     10  H   UNL     1      35.094 -19.676 -19.150  0.00  0.00    -0.083 HD
ATOM     11  H   UNL     1      34.880 -17.882 -20.736  0.00  0.00    -0.083 HD
ENDROOT
BRANCH   2  12
ATOM     12  C   UNL     1      34.335 -17.958 -22.676  0.00  0.00    -0.102 C 
BRANCH  12  13
ATOM     13  C   UNL     1      35.042 -16.684 -23.177  0.00  0.00    -0.087 C 
BRANCH  13  14
ATOM     14  N   UNL     1      35.325 -16.834 -24.608  0.00  0.00    +0.380 N 
ATOM     15  H   UNL     1      36.315 -17.036 -24.740  0.00  0.00    -0.089 HD
ATOM     16  H   UNL     1      35.087 -15.969 -25.093  0.00  0.00    -0.089 HD
ATOM     17  H   UNL     1      34.767 -17.600 -24.986  0.00  0.00    -0.089 HD
ENDBRANCH  13  14
BRANCH  13  18
ATOM     18  C   UNL     1      34.194 -15.417 -22.933  0.00  0.00    -0.024 C 
BRANCH  18  19
ATOM     19  C   UNL     1      33.483 -15.347 -21.564  0.00  0.00    -0.002 C 
ATOM     20  C   UNL     1      32.436 -14.234 -21.507  0.00  0.00    -0.000 C 
ATOM     21  C   UNL     1      34.520 -15.138 -20.455  0.00  0.00    -0.000 C 
ENDBRANCH  18  19
ENDBRANCH  13  18
ENDBRANCH  12  13
ENDBRANCH   2  12
TORSDOF 5
ENDMDL
MODEL 3
REMARK VINA RESULT:      -7.2      1.698      2.641
REMARK  Name = 5289474
REMARK  5 active torsions:
REMARK  status: ('A' for Active; 'I' for Inactive)
REMARK    1  A    between atoms: N_2  and  C_12
REMARK    2  A    between atoms: C_12  and  C_13
REMARK    3  A    between atoms: C_13  and  N_14
REMARK    4  A    between atoms: C_13  and  C_18
REMARK    5  A    between atoms: C_18  and  C_19
REMARK                            x       y       z     vdW  Elec       q    Type
REMARK                         _______ _______ _______ _____ _____    ______ ____
ROOT
ATOM      1  N   UNL     1      34.057 -15.841 -23.491  0.00  0.00    +0.377 N 
ATOM      2  N   UNL     1      34.866 -18.003 -22.748  0.00  0.00    +0.376 N 
ATOM      3  C   UNL     1      35.004 -16.548 -22.614  0.00  0.00    -0.123 C 
ATOM      4  C   UNL     1      34.587 -15.967 -21.266  0.00  0.00    -0.043 C 
ATOM      5  C   UNL     1      34.132 -14.438 -23.102  0.00  0.00    -0.080 C 
ATOM      6  C   UNL     1      34.262 -14.506 -21.582  0.00  0.00    -0.027 C 
ATOM      7  C   UNL     1      34.342 -16.101 -24.896  0.00  0.00    -0.082 C 
ATOM      8  C   UNL     1      35.148 -18.392 -24.144  0.00  0.00    -0.082 C 
ATOM      9  C   UNL     1      34.259 -17.614 -25.125  0.00  0.00    -0.046 C 
ATOM     10  H   UNL     1      33.098 -16.170 -23.380  0.00  0.00    -0.083 HD
ATOM     11  H   UNL     1      33.909 -18.256 -22.501  0.00  0.00    -0.083 HD
ENDROOT
BRANCH   2  12
ATOM     12  C   UNL     1      35.754 -18.722 -21.835  0.00  0.00    -0.102 C 
BRANCH  12  13
ATOM     13  C   UNL     1      34.968 -19.504 -20.766  0.00  0.00    -0.087 C 
BRANCH  13  14
ATOM     14  N   UNL     1      33.603 -19.729 -21.254  0.00  0.00    +0.380 N 
ATOM     15  H   UNL     1      33.051 -18.883 -21.123  0.00  0.00    -0.089 HD
ATOM     16  H   UNL     1      33.179 -20.497 -20.733  0.00  0.00    -0.089 HD
ATOM     17  H   UNL     1      33.633 -19.967 -22.246  0.00  0.00    -0.089 HD
ENDBRANCH  13  14
BRANCH  13  18
ATOM     18  C   UNL     1      35.638 -20.853 -20.424  0.00  0.00    -0.024 C 
BRANCH  18  19
ATOM     19  C   UNL     1      35.284 -21.438 -19.039  0.00  0.00    -0.002 C 
ATOM     20  C   UNL     1      36.526 -21.820 -18.233  0.00  0.00    -0.000 C 
ATOM     21  C   UNL     1      34.384 -22.665 -19.213  0.00  0.00    -0.000 C 
ENDBRANCH  18  19
ENDBRANCH  13  18
ENDBRANCH  12  13
ENDBRANCH   2  12
TORSDOF 5
ENDMDL
MODEL 4
REMARK VINA RESULT:      -7.0      1.615      3.263
REMARK  Name = 5289474
REMARK  5 active torsions:
REMARK  status: ('A' for Active; 'I' for Inactive)
REMARK    1  A    between atoms: N_2  and  C_12
REMARK    2  A    between atoms: C_12  and  C_13
REMARK    3  A    between atoms: C_13  and  N_14
REMARK    4  A    between atoms: C_13  and  C_18
REMARK    5  A    between atoms: C_18  and  C_19
REMARK                            x       y       z     vdW  Elec       q    Type
REMARK                         _______ _______ _______ _____ _____    ______ ____
ROOT
ATOM      1  N   UNL     1      34.281 -15.336 -23.267  0.00  0.00    +0.377 N 
ATOM      2  N   UNL     1      35.357 -17.258 -22.254  0.00  0.00    +0.376 N 
ATOM      3  C   UNL     1      34.394 -16.803 -23.264  0.00  0.00    -0.123 C 
ATOM      4  C   UNL     1      34.803 -17.031 -24.715  0.00  0.00    -0.043 C 
ATOM      5  C   UNL     1      33.486 -15.005 -24.443  0.00  0.00    -0.080 C 
ATOM      6  C   UNL     1      33.991 -15.993 -25.493  0.00  0.00    -0.027 C 
ATOM      7  C   UNL     1      33.739 -14.844 -22.007  0.00  0.00    -0.082 C 
ATOM      8  C   UNL     1      34.903 -16.825 -20.918  0.00  0.00    -0.082 C 
ATOM      9  C   UNL     1      34.667 -15.308 -20.878  0.00  0.00    -0.046 C 
ATOM     10  H   UNL     1      35.187 -14.871 -23.331  0.00  0.00    -0.083 HD
ATOM     11  H   UNL     1      36.263 -16.839 -22.467  0.00  0.00    -0.083 HD
ENDROOT
BRANCH   2  12
ATOM     12  C   UNL     1      35.533 -18.710 -22.281  0.00  0.00    -0.102 C 
BRANCH  12  13
ATOM     13  C   UNL     1      34.925 -19.386 -21.037  0.00  0.00    -0.087 C 
BRANCH  13  14
ATOM     14  N   UNL     1      33.539 -19.759 -21.333  0.00  0.00    +0.380 N 
ATOM     15  H   UNL     1      32.983 -18.916 -21.479  0.00  0.00    -0.089 HD
ATOM     16  H   UNL     1      33.155 -20.289 -20.551  0.00  0.00    -0.089 HD
ATOM     17  H   UNL     1      33.514 -20.332 -22.177  0.00  0.00    -0.089 HD
ENDBRANCH  13  14
BRANCH  13  18
ATOM     18  C   UNL     1      35.729 -20.631 -20.604  0.00  0.00    -0.024 C 
BRANCH  18  19
ATOM     19  C   UNL     1      35.335 -21.231 -19.236  0.00  0.00    -0.002 C 
ATOM     20  C   UNL     1      36.553 -21.593 -18.386  0.00  0.00    -0.000 C 
ATOM     21  C   UNL     1      34.468 -22.477 -19.451  0.00  0.00    -0.000 C 
ENDBRANCH  18  19
ENDBRANCH  13  18
ENDBRANCH  12  13
ENDBRANCH   2  12
TORSDOF 5
ENDMDL
MODEL 5
REMARK VINA RESULT:      -7.0      2.329      6.287
REMARK  Name = 5289474
REMARK  5 active torsions:
REMARK  status: ('A' for Active; 'I' for Inactive)
REMARK    1  A    between atoms: N_2  and  C_12
REMARK    2  A    between atoms: C_12  and  C_13
REMARK    3  A    between atoms: C_13  and  N_14
REMARK    4  A    between atoms: C_13  and  C_18
REMARK    5  A    between atoms: C_18  and  C_19
REMARK                            x       y       z     vdW  Elec       q    Type
REMARK                         _______ _______ _______ _____ _____    ______ ____
ROOT
ATOM      1  N   UNL     1      34.959 -16.649 -22.703  0.00  0.00    +0.377 N 
ATOM      2  N   UNL     1      34.078 -14.961 -24.204  0.00  0.00    +0.376 N 
ATOM      3  C   UNL     1      33.953 -15.591 -22.885  0.00  0.00    -0.123 C 
ATOM      4  C   UNL     1      34.297 -14.702 -21.694  0.00  0.00    -0.043 C 
ATOM      5  C   UNL     1      34.880 -17.030 -21.298  0.00  0.00    -0.080 C 
ATOM      6  C   UNL     1      34.660 -15.695 -20.588  0.00  0.00    -0.027 C 
ATOM      7  C   UNL     1      34.754 -17.741 -23.644  0.00  0.00    -0.082 C 
ATOM      8  C   UNL     1      33.874 -15.980 -25.253  0.00  0.00    -0.082 C 
ATOM      9  C   UNL     1      34.830 -17.167 -25.063  0.00  0.00    -0.046 C 
ATOM     10  H   UNL     1      35.906 -16.332 -22.913  0.00  0.00    -0.083 HD
ATOM     11  H   UNL     1      35.016 -14.565 -24.280  0.00  0.00    -0.083 HD
ENDROOT
BRANCH   2  12
ATOM     12  C   UNL     1      33.129 -13.862 -24.378  0.00  0.00    -0.102 C 
BRANCH  12  13
ATOM     13  C   UNL     1      33.842 -12.518 -24.619  0.00  0.00    -0.087 C 
BRANCH  13  14
ATOM     14  N   UNL     1      33.594 -12.093 -26.000  0.00  0.00    +0.380 N 
ATOM     15  H   UNL     1      33.196 -11.154 -26.001  0.00  0.00    -0.089 HD
ATOM     16  H   UNL     1      32.941 -12.740 -26.442  0.00  0.00    -0.089 HD
ATOM     17  H   UNL     1      34.473 -12.091 -26.518  0.00  0.00    -0.089 HD
ENDBRANCH  13  14
BRANCH  13  18
ATOM     18  C   UNL     1      33.369 -11.426 -23.635  0.00  0.00    -0.024 C 
BRANCH  18  19
ATOM     19  C   UNL     1      33.371  -9.985 -24.192  0.00  0.00    -0.002 C 
ATOM     20  C   UNL     1      34.755  -9.339 -24.129  0.00  0.00    -0.000 C 
ATOM     21  C   UNL     1      32.367  -9.130 -23.412  0.00  0.00    -0.000 C 
ENDBRANCH  18  19
ENDBRANCH  13  18
ENDBRANCH  12  13
ENDBRANCH   2  12
TORSDOF 5
ENDMDL
MODEL 6
REMARK VINA RESULT:      -6.9      2.345      5.571
REMARK  Name = 5289474
REMARK  5 active torsions:
REMARK  status: ('A' for Active; 'I' for Inactive)
REMARK    1  A    between atoms: N_2  and  C_12
REMARK    2  A    between atoms: C_12  and  C_13
REMARK    3  A    between atoms: C_13  and  N_14
REMARK    4  A    between atoms: C_13  and  C_18
REMARK    5  A    between atoms: C_18  and  C_19
REMARK                            x       y       z     vdW  Elec       q    Type
REMARK                         _______ _______ _______ _____ _____    ______ ____
ROOT
ATOM      1  N   UNL     1      34.259 -16.315 -25.158  0.00  0.00    +0.377 N 
ATOM      2  N   UNL     1      34.177 -14.516 -23.536  0.00  0.00    +0.376 N 
ATOM      3  C   UNL     1      34.085 -15.966 -23.740  0.00  0.00    -0.123 C 
ATOM      4  C   UNL     1      35.215 -16.790 -23.131  0.00  0.00    -0.043 C 
ATOM      5  C   UNL     1      34.376 -17.768 -25.194  0.00  0.00    -0.080 C 
ATOM      6  C   UNL     1      35.211 -18.081 -23.954  0.00  0.00    -0.027 C 
ATOM      7  C   UNL     1      33.184 -15.769 -25.974  0.00  0.00    -0.082 C 
ATOM      8  C   UNL     1      33.115 -13.846 -24.312  0.00  0.00    -0.082 C 
ATOM      9  C   UNL     1      33.177 -14.247 -25.794  0.00  0.00    -0.046 C 
ATOM     10  H   UNL     1      35.098 -15.901 -25.565  0.00  0.00    -0.083 HD
ATOM     11  H   UNL     1      35.093 -14.206 -23.859  0.00  0.00    -0.083 HD
ENDROOT
BRANCH   2  12
ATOM     12  C   UNL     1      34.071 -14.154 -22.122  0.00  0.00    -0.102 C 
BRANCH  12  13
ATOM     13  C   UNL     1      32.606 -14.104 -21.649  0.00  0.00    -0.087 C 
BRANCH  13  14
ATOM     14  N   UNL     1      32.259 -15.397 -21.050  0.00  0.00    +0.380 N 
ATOM     15  H   UNL     1      31.286 -15.619 -21.259  0.00  0.00    -0.089 HD
ATOM     16  H   UNL     1      32.388 -15.349 -20.040  0.00  0.00    -0.089 HD
ATOM     17  H   UNL     1      32.863 -16.123 -21.436  0.00  0.00    -0.089 HD
ENDBRANCH  13  14
BRANCH  13  18
ATOM     18  C   UNL     1      32.363 -12.967 -20.634  0.00  0.00    -0.024 C 
BRANCH  18  19
ATOM     19  C   UNL     1      31.356 -11.884 -21.078  0.00  0.00    -0.002 C 
ATOM     20  C   UNL     1      31.847 -11.094 -22.292  0.00  0.00    -0.000 C 
ATOM     21  C   UNL     1      31.083 -10.925 -19.915  0.00  0.00    -0.000 C 
ENDBRANCH  18  19
ENDBRANCH  13  18
ENDBRANCH  12  13
ENDBRANCH   2  12
TORSDOF 5
ENDMDL
MODEL 7
REMARK VINA RESULT:      -6.8      3.219      5.510
REMARK  Name = 5289474
REMARK  5 active torsions:
REMARK  status: ('A' for Active; 'I' for Inactive)
REMARK    1  A    between atoms: N_2  and  C_12
REMARK    2  A    between atoms: C_12  and  C_13
REMARK    3  A    between atoms: C_13  and  N_14
REMARK    4  A    between atoms: C_13  and  C_18
REMARK    5  A    between atoms: C_18  and  C_19
REMARK                            x       y       z     vdW  Elec       q    Type
REMARK                         _______ _______ _______ _____ _____    ______ ____
ROOT
ATOM      1  N   UNL     1      33.101  -8.901 -22.535  0.00  0.00    +0.377 N 
ATOM      2  N   UNL     1      33.279 -11.244 -23.131  0.00  0.00    +0.376 N 
ATOM      3  C   UNL     1      33.352  -9.862 -23.619  0.00  0.00    -0.123 C 
ATOM      4  C   UNL     1      34.734  -9.392 -24.064  0.00  0.00    -0.043 C 
ATOM      5  C   UNL     1      33.424  -7.590 -23.087  0.00  0.00    -0.080 C 
ATOM      6  C   UNL     1      34.660  -7.868 -23.940  0.00  0.00    -0.027 C 
ATOM      7  C   UNL     1      31.745  -9.028 -22.018  0.00  0.00    -0.082 C 
ATOM      8  C   UNL     1      31.929 -11.498 -22.590  0.00  0.00    -0.082 C 
ATOM      9  C   UNL     1      31.560 -10.464 -21.516  0.00  0.00    -0.046 C 
ATOM     10  H   UNL     1      33.683  -9.072 -21.714  0.00  0.00    -0.083 HD
ATOM     11  H   UNL     1      33.977 -11.359 -22.397  0.00  0.00    -0.083 HD
ENDROOT
BRANCH   2  12
ATOM     12  C   UNL     1      33.591 -12.212 -24.182  0.00  0.00    -0.102 C 
BRANCH  12  13
ATOM     13  C   UNL     1      33.212 -13.648 -23.772  0.00  0.00    -0.087 C 
BRANCH  13  14
ATOM     14  N   UNL     1      33.155 -14.483 -24.976  0.00  0.00    +0.380 N 
ATOM     15  H   UNL     1      33.854 -14.164 -25.645  0.00  0.00    -0.089 HD
ATOM     16  H   UNL     1      32.227 -14.413 -25.393  0.00  0.00    -0.089 HD
ATOM     17  H   UNL     1      33.342 -15.454 -24.725  0.00  0.00    -0.089 HD
ENDBRANCH  13  14
BRANCH  13  18
ATOM     18  C   UNL     1      34.214 -14.245 -22.760  0.00  0.00    -0.024 C 
BRANCH  18  19
ATOM     19  C   UNL     1      33.608 -15.213 -21.719  0.00  0.00    -0.002 C 
ATOM     20  C   UNL     1      32.807 -14.483 -20.641  0.00  0.00    -0.000 C 
ATOM     21  C   UNL     1      34.726 -16.032 -21.065  0.00  0.00    -0.000 C 
ENDBRANCH  18  19
ENDBRANCH  13  18
ENDBRANCH  12  13
ENDBRANCH   2  12
TORSDOF 5
ENDMDL
MODEL 8
REMARK VINA RESULT:      -6.7      1.890      6.355
REMARK  Name = 5289474
REMARK  5 active torsions:
REMARK  status: ('A' for Active; 'I' for Inactive)
REMARK    1  A    between atoms: N_2  and  C_12
REMARK    2  A    between atoms: C_12  and  C_13
REMARK    3  A    between atoms: C_13  and  N_14
REMARK    4  A    between atoms: C_13  and  C_18
REMARK    5  A    between atoms: C_18  and  C_19
REMARK                            x       y       z     vdW  Elec       q    Type
REMARK                         _______ _______ _______ _____ _____    ______ ____
ROOT
ATOM      1  N   UNL     1      34.570 -17.494 -23.072  0.00  0.00    +0.377 N 
ATOM      2  N   UNL     1      34.108 -15.192 -22.467  0.00  0.00    +0.376 N 
ATOM      3  C   UNL     1      34.743 -16.083 -23.446  0.00  0.00    -0.123 C 
ATOM      4  C   UNL     1      34.102 -16.104 -24.830  0.00  0.00    -0.043 C 
ATOM      5  C   UNL     1      35.034 -18.266 -24.219  0.00  0.00    -0.080 C 
ATOM      6  C   UNL     1      34.527 -17.455 -25.410  0.00  0.00    -0.027 C 
ATOM      7  C   UNL     1      35.249 -17.797 -21.819  0.00  0.00    -0.082 C 
ATOM      8  C   UNL     1      34.730 -15.401 -21.145  0.00  0.00    -0.082 C 
ATOM      9  C   UNL     1      34.674 -16.880 -20.734  0.00  0.00    -0.046 C 
ATOM     10  H   UNL     1      33.598 -17.734 -22.877  0.00  0.00    -0.083 HD
ATOM     11  H   UNL     1      33.115 -15.422 -22.426  0.00  0.00    -0.083 HD
ENDROOT
BRANCH   2  12
ATOM     12  C   UNL     1      34.212 -13.787 -22.857  0.00  0.00    -0.102 C 
BRANCH  12  13
ATOM     13  C   UNL     1      32.834 -13.172 -23.167  0.00  0.00    -0.087 C 
BRANCH  13  14
ATOM     14  N   UNL     1      31.976 -13.321 -21.987  0.00  0.00    +0.380 N 
ATOM     15  H   UNL     1      31.283 -12.574 -21.974  0.00  0.00    -0.089 HD
ATOM     16  H   UNL     1      32.547 -13.271 -21.143  0.00  0.00    -0.089 HD
ATOM     17  H   UNL     1      31.503 -14.224 -22.023  0.00  0.00    -0.089 HD
ENDBRANCH  13  14
BRANCH  13  18
ATOM     18  C   UNL     1      32.939 -11.683 -23.561  0.00  0.00    -0.024 C 
BRANCH  18  19
ATOM     19  C   UNL     1      34.177 -11.306 -24.404  0.00  0.00    -0.002 C 
ATOM     20  C   UNL     1      34.540  -9.826 -24.276  0.00  0.00    -0.000 C 
ATOM     21  C   UNL     1      33.923 -11.649 -25.876  0.00  0.00    -0.000 C 
ENDBRANCH  18  19
ENDBRANCH  13  18
ENDBRANCH  12  13
ENDBRANCH   2  12
TORSDOF 5
ENDMDL
MODEL 9
REMARK VINA RESULT:      -6.6      6.152      8.694
REMARK  Name = 5289474
REMARK  5 active torsions:
REMARK  status: ('A' for Active; 'I' for Inactive)
REMARK    1  A    between atoms: N_2  and  C_12
REMARK    2  A    between atoms: C_12  and  C_13
REMARK    3  A    between atoms: C_13  and  N_14
REMARK    4  A    between atoms: C_13  and  C_18
REMARK    5  A    between atoms: C_18  and  C_19
REMARK                            x       y       z     vdW  Elec       q    Type
REMARK                         _______ _______ _______ _____ _____    ______ ____
ROOT
ATOM      1  N   UNL     1      31.931  -6.448 -22.202  0.00  0.00    +0.377 N 
ATOM      2  N   UNL     1      32.216  -8.853 -22.083  0.00  0.00    +0.376 N 
ATOM      3  C   UNL     1      31.395  -7.756 -22.610  0.00  0.00    -0.123 C 
ATOM      4  C   UNL     1      31.419  -7.583 -24.125  0.00  0.00    -0.043 C 
ATOM      5  C   UNL     1      31.177  -5.459 -22.964  0.00  0.00    -0.080 C 
ATOM      6  C   UNL     1      31.023  -6.119 -24.333  0.00  0.00    -0.027 C 
ATOM      7  C   UNL     1      31.872  -6.279 -20.756  0.00  0.00    -0.082 C 
ATOM      8  C   UNL     1      32.221  -8.793 -20.608  0.00  0.00    -0.082 C 
ATOM      9  C   UNL     1      32.677  -7.413 -20.112  0.00  0.00    -0.046 C 
ATOM     10  H   UNL     1      32.924  -6.347 -22.411  0.00  0.00    -0.083 HD
ATOM     11  H   UNL     1      33.165  -8.739 -22.441  0.00  0.00    -0.083 HD
ENDROOT
BRANCH   2  12
ATOM     12  C   UNL     1      31.736 -10.159 -22.533  0.00  0.00    -0.102 C 
BRANCH  12  13
ATOM     13  C   UNL     1      32.893 -11.076 -22.974  0.00  0.00    -0.087 C 
BRANCH  13  14
ATOM     14  N   UNL     1      32.422 -12.464 -22.973  0.00  0.00    +0.380 N 
ATOM     15  H   UNL     1      33.106 -13.056 -22.501  0.00  0.00    -0.089 HD
ATOM     16  H   UNL     1      32.302 -12.783 -23.934  0.00  0.00    -0.089 HD
ATOM     17  H   UNL     1      31.529 -12.519 -22.483  0.00  0.00    -0.089 HD
ENDBRANCH  13  14
BRANCH  13  18
ATOM     18  C   UNL     1      33.430 -10.700 -24.372  0.00  0.00    -0.024 C 
BRANCH  18  19
ATOM     19  C   UNL     1      34.851 -10.094 -24.397  0.00  0.00    -0.002 C 
ATOM     20  C   UNL     1      34.852  -8.598 -24.082  0.00  0.00    -0.000 C 
ATOM     21  C   UNL     1      35.489 -10.333 -25.769  0.00  0.00    -0.000 C 
ENDBRANCH  18  19
ENDBRANCH  13  18
ENDBRANCH  12  13
ENDBRANCH   2  12
TORSDOF 5
ENDMDL
