MODEL 1
REMARK VINA RESULT:      -7.0      0.000      0.000
REMARK  Name = 3651
REMARK  4 active torsions:
REMARK  status: ('A' for Active; 'I' for Inactive)
REMARK    1  A    between atoms: C_1  and  C_9
REMARK    2  A    between atoms: C_6  and  O_7
REMARK    3  A    between atoms: C_9  and  C_10
REMARK    4  A    between atoms: C_10  and  N_12
REMARK                            x       y       z     vdW  Elec       q    Type
REMARK                         _______ _______ _______ _____ _____    ______ ____
ROOT
ATOM      1  C   UNL     1      34.988 -19.621 -21.011  0.00  0.00    -0.024 C 
ATOM      2  C   UNL     1      33.605 -19.508 -20.952  0.00  0.00    -0.001 C 
ATOM      3  C   UNL     1      35.651 -20.629 -20.323  0.00  0.00    -0.001 C 
ATOM      4  C   UNL     1      32.872 -20.418 -20.191  0.00  0.00    +0.036 C 
ATOM      5  C   UNL     1      34.917 -21.540 -19.562  0.00  0.00    +0.036 C 
ATOM      6  C   UNL     1      33.528 -21.434 -19.496  0.00  0.00    +0.134 C 
ENDROOT
BRANCH   6   7
ATOM      7  O   UNL     1      32.811 -22.323 -18.754  0.00  0.00    -0.506 OA
ATOM      8  H   UNL     1      32.321 -22.026 -18.013  0.00  0.00    +0.292 HD
ENDBRANCH   6   7
BRANCH   1   9
ATOM      9  C   UNL     1      35.778 -18.640 -21.831  0.00  0.00    +0.005 C 
BRANCH   9  10
ATOM     10  C   UNL     1      34.981 -18.021 -22.996  0.00  0.00    -0.061 C 
ATOM     11  C   UNL     1      34.892 -18.950 -24.206  0.00  0.00    -0.024 C 
BRANCH  10  12
ATOM     12  N   UNL     1      35.622 -16.773 -23.418  0.00  0.00    +0.382 N 
ATOM     13  H   UNL     1      35.070 -16.340 -24.157  0.00  0.00    -0.089 HD
ATOM     14  H   UNL     1      36.559 -16.975 -23.768  0.00  0.00    -0.089 HD
ATOM     15  H   UNL     1      35.687 -16.137 -22.624  0.00  0.00    -0.089 HD
ENDBRANCH  10  12
ENDBRANCH   9  10
ENDBRANCH   1   9
TORSDOF 4
ENDMDL
MODEL 2
REMARK VINA RESULT:      -6.8      1.220      1.693
REMARK  Name = 3651
REMARK  4 active torsions:
REMARK  status: ('A' for Active; 'I' for Inactive)
REMARK    1  A    between atoms: C_1  and  C_9
REMARK    2  A    between atoms: C_6  and  O_7
REMARK    3  A    between atoms: C_9  and  C_10
REMARK    4  A    between atoms: C_10  and  N_12
REMARK                            x       y       z     vdW  Elec       q    Type
REMARK                         _______ _______ _______ _____ _____    ______ ____
ROOT
ATOM      1  C   UNL     1      34.452 -19.829 -20.968  0.00  0.00    -0.024 C 
ATOM      2  C   UNL     1      33.301 -20.380 -20.419  0.00  0.00    -0.001 C 
ATOM      3  C   UNL     1      35.709 -20.280 -20.589  0.00  0.00    -0.001 C 
ATOM      4  C   UNL     1      33.410 -21.400 -19.474  0.00  0.00    +0.036 C 
ATOM      5  C   UNL     1      35.817 -21.301 -19.644  0.00  0.00    +0.036 C 
ATOM      6  C   UNL     1      34.669 -21.860 -19.086  0.00  0.00    +0.134 C 
ENDROOT
BRANCH   6   7
ATOM      7  O   UNL     1      34.773 -22.857 -18.165  0.00  0.00    -0.506 OA
ATOM      8  H   UNL     1      34.371 -23.687 -18.326  0.00  0.00    +0.292 HD
ENDBRANCH   6   7
BRANCH   1   9
ATOM      9  C   UNL     1      34.335 -18.729 -21.986  0.00  0.00    +0.005 C 
BRANCH   9  10
ATOM     10  C   UNL     1      35.363 -17.597 -21.796  0.00  0.00    -0.061 C 
ATOM     11  C   UNL     1      34.835 -16.465 -20.914  0.00  0.00    -0.024 C 
BRANCH  10  12
ATOM     12  N   UNL     1      35.719 -17.035 -23.102  0.00  0.00    +0.382 N 
ATOM     13  H   UNL     1      36.733 -17.030 -23.205  0.00  0.00    -0.089 HD
ATOM     14  H   UNL     1      35.366 -16.080 -23.169  0.00  0.00    -0.089 HD
ATOM     15  H   UNL     1      35.305 -17.603 -23.842  0.00  0.00    -0.089 HD
ENDBRANCH  10  12
ENDBRANCH   9  10
ENDBRANCH   1   9
TORSDOF 4
ENDMDL
MODEL 3
REMARK VINA RESULT:      -6.5      3.584      5.440
REMARK  Name = 3651
REMARK  4 active torsions:
REMARK  status: ('A' for Active; 'I' for Inactive)
REMARK    1  A    between atoms: C_1  and  C_9
REMARK    2  A    between atoms: C_6  and  O_7
REMARK    3  A    between atoms: C_9  and  C_10
REMARK    4  A    between atoms: C_10  and  N_12
REMARK                            x       y       z     vdW  Elec       q    Type
REMARK                         _______ _______ _______ _____ _____    ______ ____
ROOT
ATOM      1  C   UNL     1      35.115 -17.735 -22.637  0.00  0.00    -0.024 C 
ATOM      2  C   UNL     1      35.013 -18.494 -23.795  0.00  0.00    -0.001 C 
ATOM      3  C   UNL     1      34.844 -16.373 -22.651  0.00  0.00    -0.001 C 
ATOM      4  C   UNL     1      34.633 -17.882 -24.989  0.00  0.00    +0.036 C 
ATOM      5  C   UNL     1      34.463 -15.760 -23.846  0.00  0.00    +0.036 C 
ATOM      6  C   UNL     1      34.358 -16.514 -25.014  0.00  0.00    +0.134 C 
ENDROOT
BRANCH   6   7
ATOM      7  O   UNL     1      33.986 -15.917 -26.180  0.00  0.00    -0.506 OA
ATOM      8  H   UNL     1      34.044 -14.987 -26.268  0.00  0.00    +0.292 HD
ENDBRANCH   6   7
BRANCH   1   9
ATOM      9  C   UNL     1      35.526 -18.395 -21.350  0.00  0.00    +0.005 C 
BRANCH   9  10
ATOM     10  C   UNL     1      34.875 -19.773 -21.125  0.00  0.00    -0.061 C 
ATOM     11  C   UNL     1      33.389 -19.673 -20.779  0.00  0.00    -0.024 C 
BRANCH  10  12
ATOM     12  N   UNL     1      35.558 -20.464 -20.029  0.00  0.00    +0.382 N 
ATOM     13  H   UNL     1      36.402 -20.913 -20.383  0.00  0.00    -0.089 HD
ATOM     14  H   UNL     1      34.937 -21.171 -19.634  0.00  0.00    -0.089 HD
ATOM     15  H   UNL     1      35.809 -19.791 -19.305  0.00  0.00    -0.089 HD
ENDBRANCH  10  12
ENDBRANCH   9  10
ENDBRANCH   1   9
TORSDOF 4
ENDMDL
MODEL 4
REMARK VINA RESULT:      -6.5      3.281      5.104
REMARK  Name = 3651
REMARK  4 active torsions:
REMARK  status: ('A' for Active; 'I' for Inactive)
REMARK    1  A    between atoms: C_1  and  C_9
REMARK    2  A    between atoms: C_6  and  O_7
REMARK    3  A    between atoms: C_9  and  C_10
REMARK    4  A    between atoms: C_10  and  N_12
REMARK                            x       y       z     vdW  Elec       q    Type
REMARK                         _______ _______ _______ _____ _____    ______ ____
ROOT
ATOM      1  C   UNL     1      34.552 -18.577 -22.213  0.00  0.00    -0.024 C 
ATOM      2  C   UNL     1      34.569 -19.329 -23.381  0.00  0.00    -0.001 C 
ATOM      3  C   UNL     1      34.651 -17.193 -22.255  0.00  0.00    -0.001 C 
ATOM      4  C   UNL     1      34.686 -18.686 -24.612  0.00  0.00    +0.036 C 
ATOM      5  C   UNL     1      34.768 -16.549 -23.488  0.00  0.00    +0.036 C 
ATOM      6  C   UNL     1      34.786 -17.295 -24.665  0.00  0.00    +0.134 C 
ENDROOT
BRANCH   6   7
ATOM      7  O   UNL     1      34.900 -16.667 -25.869  0.00  0.00    -0.506 OA
ATOM      8  H   UNL     1      34.435 -16.996 -26.613  0.00  0.00    +0.292 HD
ENDBRANCH   6   7
BRANCH   1   9
ATOM      9  C   UNL     1      34.427 -19.271 -20.885  0.00  0.00    +0.005 C 
BRANCH   9  10
ATOM     10  C   UNL     1      35.503 -20.347 -20.644  0.00  0.00    -0.061 C 
ATOM     11  C   UNL     1      35.075 -21.385 -19.607  0.00  0.00    -0.024 C 
BRANCH  10  12
ATOM     12  N   UNL     1      36.736 -19.708 -20.175  0.00  0.00    +0.382 N 
ATOM     13  H   UNL     1      36.670 -19.534 -19.173  0.00  0.00    -0.089 HD
ATOM     14  H   UNL     1      36.867 -18.823 -20.665  0.00  0.00    -0.089 HD
ATOM     15  H   UNL     1      37.530 -20.320 -20.362  0.00  0.00    -0.089 HD
ENDBRANCH  10  12
ENDBRANCH   9  10
ENDBRANCH   1   9
TORSDOF 4
ENDMDL
MODEL 5
REMARK VINA RESULT:      -6.0      3.418      5.067
REMARK  Name = 3651
REMARK  4 active torsions:
REMARK  status: ('A' for Active; 'I' for Inactive)
REMARK    1  A    between atoms: C_1  and  C_9
REMARK    2  A    between atoms: C_6  and  O_7
REMARK    3  A    between atoms: C_9  and  C_10
REMARK    4  A    between atoms: C_10  and  N_12
REMARK                            x       y       z     vdW  Elec       q    Type
REMARK                         _______ _______ _______ _____ _____    ______ ____
ROOT
ATOM      1  C   UNL     1      34.896 -18.668 -21.972  0.00  0.00    -0.024 C 
ATOM      2  C   UNL     1      34.831 -17.621 -21.062  0.00  0.00    -0.001 C 
ATOM      3  C   UNL     1      34.940 -18.423 -23.338  0.00  0.00    -0.001 C 
ATOM      4  C   UNL     1      34.811 -16.306 -21.525  0.00  0.00    +0.036 C 
ATOM      5  C   UNL     1      34.919 -17.106 -23.802  0.00  0.00    +0.036 C 
ATOM      6  C   UNL     1      34.854 -16.049 -22.896  0.00  0.00    +0.134 C 
ENDROOT
BRANCH   6   7
ATOM      7  O   UNL     1      34.835 -14.765 -23.348  0.00  0.00    -0.506 OA
ATOM      8  H   UNL     1      35.298 -14.097 -22.881  0.00  0.00    +0.292 HD
ENDBRANCH   6   7
BRANCH   1   9
ATOM      9  C   UNL     1      34.918 -20.085 -21.473  0.00  0.00    +0.005 C 
BRANCH   9  10
ATOM     10  C   UNL     1      34.003 -20.328 -20.257  0.00  0.00    -0.061 C 
ATOM     11  C   UNL     1      34.384 -21.586 -19.476  0.00  0.00    -0.024 C 
BRANCH  10  12
ATOM     12  N   UNL     1      32.616 -20.468 -20.708  0.00  0.00    +0.382 N 
ATOM     13  H   UNL     1      32.576 -20.369 -21.722  0.00  0.00    -0.089 HD
ATOM     14  H   UNL     1      32.043 -19.744 -20.273  0.00  0.00    -0.089 HD
ATOM     15  H   UNL     1      32.262 -21.387 -20.442  0.00  0.00    -0.089 HD
ENDBRANCH  10  12
ENDBRANCH   9  10
ENDBRANCH   1   9
TORSDOF 4
ENDMDL
MODEL 6
REMARK VINA RESULT:      -6.0      4.527      5.866
REMARK  Name = 3651
REMARK  4 active torsions:
REMARK  status: ('A' for Active; 'I' for Inactive)
REMARK    1  A    between atoms: C_1  and  C_9
REMARK    2  A    between atoms: C_6  and  O_7
REMARK    3  A    between atoms: C_9  and  C_10
REMARK    4  A    between atoms: C_10  and  N_12
REMARK                            x       y       z     vdW  Elec       q    Type
REMARK                         _______ _______ _______ _____ _____    ______ ____
ROOT
ATOM      1  C   UNL     1      34.080 -15.695 -21.556  0.00  0.00    -0.024 C 
ATOM      2  C   UNL     1      33.894 -15.246 -22.857  0.00  0.00    -0.001 C 
ATOM      3  C   UNL     1      33.422 -15.091 -20.493  0.00  0.00    -0.001 C 
ATOM      4  C   UNL     1      33.034 -14.175 -23.099  0.00  0.00    +0.036 C 
ATOM      5  C   UNL     1      32.561 -14.019 -20.735  0.00  0.00    +0.036 C 
ATOM      6  C   UNL     1      32.368 -13.561 -22.038  0.00  0.00    +0.134 C 
ENDROOT
BRANCH   6   7
ATOM      7  O   UNL     1      31.528 -12.516 -22.275  0.00  0.00    -0.506 OA
ATOM      8  H   UNL     1      31.213 -11.997 -21.562  0.00  0.00    +0.292 HD
ENDBRANCH   6   7
BRANCH   1   9
ATOM      9  C   UNL     1      35.007 -16.849 -21.295  0.00  0.00    +0.005 C 
BRANCH   9  10
ATOM     10  C   UNL     1      34.880 -17.990 -22.322  0.00  0.00    -0.061 C 
ATOM     11  C   UNL     1      34.538 -19.331 -21.673  0.00  0.00    -0.024 C 
BRANCH  10  12
ATOM     12  N   UNL     1      36.145 -18.138 -23.048  0.00  0.00    +0.382 N 
ATOM     13  H   UNL     1      36.785 -18.714 -22.502  0.00  0.00    -0.089 HD
ATOM     14  H   UNL     1      36.559 -17.218 -23.198  0.00  0.00    -0.089 HD
ATOM     15  H   UNL     1      35.971 -18.584 -23.949  0.00  0.00    -0.089 HD
ENDBRANCH  10  12
ENDBRANCH   9  10
ENDBRANCH   1   9
TORSDOF 4
ENDMDL
MODEL 7
REMARK VINA RESULT:      -5.9      3.568      5.442
REMARK  Name = 3651
REMARK  4 active torsions:
REMARK  status: ('A' for Active; 'I' for Inactive)
REMARK    1  A    between atoms: C_1  and  C_9
REMARK    2  A    between atoms: C_6  and  O_7
REMARK    3  A    between atoms: C_9  and  C_10
REMARK    4  A    between atoms: C_10  and  N_12
REMARK                            x       y       z     vdW  Elec       q    Type
REMARK                         _______ _______ _______ _____ _____    ______ ____
ROOT
ATOM      1  C   UNL     1      34.329 -21.526 -19.726  0.00  0.00    -0.024 C 
ATOM      2  C   UNL     1      35.694 -21.281 -19.798  0.00  0.00    -0.001 C 
ATOM      3  C   UNL     1      33.415 -20.628 -20.262  0.00  0.00    -0.001 C 
ATOM      4  C   UNL     1      36.154 -20.120 -20.418  0.00  0.00    +0.036 C 
ATOM      5  C   UNL     1      33.875 -19.465 -20.882  0.00  0.00    +0.036 C 
ATOM      6  C   UNL     1      35.244 -19.211 -20.959  0.00  0.00    +0.134 C 
ENDROOT
BRANCH   6   7
ATOM      7  O   UNL     1      35.694 -18.078 -21.565  0.00  0.00    -0.506 OA
ATOM      8  H   UNL     1      35.502 -17.922 -22.469  0.00  0.00    +0.292 HD
ENDBRANCH   6   7
BRANCH   1   9
ATOM      9  C   UNL     1      33.833 -22.777 -19.058  0.00  0.00    +0.005 C 
BRANCH   9  10
ATOM     10  C   UNL     1      33.300 -22.549 -17.630  0.00  0.00    -0.061 C 
ATOM     11  C   UNL     1      33.948 -23.478 -16.604  0.00  0.00    -0.024 C 
BRANCH  10  12
ATOM     12  N   UNL     1      31.852 -22.774 -17.607  0.00  0.00    +0.382 N 
ATOM     13  H   UNL     1      31.405 -22.061 -17.032  0.00  0.00    -0.089 HD
ATOM     14  H   UNL     1      31.659 -23.697 -17.215  0.00  0.00    -0.089 HD
ATOM     15  H   UNL     1      31.484 -22.725 -18.557  0.00  0.00    -0.089 HD
ENDBRANCH  10  12
ENDBRANCH   9  10
ENDBRANCH   1   9
TORSDOF 4
ENDMDL
MODEL 8
REMARK VINA RESULT:      -5.8      4.718      6.611
REMARK  Name = 3651
REMARK  4 active torsions:
REMARK  status: ('A' for Active; 'I' for Inactive)
REMARK    1  A    between atoms: C_1  and  C_9
REMARK    2  A    between atoms: C_6  and  O_7
REMARK    3  A    between atoms: C_9  and  C_10
REMARK    4  A    between atoms: C_10  and  N_12
REMARK                            x       y       z     vdW  Elec       q    Type
REMARK                         _______ _______ _______ _____ _____    ______ ____
ROOT
ATOM      1  C   UNL     1      36.127 -22.316 -17.137  0.00  0.00    -0.024 C 
ATOM      2  C   UNL     1      34.913 -22.898 -16.799  0.00  0.00    -0.001 C 
ATOM      3  C   UNL     1      36.301 -21.692 -18.365  0.00  0.00    -0.001 C 
ATOM      4  C   UNL     1      33.853 -22.856 -17.704  0.00  0.00    +0.036 C 
ATOM      5  C   UNL     1      35.240 -21.650 -19.271  0.00  0.00    +0.036 C 
ATOM      6  C   UNL     1      34.017 -22.232 -18.941  0.00  0.00    +0.134 C 
ENDROOT
BRANCH   6   7
ATOM      7  O   UNL     1      32.982 -22.191 -19.824  0.00  0.00    -0.506 OA
ATOM      8  H   UNL     1      32.103 -22.309 -19.521  0.00  0.00    +0.292 HD
ENDBRANCH   6   7
BRANCH   1   9
ATOM      9  C   UNL     1      37.270 -22.361 -16.161  0.00  0.00    +0.005 C 
BRANCH   9  10
ATOM     10  C   UNL     1      37.291 -23.633 -15.291  0.00  0.00    -0.061 C 
ATOM     11  C   UNL     1      37.098 -23.333 -13.805  0.00  0.00    -0.024 C 
BRANCH  10  12
ATOM     12  N   UNL     1      38.575 -24.319 -15.459  0.00  0.00    +0.382 N 
ATOM     13  H   UNL     1      38.495 -25.016 -16.199  0.00  0.00    -0.089 HD
ATOM     14  H   UNL     1      38.831 -24.779 -14.585  0.00  0.00    -0.089 HD
ATOM     15  H   UNL     1      39.295 -23.640 -15.709  0.00  0.00    -0.089 HD
ENDBRANCH  10  12
ENDBRANCH   9  10
ENDBRANCH   1   9
TORSDOF 4
ENDMDL
MODEL 9
REMARK VINA RESULT:      -5.8      3.448      4.784
REMARK  Name = 3651
REMARK  4 active torsions:
REMARK  status: ('A' for Active; 'I' for Inactive)
REMARK    1  A    between atoms: C_1  and  C_9
REMARK    2  A    between atoms: C_6  and  O_7
REMARK    3  A    between atoms: C_9  and  C_10
REMARK    4  A    between atoms: C_10  and  N_12
REMARK                            x       y       z     vdW  Elec       q    Type
REMARK                         _______ _______ _______ _____ _____    ______ ____
ROOT
ATOM      1  C   UNL     1      34.475 -15.929 -23.044  0.00  0.00    -0.024 C 
ATOM      2  C   UNL     1      34.475 -15.783 -21.663  0.00  0.00    -0.001 C 
ATOM      3  C   UNL     1      34.997 -17.070 -23.640  0.00  0.00    -0.001 C 
ATOM      4  C   UNL     1      35.006 -16.794 -20.864  0.00  0.00    +0.036 C 
ATOM      5  C   UNL     1      35.528 -18.082 -22.840  0.00  0.00    +0.036 C 
ATOM      6  C   UNL     1      35.533 -17.944 -21.453  0.00  0.00    +0.134 C 
ENDROOT
BRANCH   6   7
ATOM      7  O   UNL     1      36.051 -18.932 -20.671  0.00  0.00    -0.506 OA
ATOM      8  H   UNL     1      36.197 -18.778 -19.758  0.00  0.00    +0.292 HD
ENDBRANCH   6   7
BRANCH   1   9
ATOM      9  C   UNL     1      33.903 -14.838 -23.906  0.00  0.00    +0.005 C 
BRANCH   9  10
ATOM     10  C   UNL     1      33.723 -13.497 -23.170  0.00  0.00    -0.061 C 
ATOM     11  C   UNL     1      32.274 -13.242 -22.756  0.00  0.00    -0.024 C 
BRANCH  10  12
ATOM     12  N   UNL     1      34.154 -12.400 -24.041  0.00  0.00    +0.382 N 
ATOM     13  H   UNL     1      35.086 -12.598 -24.403  0.00  0.00    -0.089 HD
ATOM     14  H   UNL     1      34.174 -11.530 -23.507  0.00  0.00    -0.089 HD
ATOM     15  H   UNL     1      33.500 -12.305 -24.819  0.00  0.00    -0.089 HD
ENDBRANCH  10  12
ENDBRANCH   9  10
ENDBRANCH   1   9
TORSDOF 4
ENDMDL
