MODEL 1
REMARK VINA RESULT:     -11.4      0.000      0.000
REMARK  Name = 4565
REMARK  4 active torsions:
REMARK  status: ('A' for Active; 'I' for Inactive)
REMARK    1  A    between atoms: N_5  and  C_15
REMARK    2  A    between atoms: C_6  and  O_21
REMARK    3  A    between atoms: O_21  and  C_22
REMARK    4  A    between atoms: C_22  and  C_23
REMARK                            x       y       z     vdW  Elec       q    Type
REMARK                         _______ _______ _______ _____ _____    ______ ____
ROOT
ATOM      1  N   UNL     1      32.778 -23.408 -15.919  0.00  0.00    -0.293 NA
ATOM      2  N   UNL     1      29.365 -22.699 -17.090  0.00  0.00    -0.266 NA
ATOM      3  N   UNL     1      31.026 -24.113 -14.374  0.00  0.00    -0.316 NA
ATOM      4  N   UNL     1      28.775 -23.638 -15.157  0.00  0.00    -0.296 N 
ATOM      5  N   UNL     1      33.290 -24.441 -13.881  0.00  0.00    -0.238 N 
ATOM      6  C   UNL     1      31.870 -22.936 -16.800  0.00  0.00    +0.288 C 
ATOM      7  C   UNL     1      30.534 -23.048 -16.476  0.00  0.00    +0.215 C 
ATOM      8  C   UNL     1      30.141 -23.629 -15.278  0.00  0.00    +0.196 C 
ATOM      9  C   UNL     1      32.307 -23.960 -14.775  0.00  0.00    +0.207 C 
ATOM     10  C   UNL     1      28.339 -23.073 -16.262  0.00  0.00    +0.164 C 
ATOM     11  H   UNL     1      29.275 -22.260 -17.967  0.00  0.00    +0.126 HD
ATOM     12  H   UNL     1      28.239 -23.991 -14.410  0.00  0.00    +0.150 HD
ATOM     13  H   UNL     1      32.919 -24.837 -13.059  0.00  0.00    +0.166 HD
ENDROOT
BRANCH   5  15
ATOM     14 CL   UNL     1      37.763 -22.985 -11.831  0.00  0.00    -0.082 Cl
ATOM     15  C   UNL     1      34.695 -24.465 -13.936  0.00  0.00    +0.059 C 
ATOM     16  C   UNL     1      35.447 -23.791 -12.969  0.00  0.00    +0.027 C 
ATOM     17  C   UNL     1      35.346 -25.163 -14.956  0.00  0.00    +0.015 C 
ATOM     18  C   UNL     1      36.840 -23.816 -13.024  0.00  0.00    +0.059 C 
ATOM     19  C   UNL     1      36.740 -25.188 -15.010  0.00  0.00    +0.002 C 
ATOM     20  C   UNL     1      37.487 -24.514 -14.043  0.00  0.00    +0.011 C 
ENDBRANCH   5  15
BRANCH   6  21
ATOM     21  O   UNL     1      32.314 -22.370 -17.970  0.00  0.00    -0.453 OA
BRANCH  21  22
ATOM     22  C   UNL     1      33.635 -22.680 -18.374  0.00  0.00    +0.208 C 
BRANCH  22  23
ATOM     23  C   UNL     1      33.974 -21.842 -19.605  0.00  0.00    +0.044 C 
ATOM     24  C   UNL     1      32.940 -20.724 -19.802  0.00  0.00    +0.004 C 
ATOM     25  C   UNL     1      35.390 -21.263 -19.493  0.00  0.00    +0.004 C 
ATOM     26  C   UNL     1      33.287 -19.839 -20.997  0.00  0.00    +0.000 C 
ATOM     27  C   UNL     1      35.733 -20.376 -20.689  0.00  0.00    +0.000 C 
ATOM     28  C   UNL     1      34.698 -19.272 -20.886  0.00  0.00    +0.000 C 
ENDBRANCH  22  23
ENDBRANCH  21  22
ENDBRANCH   6  21
TORSDOF 4
ENDMDL
MODEL 2
REMARK VINA RESULT:     -10.9      8.163     11.373
REMARK  Name = 4565
REMARK  4 active torsions:
REMARK  status: ('A' for Active; 'I' for Inactive)
REMARK    1  A    between atoms: N_5  and  C_15
REMARK    2  A    between atoms: C_6  and  O_21
REMARK    3  A    between atoms: O_21  and  C_22
REMARK    4  A    between atoms: C_22  and  C_23
REMARK                            x       y       z     vdW  Elec       q    Type
REMARK                         _______ _______ _______ _____ _____    ______ ____
ROOT
ATOM      1  N   UNL     1      34.104 -15.687 -23.401  0.00  0.00    -0.293 NA
ATOM      2  N   UNL     1      33.053 -12.938 -25.605  0.00  0.00    -0.266 NA
ATOM      3  N   UNL     1      34.083 -16.262 -25.772  0.00  0.00    -0.316 NA
ATOM      4  N   UNL     1      33.385 -14.438 -27.220  0.00  0.00    -0.296 N 
ATOM      5  N   UNL     1      34.711 -17.823 -24.147  0.00  0.00    -0.238 N 
ATOM      6  C   UNL     1      33.687 -14.429 -23.659  0.00  0.00    +0.288 C 
ATOM      7  C   UNL     1      33.464 -14.077 -24.974  0.00  0.00    +0.215 C 
ATOM      8  C   UNL     1      33.664 -14.993 -25.997  0.00  0.00    +0.196 C 
ATOM      9  C   UNL     1      34.274 -16.515 -24.460  0.00  0.00    +0.207 C 
ATOM     10  C   UNL     1      33.021 -13.203 -26.949  0.00  0.00    +0.164 C 
ATOM     11  H   UNL     1      32.821 -12.083 -25.174  0.00  0.00    +0.126 HD
ATOM     12  H   UNL     1      33.445 -14.868 -28.103  0.00  0.00    +0.150 HD
ATOM     13  H   UNL     1      34.827 -18.402 -24.935  0.00  0.00    +0.166 HD
ENDROOT
BRANCH   5  15
ATOM     14 CL   UNL     1      33.106 -20.676 -20.196  0.00  0.00    -0.082 Cl
ATOM     15  C   UNL     1      35.014 -18.458 -22.929  0.00  0.00    +0.059 C 
ATOM     16  C   UNL     1      34.025 -19.170 -22.244  0.00  0.00    +0.027 C 
ATOM     17  C   UNL     1      36.304 -18.381 -22.399  0.00  0.00    +0.015 C 
ATOM     18  C   UNL     1      34.326 -19.800 -21.037  0.00  0.00    +0.059 C 
ATOM     19  C   UNL     1      36.605 -19.013 -21.192  0.00  0.00    +0.002 C 
ATOM     20  C   UNL     1      35.615 -19.722 -20.511  0.00  0.00    +0.011 C 
ENDBRANCH   5  15
BRANCH   6  21
ATOM     21  O   UNL     1      33.504 -13.564 -22.608  0.00  0.00    -0.453 OA
BRANCH  21  22
ATOM     22  C   UNL     1      32.380 -13.788 -21.778  0.00  0.00    +0.208 C 
BRANCH  22  23
ATOM     23  C   UNL     1      31.700 -12.447 -21.510  0.00  0.00    +0.044 C 
ATOM     24  C   UNL     1      31.880 -12.030 -20.044  0.00  0.00    +0.004 C 
ATOM     25  C   UNL     1      32.242 -11.366 -22.455  0.00  0.00    +0.004 C 
ATOM     26  C   UNL     1      31.253 -10.666 -19.764  0.00  0.00    +0.000 C 
ATOM     27  C   UNL     1      31.615 -10.003 -22.171  0.00  0.00    +0.000 C 
ATOM     28  C   UNL     1      31.788  -9.597 -20.710  0.00  0.00    +0.000 C 
ENDBRANCH  22  23
ENDBRANCH  21  22
ENDBRANCH   6  21
TORSDOF 4
ENDMDL
MODEL 3
REMARK VINA RESULT:     -10.7      2.888      5.396
REMARK  Name = 4565
REMARK  4 active torsions:
REMARK  status: ('A' for Active; 'I' for Inactive)
REMARK    1  A    between atoms: N_5  and  C_15
REMARK    2  A    between atoms: C_6  and  O_21
REMARK    3  A    between atoms: O_21  and  C_22
REMARK    4  A    between atoms: C_22  and  C_23
REMARK                            x       y       z     vdW  Elec       q    Type
REMARK                         _______ _______ _______ _____ _____    ______ ____
ROOT
ATOM      1  N   UNL     1      33.431 -23.363 -16.492  0.00  0.00    -0.293 NA
ATOM      2  N   UNL     1      36.962 -22.534 -17.103  0.00  0.00    -0.266 NA
ATOM      3  N   UNL     1      34.783 -23.198 -14.467  0.00  0.00    -0.316 NA
ATOM      4  N   UNL     1      37.114 -22.651 -14.882  0.00  0.00    -0.296 N 
ATOM      5  N   UNL     1      32.502 -23.714 -14.371  0.00  0.00    -0.238 N 
ATOM      6  C   UNL     1      34.493 -23.073 -17.275  0.00  0.00    +0.288 C 
ATOM      7  C   UNL     1      35.707 -22.844 -16.661  0.00  0.00    +0.215 C 
ATOM      8  C   UNL     1      35.827 -22.911 -15.279  0.00  0.00    +0.196 C 
ATOM      9  C   UNL     1      33.639 -23.407 -15.154  0.00  0.00    +0.207 C 
ATOM     10  C   UNL     1      37.769 -22.428 -16.001  0.00  0.00    +0.164 C 
ATOM     11  H   UNL     1      37.236 -22.409 -18.040  0.00  0.00    +0.126 HD
ATOM     12  H   UNL     1      37.468 -22.634 -13.963  0.00  0.00    +0.150 HD
ATOM     13  H   UNL     1      32.682 -23.739 -13.403  0.00  0.00    +0.166 HD
ENDROOT
BRANCH   5  15
ATOM     14 CL   UNL     1      28.039 -22.035 -16.264  0.00  0.00    -0.082 Cl
ATOM     15  C   UNL     1      31.164 -23.991 -14.705  0.00  0.00    +0.059 C 
ATOM     16  C   UNL     1      30.357 -22.992 -15.255  0.00  0.00    +0.027 C 
ATOM     17  C   UNL     1      30.636 -25.266 -14.488  0.00  0.00    +0.015 C 
ATOM     18  C   UNL     1      29.031 -23.268 -15.586  0.00  0.00    +0.059 C 
ATOM     19  C   UNL     1      29.310 -25.541 -14.820  0.00  0.00    +0.002 C 
ATOM     20  C   UNL     1      28.507 -24.541 -15.369  0.00  0.00    +0.011 C 
ENDBRANCH   5  15
BRANCH   6  21
ATOM     21  O   UNL     1      34.318 -23.021 -18.636  0.00  0.00    -0.453 OA
BRANCH  21  22
ATOM     22  C   UNL     1      33.322 -22.141 -19.123  0.00  0.00    +0.208 C 
BRANCH  22  23
ATOM     23  C   UNL     1      34.001 -20.860 -19.605  0.00  0.00    +0.044 C 
ATOM     24  C   UNL     1      35.411 -21.160 -20.133  0.00  0.00    +0.004 C 
ATOM     25  C   UNL     1      33.152 -20.168 -20.680  0.00  0.00    +0.004 C 
ATOM     26  C   UNL     1      36.091 -19.903 -20.670  0.00  0.00    +0.000 C 
ATOM     27  C   UNL     1      33.836 -18.913 -21.217  0.00  0.00    +0.000 C 
ATOM     28  C   UNL     1      35.241 -19.214 -21.731  0.00  0.00    +0.000 C 
ENDBRANCH  22  23
ENDBRANCH  21  22
ENDBRANCH   6  21
TORSDOF 4
ENDMDL
MODEL 4
REMARK VINA RESULT:     -10.7      3.269      7.006
REMARK  Name = 4565
REMARK  4 active torsions:
REMARK  status: ('A' for Active; 'I' for Inactive)
REMARK    1  A    between atoms: N_5  and  C_15
REMARK    2  A    between atoms: C_6  and  O_21
REMARK    3  A    between atoms: O_21  and  C_22
REMARK    4  A    between atoms: C_22  and  C_23
REMARK                            x       y       z     vdW  Elec       q    Type
REMARK                         _______ _______ _______ _____ _____    ______ ____
ROOT
ATOM      1  N   UNL     1      35.378 -23.555 -15.799  0.00  0.00    -0.293 NA
ATOM      2  N   UNL     1      36.183 -25.419 -12.733  0.00  0.00    -0.266 NA
ATOM      3  N   UNL     1      37.745 -23.527 -15.206  0.00  0.00    -0.316 NA
ATOM      4  N   UNL     1      38.266 -24.761 -13.178  0.00  0.00    -0.296 N 
ATOM      5  N   UNL     1      36.953 -22.420 -17.110  0.00  0.00    -0.238 N 
ATOM      6  C   UNL     1      35.075 -24.312 -14.722  0.00  0.00    +0.288 C 
ATOM      7  C   UNL     1      36.102 -24.683 -13.880  0.00  0.00    +0.215 C 
ATOM      8  C   UNL     1      37.407 -24.285 -14.136  0.00  0.00    +0.196 C 
ATOM      9  C   UNL     1      36.678 -23.213 -15.972  0.00  0.00    +0.207 C 
ATOM     10  C   UNL     1      37.499 -25.438 -12.351  0.00  0.00    +0.164 C 
ATOM     11  H   UNL     1      35.435 -25.857 -12.265  0.00  0.00    +0.126 HD
ATOM     12  H   UNL     1      39.240 -24.626 -13.122  0.00  0.00    +0.150 HD
ATOM     13  H   UNL     1      37.905 -22.188 -17.210  0.00  0.00    +0.166 HD
ENDROOT
BRANCH   5  15
ATOM     14 CL   UNL     1      36.429 -19.212 -21.079  0.00  0.00    -0.082 Cl
ATOM     15  C   UNL     1      36.133 -21.898 -18.126  0.00  0.00    +0.059 C 
ATOM     16  C   UNL     1      36.629 -20.926 -18.998  0.00  0.00    +0.027 C 
ATOM     17  C   UNL     1      34.818 -22.350 -18.268  0.00  0.00    +0.015 C 
ATOM     18  C   UNL     1      35.815 -20.410 -20.006  0.00  0.00    +0.059 C 
ATOM     19  C   UNL     1      34.005 -21.834 -19.276  0.00  0.00    +0.002 C 
ATOM     20  C   UNL     1      34.503 -20.863 -20.146  0.00  0.00    +0.011 C 
ENDBRANCH   5  15
BRANCH   6  21
ATOM     21  O   UNL     1      33.766 -24.676 -14.517  0.00  0.00    -0.453 OA
BRANCH  21  22
ATOM     22  C   UNL     1      33.023 -23.907 -13.590  0.00  0.00    +0.208 C 
BRANCH  22  23
ATOM     23  C   UNL     1      31.595 -23.765 -14.113  0.00  0.00    +0.044 C 
ATOM     24  C   UNL     1      31.589 -23.116 -15.504  0.00  0.00    +0.004 C 
ATOM     25  C   UNL     1      30.891 -25.129 -14.145  0.00  0.00    +0.004 C 
ATOM     26  C   UNL     1      30.176 -23.011 -16.072  0.00  0.00    +0.000 C 
ATOM     27  C   UNL     1      29.479 -25.021 -14.716  0.00  0.00    +0.000 C 
ATOM     28  C   UNL     1      29.477 -24.366 -16.094  0.00  0.00    +0.000 C 
ENDBRANCH  22  23
ENDBRANCH  21  22
ENDBRANCH   6  21
TORSDOF 4
ENDMDL
MODEL 5
REMARK VINA RESULT:     -10.6      2.748      6.386
REMARK  Name = 4565
REMARK  4 active torsions:
REMARK  status: ('A' for Active; 'I' for Inactive)
REMARK    1  A    between atoms: N_5  and  C_15
REMARK    2  A    between atoms: C_6  and  O_21
REMARK    3  A    between atoms: O_21  and  C_22
REMARK    4  A    between atoms: C_22  and  C_23
REMARK                            x       y       z     vdW  Elec       q    Type
REMARK                         _______ _______ _______ _____ _____    ______ ____
ROOT
ATOM      1  N   UNL     1      33.504 -22.994 -16.416  0.00  0.00    -0.293 NA
ATOM      2  N   UNL     1      31.766 -24.666 -13.641  0.00  0.00    -0.266 NA
ATOM      3  N   UNL     1      31.117 -23.333 -16.794  0.00  0.00    -0.316 NA
ATOM      4  N   UNL     1      29.978 -24.440 -14.954  0.00  0.00    -0.296 N 
ATOM      5  N   UNL     1      32.468 -22.292 -18.396  0.00  0.00    -0.238 N 
ATOM      6  C   UNL     1      33.438 -23.577 -15.200  0.00  0.00    +0.288 C 
ATOM      7  C   UNL     1      32.212 -24.042 -14.771  0.00  0.00    +0.215 C 
ATOM      8  C   UNL     1      31.084 -23.913 -15.570  0.00  0.00    +0.196 C 
ATOM      9  C   UNL     1      32.355 -22.908 -17.129  0.00  0.00    +0.207 C 
ATOM     10  C   UNL     1      30.422 -24.884 -13.797  0.00  0.00    +0.164 C 
ATOM     11  H   UNL     1      32.309 -24.915 -12.858  0.00  0.00    +0.126 HD
ATOM     12  H   UNL     1      29.057 -24.477 -15.300  0.00  0.00    +0.150 HD
ATOM     13  H   UNL     1      31.618 -22.244 -18.891  0.00  0.00    +0.166 HD
ENDROOT
BRANCH   5  15
ATOM     14 CL   UNL     1      34.174 -18.881 -21.828  0.00  0.00    -0.082 Cl
ATOM     15  C   UNL     1      33.558 -21.734 -19.088  0.00  0.00    +0.059 C 
ATOM     16  C   UNL     1      33.351 -20.703 -20.009  0.00  0.00    +0.027 C 
ATOM     17  C   UNL     1      34.852 -22.207 -18.858  0.00  0.00    +0.015 C 
ATOM     18  C   UNL     1      34.432 -20.150 -20.694  0.00  0.00    +0.059 C 
ATOM     19  C   UNL     1      35.933 -21.653 -19.543  0.00  0.00    +0.002 C 
ATOM     20  C   UNL     1      35.723 -20.624 -20.462  0.00  0.00    +0.011 C 
ENDBRANCH   5  15
BRANCH   6  21
ATOM     21  O   UNL     1      34.584 -23.679 -14.451  0.00  0.00    -0.453 OA
BRANCH  21  22
ATOM     22  C   UNL     1      35.710 -22.943 -14.894  0.00  0.00    +0.208 C 
BRANCH  22  23
ATOM     23  C   UNL     1      36.971 -23.617 -14.358  0.00  0.00    +0.044 C 
ATOM     24  C   UNL     1      37.007 -23.558 -12.824  0.00  0.00    +0.004 C 
ATOM     25  C   UNL     1      37.061 -25.068 -14.850  0.00  0.00    +0.004 C 
ATOM     26  C   UNL     1      38.233 -24.272 -12.261  0.00  0.00    +0.000 C 
ATOM     27  C   UNL     1      38.287 -25.780 -14.282  0.00  0.00    +0.000 C 
ATOM     28  C   UNL     1      38.324 -25.711 -12.759  0.00  0.00    +0.000 C 
ENDBRANCH  22  23
ENDBRANCH  21  22
ENDBRANCH   6  21
TORSDOF 4
ENDMDL
MODEL 6
REMARK VINA RESULT:     -10.5      2.418      5.255
REMARK  Name = 4565
REMARK  4 active torsions:
REMARK  status: ('A' for Active; 'I' for Inactive)
REMARK    1  A    between atoms: N_5  and  C_15
REMARK    2  A    between atoms: C_6  and  O_21
REMARK    3  A    between atoms: O_21  and  C_22
REMARK    4  A    between atoms: C_22  and  C_23
REMARK                            x       y       z     vdW  Elec       q    Type
REMARK                         _______ _______ _______ _____ _____    ______ ____
ROOT
ATOM      1  N   UNL     1      35.169 -23.339 -16.381  0.00  0.00    -0.293 NA
ATOM      2  N   UNL     1      33.148 -22.001 -19.148  0.00  0.00    -0.266 NA
ATOM      3  N   UNL     1      36.426 -21.977 -17.969  0.00  0.00    -0.316 NA
ATOM      4  N   UNL     1      35.082 -21.099 -19.793  0.00  0.00    -0.296 N 
ATOM      5  N   UNL     1      37.463 -22.953 -16.112  0.00  0.00    -0.238 N 
ATOM      6  C   UNL     1      34.022 -23.162 -17.074  0.00  0.00    +0.288 C 
ATOM      7  C   UNL     1      34.068 -22.392 -18.218  0.00  0.00    +0.215 C 
ATOM      8  C   UNL     1      35.261 -21.819 -18.640  0.00  0.00    +0.196 C 
ATOM      9  C   UNL     1      36.285 -22.743 -16.865  0.00  0.00    +0.207 C 
ATOM     10  C   UNL     1      33.802 -21.229 -20.071  0.00  0.00    +0.164 C 
ATOM     11  H   UNL     1      32.191 -22.232 -19.155  0.00  0.00    +0.126 HD
ATOM     12  H   UNL     1      35.760 -20.596 -20.300  0.00  0.00    +0.150 HD
ATOM     13  H   UNL     1      38.258 -22.509 -16.486  0.00  0.00    +0.166 HD
ENDROOT
BRANCH   5  15
ATOM     14 CL   UNL     1      36.601 -23.555 -11.090  0.00  0.00    -0.082 Cl
ATOM     15  C   UNL     1      37.721 -23.673 -14.931  0.00  0.00    +0.059 C 
ATOM     16  C   UNL     1      37.105 -23.301 -13.733  0.00  0.00    +0.027 C 
ATOM     17  C   UNL     1      38.594 -24.764 -14.951  0.00  0.00    +0.015 C 
ATOM     18  C   UNL     1      37.361 -24.016 -12.564  0.00  0.00    +0.059 C 
ATOM     19  C   UNL     1      38.849 -25.479 -13.781  0.00  0.00    +0.002 C 
ATOM     20  C   UNL     1      38.232 -25.105 -12.587  0.00  0.00    +0.011 C 
ENDBRANCH   5  15
BRANCH   6  21
ATOM     21  O   UNL     1      32.872 -23.752 -16.611  0.00  0.00    -0.453 OA
BRANCH  21  22
ATOM     22  C   UNL     1      32.496 -23.469 -15.276  0.00  0.00    +0.208 C 
BRANCH  22  23
ATOM     23  C   UNL     1      30.971 -23.421 -15.202  0.00  0.00    +0.044 C 
ATOM     24  C   UNL     1      30.391 -22.700 -16.427  0.00  0.00    +0.004 C 
ATOM     25  C   UNL     1      30.390 -24.835 -15.076  0.00  0.00    +0.004 C 
ATOM     26  C   UNL     1      28.864 -22.686 -16.403  0.00  0.00    +0.000 C 
ATOM     27  C   UNL     1      28.863 -24.817 -15.055  0.00  0.00    +0.000 C 
ATOM     28  C   UNL     1      28.291 -24.092 -16.269  0.00  0.00    +0.000 C 
ENDBRANCH  22  23
ENDBRANCH  21  22
ENDBRANCH   6  21
TORSDOF 4
ENDMDL
MODEL 7
REMARK VINA RESULT:     -10.4      2.883      5.631
REMARK  Name = 4565
REMARK  4 active torsions:
REMARK  status: ('A' for Active; 'I' for Inactive)
REMARK    1  A    between atoms: N_5  and  C_15
REMARK    2  A    between atoms: C_6  and  O_21
REMARK    3  A    between atoms: O_21  and  C_22
REMARK    4  A    between atoms: C_22  and  C_23
REMARK                            x       y       z     vdW  Elec       q    Type
REMARK                         _______ _______ _______ _____ _____    ______ ____
ROOT
ATOM      1  N   UNL     1      34.789 -23.530 -15.479  0.00  0.00    -0.293 NA
ATOM      2  N   UNL     1      38.452 -23.725 -15.744  0.00  0.00    -0.266 NA
ATOM      3  N   UNL     1      35.841 -24.913 -13.766  0.00  0.00    -0.316 NA
ATOM      4  N   UNL     1      38.262 -25.036 -13.952  0.00  0.00    -0.296 N 
ATOM      5  N   UNL     1      33.522 -24.614 -13.835  0.00  0.00    -0.238 N 
ATOM      6  C   UNL     1      35.983 -23.242 -16.040  0.00  0.00    +0.288 C 
ATOM      7  C   UNL     1      37.115 -23.786 -15.470  0.00  0.00    +0.215 C 
ATOM      8  C   UNL     1      37.023 -24.605 -14.353  0.00  0.00    +0.196 C 
ATOM      9  C   UNL     1      34.792 -24.337 -14.391  0.00  0.00    +0.207 C 
ATOM     10  C   UNL     1      39.098 -24.489 -14.808  0.00  0.00    +0.164 C 
ATOM     11  H   UNL     1      38.874 -23.225 -16.480  0.00  0.00    +0.126 HD
ATOM     12  H   UNL     1      38.478 -25.623 -13.191  0.00  0.00    +0.150 HD
ATOM     13  H   UNL     1      33.554 -25.203 -13.046  0.00  0.00    +0.166 HD
ENDROOT
BRANCH   5  15
ATOM     14 CL   UNL     1      28.604 -25.892 -14.548  0.00  0.00    -0.082 Cl
ATOM     15  C   UNL     1      32.221 -24.214 -14.189  0.00  0.00    +0.059 C 
ATOM     16  C   UNL     1      31.177 -25.143 -14.194  0.00  0.00    +0.027 C 
ATOM     17  C   UNL     1      31.966 -22.885 -14.537  0.00  0.00    +0.015 C 
ATOM     18  C   UNL     1      29.888 -24.745 -14.544  0.00  0.00    +0.059 C 
ATOM     19  C   UNL     1      30.676 -22.487 -14.887  0.00  0.00    +0.002 C 
ATOM     20  C   UNL     1      29.636 -23.418 -14.890  0.00  0.00    +0.011 C 
ENDBRANCH   5  15
BRANCH   6  21
ATOM     21  O   UNL     1      36.017 -22.426 -17.145  0.00  0.00    -0.453 OA
BRANCH  21  22
ATOM     22  C   UNL     1      35.056 -22.672 -18.155  0.00  0.00    +0.208 C 
BRANCH  22  23
ATOM     23  C   UNL     1      34.819 -21.374 -18.924  0.00  0.00    +0.044 C 
ATOM     24  C   UNL     1      35.936 -21.141 -19.952  0.00  0.00    +0.004 C 
ATOM     25  C   UNL     1      33.445 -21.392 -19.606  0.00  0.00    +0.004 C 
ATOM     26  C   UNL     1      35.693 -19.876 -20.771  0.00  0.00    +0.000 C 
ATOM     27  C   UNL     1      33.207 -20.126 -20.427  0.00  0.00    +0.000 C 
ATOM     28  C   UNL     1      34.323 -19.893 -21.440  0.00  0.00    +0.000 C 
ENDBRANCH  22  23
ENDBRANCH  21  22
ENDBRANCH   6  21
TORSDOF 4
ENDMDL
MODEL 8
REMARK VINA RESULT:     -10.3      2.651      5.663
REMARK  Name = 4565
REMARK  4 active torsions:
REMARK  status: ('A' for Active; 'I' for Inactive)
REMARK    1  A    between atoms: N_5  and  C_15
REMARK    2  A    between atoms: C_6  and  O_21
REMARK    3  A    between atoms: O_21  and  C_22
REMARK    4  A    between atoms: C_22  and  C_23
REMARK                            x       y       z     vdW  Elec       q    Type
REMARK                         _______ _______ _______ _____ _____    ______ ____
ROOT
ATOM      1  N   UNL     1      35.405 -23.121 -16.833  0.00  0.00    -0.293 NA
ATOM      2  N   UNL     1      34.277 -21.330 -19.841  0.00  0.00    -0.266 NA
ATOM      3  N   UNL     1      37.054 -21.573 -17.751  0.00  0.00    -0.316 NA
ATOM      4  N   UNL     1      36.298 -20.396 -19.739  0.00  0.00    -0.296 N 
ATOM      5  N   UNL     1      37.507 -22.844 -15.839  0.00  0.00    -0.238 N 
ATOM      6  C   UNL     1      34.514 -22.811 -17.800  0.00  0.00    +0.288 C 
ATOM      7  C   UNL     1      34.885 -21.881 -18.749  0.00  0.00    +0.215 C 
ATOM      8  C   UNL     1      36.138 -21.285 -18.707  0.00  0.00    +0.196 C 
ATOM      9  C   UNL     1      36.604 -22.491 -16.868  0.00  0.00    +0.207 C 
ATOM     10  C   UNL     1      35.162 -20.447 -20.401  0.00  0.00    +0.164 C 
ATOM     11  H   UNL     1      33.369 -21.531 -20.167  0.00  0.00    +0.126 HD
ATOM     12  H   UNL     1      37.087 -19.842 -19.939  0.00  0.00    +0.150 HD
ATOM     13  H   UNL     1      38.370 -22.371 -15.889  0.00  0.00    +0.166 HD
ENDROOT
BRANCH   5  15
ATOM     14 CL   UNL     1      35.395 -24.017 -11.313  0.00  0.00    -0.082 Cl
ATOM     15  C   UNL     1      37.415 -23.738 -14.758  0.00  0.00    +0.059 C 
ATOM     16  C   UNL     1      36.551 -23.467 -13.694  0.00  0.00    +0.027 C 
ATOM     17  C   UNL     1      38.186 -24.903 -14.744  0.00  0.00    +0.015 C 
ATOM     18  C   UNL     1      36.460 -24.355 -12.623  0.00  0.00    +0.059 C 
ATOM     19  C   UNL     1      38.094 -25.792 -13.672  0.00  0.00    +0.002 C 
ATOM     20  C   UNL     1      37.230 -25.517 -12.611  0.00  0.00    +0.011 C 
ENDBRANCH   5  15
BRANCH   6  21
ATOM     21  O   UNL     1      33.289 -23.431 -17.794  0.00  0.00    -0.453 OA
BRANCH  21  22
ATOM     22  C   UNL     1      32.259 -22.814 -17.045  0.00  0.00    +0.208 C 
BRANCH  22  23
ATOM     23  C   UNL     1      31.716 -23.829 -16.040  0.00  0.00    +0.044 C 
ATOM     24  C   UNL     1      32.568 -23.835 -14.763  0.00  0.00    +0.004 C 
ATOM     25  C   UNL     1      30.246 -23.536 -15.715  0.00  0.00    +0.004 C 
ATOM     26  C   UNL     1      32.013 -24.805 -13.721  0.00  0.00    +0.000 C 
ATOM     27  C   UNL     1      29.696 -24.506 -14.671  0.00  0.00    +0.000 C 
ATOM     28  C   UNL     1      30.550 -24.516 -13.407  0.00  0.00    +0.000 C 
ENDBRANCH  22  23
ENDBRANCH  21  22
ENDBRANCH   6  21
TORSDOF 4
ENDMDL
MODEL 9
REMARK VINA RESULT:     -10.0      8.524     12.274
REMARK  Name = 4565
REMARK  4 active torsions:
REMARK  status: ('A' for Active; 'I' for Inactive)
REMARK    1  A    between atoms: N_5  and  C_15
REMARK    2  A    between atoms: C_6  and  O_21
REMARK    3  A    between atoms: O_21  and  C_22
REMARK    4  A    between atoms: C_22  and  C_23
REMARK                            x       y       z     vdW  Elec       q    Type
REMARK                         _______ _______ _______ _____ _____    ______ ____
ROOT
ATOM      1  N   UNL     1      33.016 -13.827 -22.174  0.00  0.00    -0.293 NA
ATOM      2  N   UNL     1      34.032 -16.601 -24.365  0.00  0.00    -0.266 NA
ATOM      3  N   UNL     1      32.908 -13.309 -24.556  0.00  0.00    -0.316 NA
ATOM      4  N   UNL     1      33.582 -15.148 -25.995  0.00  0.00    -0.296 N 
ATOM      5  N   UNL     1      32.318 -11.726 -22.937  0.00  0.00    -0.238 N 
ATOM      6  C   UNL     1      33.453 -15.081 -22.424  0.00  0.00    +0.288 C 
ATOM      7  C   UNL     1      33.622 -15.458 -23.740  0.00  0.00    +0.215 C 
ATOM      8  C   UNL     1      33.348 -14.571 -24.773  0.00  0.00    +0.196 C 
ATOM      9  C   UNL     1      32.774 -13.029 -23.242  0.00  0.00    +0.207 C 
ATOM     10  C   UNL     1      33.991 -16.367 -25.714  0.00  0.00    +0.164 C 
ATOM     11  H   UNL     1      34.306 -17.440 -23.927  0.00  0.00    +0.126 HD
ATOM     12  H   UNL     1      33.469 -14.741 -26.884  0.00  0.00    +0.150 HD
ATOM     13  H   UNL     1      32.150 -11.168 -23.731  0.00  0.00    +0.166 HD
ENDROOT
BRANCH   5  15
ATOM     14 CL   UNL     1      32.318  -7.356 -20.249  0.00  0.00    -0.082 Cl
ATOM     15  C   UNL     1      32.058 -11.070 -21.721  0.00  0.00    +0.059 C 
ATOM     16  C   UNL     1      32.290  -9.697 -21.600  0.00  0.00    +0.027 C 
ATOM     17  C   UNL     1      31.566 -11.787 -20.627  0.00  0.00    +0.015 C 
ATOM     18  C   UNL     1      32.031  -9.047 -20.394  0.00  0.00    +0.059 C 
ATOM     19  C   UNL     1      31.307 -11.137 -19.421  0.00  0.00    +0.002 C 
ATOM     20  C   UNL     1      31.540  -9.766 -19.304  0.00  0.00    +0.011 C 
ENDBRANCH   5  15
BRANCH   6  21
ATOM     21  O   UNL     1      33.709 -15.916 -21.364  0.00  0.00    -0.453 OA
BRANCH  21  22
ATOM     22  C   UNL     1      34.968 -16.562 -21.343  0.00  0.00    +0.208 C 
BRANCH  22  23
ATOM     23  C   UNL     1      34.742 -18.070 -21.425  0.00  0.00    +0.044 C 
ATOM     24  C   UNL     1      35.884 -18.828 -20.735  0.00  0.00    +0.004 C 
ATOM     25  C   UNL     1      33.387 -18.448 -20.812  0.00  0.00    +0.004 C 
ATOM     26  C   UNL     1      35.653 -20.337 -20.757  0.00  0.00    +0.000 C 
ATOM     27  C   UNL     1      33.161 -19.959 -20.834  0.00  0.00    +0.000 C 
ATOM     28  C   UNL     1      34.303 -20.709 -20.155  0.00  0.00    +0.000 C 
ENDBRANCH  22  23
ENDBRANCH  21  22
ENDBRANCH   6  21
TORSDOF 4
ENDMDL
