MODEL 1
REMARK VINA RESULT:      -7.9      0.000      0.000
REMARK  Name = 8359
REMARK  0 active torsions:
REMARK  status: ('A' for Active; 'I' for Inactive)
REMARK                            x       y       z     vdW  Elec       q    Type
REMARK                         _______ _______ _______ _____ _____    ______ ____
ROOT
ATOM      1  O   UNL     1      34.748 -22.791 -17.819  0.00  0.00    -0.373 OA
ATOM      2  O   UNL     1      36.788 -22.042 -18.433  0.00  0.00    -0.244 OA
ATOM      3  O   UNL     1      32.697 -23.522 -17.224  0.00  0.00    -0.223 OA
ATOM      4  N   UNL     1      32.816 -21.967 -18.890  0.00  0.00    -0.290 N 
ATOM      5  C   UNL     1      33.572 -21.140 -19.711  0.00  0.00    +0.068 A 
ATOM      6  C   UNL     1      34.949 -21.143 -19.578  0.00  0.00    +0.092 A 
ATOM      7  C   UNL     1      32.949 -20.321 -20.655  0.00  0.00    +0.017 C 
ATOM      8  C   UNL     1      35.731 -20.319 -20.395  0.00  0.00    +0.008 C 
ATOM      9  C   UNL     1      35.571 -22.017 -18.576  0.00  0.00    +0.350 A 
ATOM     10  C   UNL     1      33.726 -19.497 -21.469  0.00  0.00    +0.001 C 
ATOM     11  C   UNL     1      35.115 -19.496 -21.339  0.00  0.00    +0.000 C 
ATOM     12  C   UNL     1      33.382 -22.794 -17.945  0.00  0.00    +0.421 A 
ATOM     13  H   UNL     1      31.835 -21.963 -18.988  0.00  0.00    +0.172 HD
ENDROOT
TORSDOF 0
ENDMDL
MODEL 2
REMARK VINA RESULT:      -7.7      2.021      2.845
REMARK  Name = 8359
REMARK  0 active torsions:
REMARK  status: ('A' for Active; 'I' for Inactive)
REMARK                            x       y       z     vdW  Elec       q    Type
REMARK                         _______ _______ _______ _____ _____    ______ ____
ROOT
ATOM      1  O   UNL     1      32.881 -21.893 -19.651  0.00  0.00    -0.373 OA
ATOM      2  O   UNL     1      32.141 -20.114 -20.828  0.00  0.00    -0.244 OA
ATOM      3  O   UNL     1      33.648 -23.662 -18.478  0.00  0.00    -0.223 OA
ATOM      4  N   UNL     1      35.185 -22.150 -19.221  0.00  0.00    -0.290 N 
ATOM      5  C   UNL     1      35.486 -20.978 -19.903  0.00  0.00    +0.068 A 
ATOM      6  C   UNL     1      34.455 -20.250 -20.470  0.00  0.00    +0.092 A 
ATOM      7  C   UNL     1      36.808 -20.543 -20.013  0.00  0.00    +0.017 C 
ATOM      8  C   UNL     1      34.734 -19.066 -21.161  0.00  0.00    +0.008 C 
ATOM      9  C   UNL     1      33.076 -20.735 -20.336  0.00  0.00    +0.350 A 
ATOM     10  C   UNL     1      37.090 -19.364 -20.701  0.00  0.00    +0.001 C 
ATOM     11  C   UNL     1      36.054 -18.626 -21.275  0.00  0.00    +0.000 C 
ATOM     12  C   UNL     1      33.898 -22.621 -19.086  0.00  0.00    +0.421 A 
ATOM     13  H   UNL     1      35.922 -22.665 -18.819  0.00  0.00    +0.172 HD
ENDROOT
TORSDOF 0
ENDMDL
MODEL 3
REMARK VINA RESULT:      -7.5      4.562      5.866
REMARK  Name = 8359
REMARK  0 active torsions:
REMARK  status: ('A' for Active; 'I' for Inactive)
REMARK                            x       y       z     vdW  Elec       q    Type
REMARK                         _______ _______ _______ _____ _____    ______ ____
ROOT
ATOM      1  O   UNL     1      35.172 -16.855 -20.446  0.00  0.00    -0.373 OA
ATOM      2  O   UNL     1      35.509 -19.084 -20.586  0.00  0.00    -0.244 OA
ATOM      3  O   UNL     1      34.830 -14.627 -20.335  0.00  0.00    -0.223 OA
ATOM      4  N   UNL     1      34.588 -15.626 -22.372  0.00  0.00    -0.290 N 
ATOM      5  C   UNL     1      34.618 -16.768 -23.161  0.00  0.00    +0.068 A 
ATOM      6  C   UNL     1      34.933 -17.981 -22.574  0.00  0.00    +0.092 A 
ATOM      7  C   UNL     1      34.334 -16.691 -24.526  0.00  0.00    +0.017 C 
ATOM      8  C   UNL     1      34.968 -19.144 -23.349  0.00  0.00    +0.008 C 
ATOM      9  C   UNL     1      35.226 -18.026 -21.135  0.00  0.00    +0.350 A 
ATOM     10  C   UNL     1      34.369 -17.849 -25.303  0.00  0.00    +0.001 C 
ATOM     11  C   UNL     1      34.686 -19.075 -24.715  0.00  0.00    +0.000 C 
ATOM     12  C   UNL     1      34.860 -15.650 -21.021  0.00  0.00    +0.421 A 
ATOM     13  H   UNL     1      34.364 -14.765 -22.794  0.00  0.00    +0.172 HD
ENDROOT
TORSDOF 0
ENDMDL
MODEL 4
REMARK VINA RESULT:      -7.4      1.409      2.702
REMARK  Name = 8359
REMARK  0 active torsions:
REMARK  status: ('A' for Active; 'I' for Inactive)
REMARK                            x       y       z     vdW  Elec       q    Type
REMARK                         _______ _______ _______ _____ _____    ______ ____
ROOT
ATOM      1  O   UNL     1      34.946 -22.446 -18.037  0.00  0.00    -0.373 OA
ATOM      2  O   UNL     1      32.790 -22.462 -18.709  0.00  0.00    -0.244 OA
ATOM      3  O   UNL     1      37.107 -22.410 -17.386  0.00  0.00    -0.223 OA
ATOM      4  N   UNL     1      36.494 -20.995 -19.068  0.00  0.00    -0.290 N 
ATOM      5  C   UNL     1      35.517 -20.486 -19.914  0.00  0.00    +0.068 A 
ATOM      6  C   UNL     1      34.225 -20.972 -19.815  0.00  0.00    +0.092 A 
ATOM      7  C   UNL     1      35.836 -19.500 -20.849  0.00  0.00    +0.017 C 
ATOM      8  C   UNL     1      33.225 -20.474 -20.656  0.00  0.00    +0.008 C 
ATOM      9  C   UNL     1      33.924 -22.010 -18.820  0.00  0.00    +0.350 A 
ATOM     10  C   UNL     1      34.841 -19.001 -21.690  0.00  0.00    +0.001 C 
ATOM     11  C   UNL     1      33.537 -19.488 -21.594  0.00  0.00    +0.000 C 
ATOM     12  C   UNL     1      36.229 -21.969 -18.129  0.00  0.00    +0.421 A 
ATOM     13  H   UNL     1      37.412 -20.646 -19.141  0.00  0.00    +0.172 HD
ENDROOT
TORSDOF 0
ENDMDL
MODEL 5
REMARK VINA RESULT:      -7.4      6.236      7.602
REMARK  Name = 8359
REMARK  0 active torsions:
REMARK  status: ('A' for Active; 'I' for Inactive)
REMARK                            x       y       z     vdW  Elec       q    Type
REMARK                         _______ _______ _______ _____ _____    ______ ____
ROOT
ATOM      1  O   UNL     1      34.215 -17.080 -25.580  0.00  0.00    -0.373 OA
ATOM      2  O   UNL     1      35.023 -18.820 -24.389  0.00  0.00    -0.244 OA
ATOM      3  O   UNL     1      33.405 -15.325 -26.746  0.00  0.00    -0.223 OA
ATOM      4  N   UNL     1      33.723 -15.039 -24.505  0.00  0.00    -0.290 N 
ATOM      5  C   UNL     1      34.121 -15.544 -23.274  0.00  0.00    +0.068 A 
ATOM      6  C   UNL     1      34.576 -16.848 -23.200  0.00  0.00    +0.092 A 
ATOM      7  C   UNL     1      34.062 -14.745 -22.130  0.00  0.00    +0.017 C 
ATOM      8  C   UNL     1      34.984 -17.377 -21.971  0.00  0.00    +0.008 C 
ATOM      9  C   UNL     1      34.626 -17.661 -24.422  0.00  0.00    +0.350 A 
ATOM     10  C   UNL     1      34.466 -15.269 -20.903  0.00  0.00    +0.001 C 
ATOM     11  C   UNL     1      34.926 -16.584 -20.823  0.00  0.00    +0.000 C 
ATOM     12  C   UNL     1      33.762 -15.787 -25.662  0.00  0.00    +0.421 A 
ATOM     13  H   UNL     1      33.399 -14.110 -24.554  0.00  0.00    +0.172 HD
ENDROOT
TORSDOF 0
ENDMDL
MODEL 6
REMARK VINA RESULT:      -7.3      4.075      5.369
REMARK  Name = 8359
REMARK  0 active torsions:
REMARK  status: ('A' for Active; 'I' for Inactive)
REMARK                            x       y       z     vdW  Elec       q    Type
REMARK                         _______ _______ _______ _____ _____    ______ ____
ROOT
ATOM      1  O   UNL     1      35.395 -17.818 -20.483  0.00  0.00    -0.373 OA
ATOM      2  O   UNL     1      34.946 -15.622 -20.753  0.00  0.00    -0.244 OA
ATOM      3  O   UNL     1      35.838 -20.017 -20.241  0.00  0.00    -0.223 OA
ATOM      4  N   UNL     1      35.252 -19.287 -22.322  0.00  0.00    -0.290 N 
ATOM      5  C   UNL     1      34.882 -18.254 -23.173  0.00  0.00    +0.068 A 
ATOM      6  C   UNL     1      34.767 -16.973 -22.661  0.00  0.00    +0.092 A 
ATOM      7  C   UNL     1      34.630 -18.506 -24.523  0.00  0.00    +0.017 C 
ATOM      8  C   UNL     1      34.397 -15.917 -23.500  0.00  0.00    +0.008 C 
ATOM      9  C   UNL     1      35.039 -16.743 -21.236  0.00  0.00    +0.350 A 
ATOM     10  C   UNL     1      34.260 -17.455 -25.361  0.00  0.00    +0.001 C 
ATOM     11  C   UNL     1      34.143 -16.162 -24.850  0.00  0.00    +0.000 C 
ATOM     12  C   UNL     1      35.511 -19.090 -20.983  0.00  0.00    +0.421 A 
ATOM     13  H   UNL     1      35.333 -20.197 -22.690  0.00  0.00    +0.172 HD
ENDROOT
TORSDOF 0
ENDMDL
MODEL 7
REMARK VINA RESULT:      -7.3      7.206      8.357
REMARK  Name = 8359
REMARK  0 active torsions:
REMARK  status: ('A' for Active; 'I' for Inactive)
REMARK                            x       y       z     vdW  Elec       q    Type
REMARK                         _______ _______ _______ _____ _____    ______ ____
ROOT
ATOM      1  O   UNL     1      33.466 -14.198 -25.009  0.00  0.00    -0.373 OA
ATOM      2  O   UNL     1      33.200 -15.767 -26.611  0.00  0.00    -0.244 OA
ATOM      3  O   UNL     1      33.743 -12.650 -23.390  0.00  0.00    -0.223 OA
ATOM      4  N   UNL     1      34.496 -14.760 -22.964  0.00  0.00    -0.290 N 
ATOM      5  C   UNL     1      34.677 -16.077 -23.369  0.00  0.00    +0.068 A 
ATOM      6  C   UNL     1      34.241 -16.457 -24.625  0.00  0.00    +0.092 A 
ATOM      7  C   UNL     1      35.291 -16.999 -22.519  0.00  0.00    +0.017 C 
ATOM      8  C   UNL     1      34.414 -17.777 -25.054  0.00  0.00    +0.008 C 
ATOM      9  C   UNL     1      33.599 -15.462 -25.493  0.00  0.00    +0.350 A 
ATOM     10  C   UNL     1      35.465 -18.316 -22.944  0.00  0.00    +0.001 C 
ATOM     11  C   UNL     1      35.026 -18.705 -24.210  0.00  0.00    +0.000 C 
ATOM     12  C   UNL     1      33.896 -13.813 -23.764  0.00  0.00    +0.421 A 
ATOM     13  H   UNL     1      34.808 -14.494 -22.068  0.00  0.00    +0.172 HD
ENDROOT
TORSDOF 0
ENDMDL
MODEL 8
REMARK VINA RESULT:      -7.3      5.775      7.135
REMARK  Name = 8359
REMARK  0 active torsions:
REMARK  status: ('A' for Active; 'I' for Inactive)
REMARK                            x       y       z     vdW  Elec       q    Type
REMARK                         _______ _______ _______ _____ _____    ______ ____
ROOT
ATOM      1  O   UNL     1      34.427 -14.402 -22.006  0.00  0.00    -0.373 OA
ATOM      2  O   UNL     1      34.846 -15.610 -20.145  0.00  0.00    -0.244 OA
ATOM      3  O   UNL     1      34.012 -13.220 -23.883  0.00  0.00    -0.223 OA
ATOM      4  N   UNL     1      34.329 -15.468 -24.108  0.00  0.00    -0.290 N 
ATOM      5  C   UNL     1      34.590 -16.708 -23.538  0.00  0.00    +0.068 A 
ATOM      6  C   UNL     1      34.773 -16.791 -22.170  0.00  0.00    +0.092 A 
ATOM      7  C   UNL     1      34.666 -17.850 -24.338  0.00  0.00    +0.017 C 
ATOM      8  C   UNL     1      35.037 -18.029 -21.574  0.00  0.00    +0.008 C 
ATOM      9  C   UNL     1      34.687 -15.570 -21.359  0.00  0.00    +0.350 A 
ATOM     10  C   UNL     1      34.929 -19.086 -23.748  0.00  0.00    +0.001 C 
ATOM     11  C   UNL     1      35.115 -19.175 -22.367  0.00  0.00    +0.000 C 
ATOM     12  C   UNL     1      34.244 -14.312 -23.363  0.00  0.00    +0.421 A 
ATOM     13  H   UNL     1      34.199 -15.413 -25.083  0.00  0.00    +0.172 HD
ENDROOT
TORSDOF 0
ENDMDL
MODEL 9
REMARK VINA RESULT:      -7.3      6.209      7.565
REMARK  Name = 8359
REMARK  0 active torsions:
REMARK  status: ('A' for Active; 'I' for Inactive)
REMARK                            x       y       z     vdW  Elec       q    Type
REMARK                         _______ _______ _______ _____ _____    ______ ____
ROOT
ATOM      1  O   UNL     1      33.893 -14.835 -24.508  0.00  0.00    -0.373 OA
ATOM      2  O   UNL     1      34.304 -14.183 -22.386  0.00  0.00    -0.244 OA
ATOM      3  O   UNL     1      33.490 -15.513 -26.623  0.00  0.00    -0.223 OA
ATOM      4  N   UNL     1      34.192 -17.089 -25.130  0.00  0.00    -0.290 N 
ATOM      5  C   UNL     1      34.591 -17.435 -23.845  0.00  0.00    +0.068 A 
ATOM      6  C   UNL     1      34.640 -16.452 -22.872  0.00  0.00    +0.092 A 
ATOM      7  C   UNL     1      34.936 -18.754 -23.543  0.00  0.00    +0.017 C 
ATOM      8  C   UNL     1      35.037 -16.777 -21.571  0.00  0.00    +0.008 C 
ATOM      9  C   UNL     1      34.270 -15.075 -23.224  0.00  0.00    +0.350 A 
ATOM     10  C   UNL     1      35.334 -19.081 -22.247  0.00  0.00    +0.001 C 
ATOM     11  C   UNL     1      35.385 -18.093 -21.262  0.00  0.00    +0.000 C 
ATOM     12  C   UNL     1      33.842 -15.803 -25.479  0.00  0.00    +0.421 A 
ATOM     13  H   UNL     1      34.158 -17.792 -25.820  0.00  0.00    +0.172 HD
ENDROOT
TORSDOF 0
ENDMDL
