MODEL 1
REMARK VINA RESULT:      -7.7      0.000      0.000
REMARK  Name = 3050
REMARK  6 active torsions:
REMARK  status: ('A' for Active; 'I' for Inactive)
REMARK    1  A    between atoms: P_1  and  O_3
REMARK    2  A    between atoms: P_1  and  O_6
REMARK    3  A    between atoms: P_1  and  C_9
REMARK    4  A    between atoms: O_3  and  C_4
REMARK    5  A    between atoms: O_6  and  C_7
REMARK    6  A    between atoms: C_9  and  C_10
REMARK                            x       y       z     vdW  Elec       q    Type
REMARK                         _______ _______ _______ _____ _____    ______ ____
ROOT
ATOM      1  P   UNL     1      34.576 -16.713 -21.515  0.00  0.00    +0.348 P 
ATOM      2  O   UNL     1      35.402 -16.666 -20.261  0.00  0.00    -0.257 OA
ENDROOT
BRANCH   1   3
ATOM      3  O   UNL     1      35.122 -15.736 -22.685  0.00  0.00    -0.294 OA
BRANCH   3   4
ATOM      4  C   UNL     1      34.874 -16.025 -24.049  0.00  0.00    +0.151 C 
ATOM      5  C   UNL     1      33.695 -15.201 -24.521  0.00  0.00    +0.035 C 
ENDBRANCH   3   4
ENDBRANCH   1   3
BRANCH   1   6
ATOM      6  O   UNL     1      33.036 -16.258 -21.320  0.00  0.00    -0.294 OA
BRANCH   6   7
ATOM      7  C   UNL     1      32.736 -15.218 -20.405  0.00  0.00    +0.151 C 
ATOM      8  C   UNL     1      32.604 -13.915 -21.164  0.00  0.00    +0.035 C 
ENDBRANCH   6   7
ENDBRANCH   1   6
BRANCH   1   9
ATOM      9  C   UNL     1      34.489 -18.332 -22.257  0.00  0.00    +0.142 C 
BRANCH   9  10
ATOM     10  C   UNL     1      34.331 -19.442 -21.259  0.00  0.00    -0.010 C 
ATOM     11  C   UNL     1      35.452 -20.140 -20.825  0.00  0.00    -0.004 C 
ATOM     12  C   UNL     1      33.066 -19.760 -20.780  0.00  0.00    -0.004 C 
ATOM     13  C   UNL     1      34.038 -21.497 -19.410  0.00  0.00    -0.022 C 
ATOM     14  C   UNL     1      35.304 -21.172 -19.897  0.00  0.00    -0.005 C 
ATOM     15  C   UNL     1      32.918 -20.791 -19.853  0.00  0.00    -0.005 C 
ATOM     16  C   UNL     1      33.880 -22.599 -18.418  0.00  0.00    +0.031 C 
ENDBRANCH   9  10
ENDBRANCH   1   9
TORSDOF 6
ENDMDL
MODEL 2
REMARK VINA RESULT:      -6.9      2.438      4.122
REMARK  Name = 3050
REMARK  6 active torsions:
REMARK  status: ('A' for Active; 'I' for Inactive)
REMARK    1  A    between atoms: P_1  and  O_3
REMARK    2  A    between atoms: P_1  and  O_6
REMARK    3  A    between atoms: P_1  and  C_9
REMARK    4  A    between atoms: O_3  and  C_4
REMARK    5  A    between atoms: O_6  and  C_7
REMARK    6  A    between atoms: C_9  and  C_10
REMARK                            x       y       z     vdW  Elec       q    Type
REMARK                         _______ _______ _______ _____ _____    ______ ____
ROOT
ATOM      1  P   UNL     1      33.401 -14.437 -23.732  0.00  0.00    +0.348 P 
ATOM      2  O   UNL     1      32.551 -14.898 -22.582  0.00  0.00    -0.257 OA
ENDROOT
BRANCH   1   3
ATOM      3  O   UNL     1      34.098 -12.997 -23.483  0.00  0.00    -0.294 OA
BRANCH   3   4
ATOM      4  C   UNL     1      33.410 -11.795 -23.780  0.00  0.00    +0.151 C 
ATOM      5  C   UNL     1      34.248 -10.969 -24.732  0.00  0.00    +0.035 C 
ENDBRANCH   3   4
ENDBRANCH   1   3
BRANCH   1   6
ATOM      6  O   UNL     1      32.597 -14.241 -25.122  0.00  0.00    -0.294 OA
BRANCH   6   7
ATOM      7  C   UNL     1      33.190 -14.687 -26.329  0.00  0.00    +0.151 C 
ATOM      8  C   UNL     1      33.362 -13.505 -27.260  0.00  0.00    +0.035 C 
ENDBRANCH   6   7
ENDBRANCH   1   6
BRANCH   1   9
ATOM      9  C   UNL     1      34.741 -15.546 -24.125  0.00  0.00    +0.142 C 
BRANCH   9  10
ATOM     10  C   UNL     1      34.804 -16.751 -23.231  0.00  0.00    -0.010 C 
ATOM     11  C   UNL     1      35.017 -16.584 -21.868  0.00  0.00    -0.004 C 
ATOM     12  C   UNL     1      34.650 -18.019 -23.777  0.00  0.00    -0.004 C 
ATOM     13  C   UNL     1      34.921 -18.981 -21.577  0.00  0.00    -0.022 C 
ATOM     14  C   UNL     1      35.076 -17.704 -21.038  0.00  0.00    -0.005 C 
ATOM     15  C   UNL     1      34.709 -19.139 -22.947  0.00  0.00    -0.005 C 
ATOM     16  C   UNL     1      34.983 -20.178 -20.690  0.00  0.00    +0.031 C 
ENDBRANCH   9  10
ENDBRANCH   1   9
TORSDOF 6
ENDMDL
MODEL 3
REMARK VINA RESULT:      -6.8      6.920     10.008
REMARK  Name = 3050
REMARK  6 active torsions:
REMARK  status: ('A' for Active; 'I' for Inactive)
REMARK    1  A    between atoms: P_1  and  O_3
REMARK    2  A    between atoms: P_1  and  O_6
REMARK    3  A    between atoms: P_1  and  C_9
REMARK    4  A    between atoms: O_3  and  C_4
REMARK    5  A    between atoms: O_6  and  C_7
REMARK    6  A    between atoms: C_9  and  C_10
REMARK                            x       y       z     vdW  Elec       q    Type
REMARK                         _______ _______ _______ _____ _____    ______ ____
ROOT
ATOM      1  P   UNL     1      36.568 -24.884 -14.559  0.00  0.00    +0.348 P 
ATOM      2  O   UNL     1      36.195 -25.867 -15.632  0.00  0.00    -0.257 OA
ENDROOT
BRANCH   1   3
ATOM      3  O   UNL     1      38.150 -24.538 -14.522  0.00  0.00    -0.294 OA
BRANCH   3   4
ATOM      4  C   UNL     1      39.019 -25.204 -13.624  0.00  0.00    +0.151 C 
ATOM      5  C   UNL     1      40.223 -25.711 -14.388  0.00  0.00    +0.035 C 
ENDBRANCH   3   4
ENDBRANCH   1   3
BRANCH   1   6
ATOM      6  O   UNL     1      36.248 -25.382 -13.054  0.00  0.00    -0.294 OA
BRANCH   6   7
ATOM      7  C   UNL     1      35.497 -24.541 -12.195  0.00  0.00    +0.151 C 
ATOM      8  C   UNL     1      36.428 -23.914 -11.180  0.00  0.00    +0.035 C 
ENDBRANCH   6   7
ENDBRANCH   1   6
BRANCH   1   9
ATOM      9  C   UNL     1      35.747 -23.309 -14.711  0.00  0.00    +0.142 C 
BRANCH   9  10
ATOM     10  C   UNL     1      35.719 -22.780 -16.116  0.00  0.00    -0.010 C 
ATOM     11  C   UNL     1      34.587 -22.972 -16.900  0.00  0.00    -0.004 C 
ATOM     12  C   UNL     1      36.824 -22.104 -16.617  0.00  0.00    -0.004 C 
ATOM     13  C   UNL     1      35.667 -21.800 -18.716  0.00  0.00    -0.022 C 
ATOM     14  C   UNL     1      34.562 -22.481 -18.205  0.00  0.00    -0.005 C 
ATOM     15  C   UNL     1      36.799 -21.613 -17.922  0.00  0.00    -0.005 C 
ATOM     16  C   UNL     1      35.640 -21.274 -20.112  0.00  0.00    +0.031 C 
ENDBRANCH   9  10
ENDBRANCH   1   9
TORSDOF 6
ENDMDL
MODEL 4
REMARK VINA RESULT:      -6.8      2.015      3.334
REMARK  Name = 3050
REMARK  6 active torsions:
REMARK  status: ('A' for Active; 'I' for Inactive)
REMARK    1  A    between atoms: P_1  and  O_3
REMARK    2  A    between atoms: P_1  and  O_6
REMARK    3  A    between atoms: P_1  and  C_9
REMARK    4  A    between atoms: O_3  and  C_4
REMARK    5  A    between atoms: O_6  and  C_7
REMARK    6  A    between atoms: C_9  and  C_10
REMARK                            x       y       z     vdW  Elec       q    Type
REMARK                         _______ _______ _______ _____ _____    ______ ____
ROOT
ATOM      1  P   UNL     1      33.681 -14.508 -23.898  0.00  0.00    +0.348 P 
ATOM      2  O   UNL     1      34.225 -13.133 -23.637  0.00  0.00    -0.257 OA
ENDROOT
BRANCH   1   3
ATOM      3  O   UNL     1      32.663 -14.572 -25.156  0.00  0.00    -0.294 OA
BRANCH   3   4
ATOM      4  C   UNL     1      33.149 -14.711 -26.479  0.00  0.00    +0.151 C 
ATOM      5  C   UNL     1      33.279 -13.338 -27.103  0.00  0.00    +0.035 C 
ENDBRANCH   3   4
ENDBRANCH   1   3
BRANCH   1   6
ATOM      6  O   UNL     1      32.821 -15.131 -22.676  0.00  0.00    -0.294 OA
BRANCH   6   7
ATOM      7  C   UNL     1      32.403 -14.279 -21.624  0.00  0.00    +0.151 C 
ATOM      8  C   UNL     1      32.697 -14.950 -20.299  0.00  0.00    +0.035 C 
ENDBRANCH   6   7
ENDBRANCH   1   6
BRANCH   1   9
ATOM      9  C   UNL     1      34.936 -15.725 -24.247  0.00  0.00    +0.142 C 
BRANCH   9  10
ATOM     10  C   UNL     1      34.925 -16.888 -23.298  0.00  0.00    -0.010 C 
ATOM     11  C   UNL     1      35.246 -16.686 -21.961  0.00  0.00    -0.004 C 
ATOM     12  C   UNL     1      34.595 -18.154 -23.766  0.00  0.00    -0.004 C 
ATOM     13  C   UNL     1      34.905 -19.041 -21.541  0.00  0.00    -0.022 C 
ATOM     14  C   UNL     1      35.236 -17.767 -21.079  0.00  0.00    -0.005 C 
ATOM     15  C   UNL     1      34.585 -19.235 -22.885  0.00  0.00    -0.005 C 
ATOM     16  C   UNL     1      34.893 -20.197 -20.598  0.00  0.00    +0.031 C 
ENDBRANCH   9  10
ENDBRANCH   1   9
TORSDOF 6
ENDMDL
MODEL 5
REMARK VINA RESULT:      -6.8      2.105      5.671
REMARK  Name = 3050
REMARK  6 active torsions:
REMARK  status: ('A' for Active; 'I' for Inactive)
REMARK    1  A    between atoms: P_1  and  O_3
REMARK    2  A    between atoms: P_1  and  O_6
REMARK    3  A    between atoms: P_1  and  C_9
REMARK    4  A    between atoms: O_3  and  C_4
REMARK    5  A    between atoms: O_6  and  C_7
REMARK    6  A    between atoms: C_9  and  C_10
REMARK                            x       y       z     vdW  Elec       q    Type
REMARK                         _______ _______ _______ _____ _____    ______ ____
ROOT
ATOM      1  P   UNL     1      34.359 -18.937 -21.411  0.00  0.00    +0.348 P 
ATOM      2  O   UNL     1      33.057 -18.972 -20.664  0.00  0.00    -0.257 OA
ENDROOT
BRANCH   1   3
ATOM      3  O   UNL     1      34.193 -19.144 -23.009  0.00  0.00    -0.294 OA
BRANCH   3   4
ATOM      4  C   UNL     1      35.222 -18.762 -23.903  0.00  0.00    +0.151 C 
ATOM      5  C   UNL     1      34.601 -18.107 -25.118  0.00  0.00    +0.035 C 
ENDBRANCH   3   4
ENDBRANCH   1   3
BRANCH   1   6
ATOM      6  O   UNL     1      35.409 -20.092 -20.981  0.00  0.00    -0.294 OA
BRANCH   6   7
ATOM      7  C   UNL     1      35.065 -20.979 -19.931  0.00  0.00    +0.151 C 
ATOM      8  C   UNL     1      36.313 -21.325 -19.149  0.00  0.00    +0.035 C 
ENDBRANCH   6   7
ENDBRANCH   1   6
BRANCH   1   9
ATOM      9  C   UNL     1      35.254 -17.406 -21.226  0.00  0.00    +0.142 C 
BRANCH   9  10
ATOM     10  C   UNL     1      34.397 -16.186 -21.407  0.00  0.00    -0.010 C 
ATOM     11  C   UNL     1      33.648 -15.708 -20.338  0.00  0.00    -0.004 C 
ATOM     12  C   UNL     1      34.363 -15.548 -22.640  0.00  0.00    -0.004 C 
ATOM     13  C   UNL     1      32.813 -13.928 -21.741  0.00  0.00    -0.022 C 
ATOM     14  C   UNL     1      32.853 -14.575 -20.506  0.00  0.00    -0.005 C 
ATOM     15  C   UNL     1      33.567 -14.415 -22.809  0.00  0.00    -0.005 C 
ATOM     16  C   UNL     1      31.962 -12.715 -21.921  0.00  0.00    +0.031 C 
ENDBRANCH   9  10
ENDBRANCH   1   9
TORSDOF 6
ENDMDL
MODEL 6
REMARK VINA RESULT:      -6.7      1.963      5.899
REMARK  Name = 3050
REMARK  6 active torsions:
REMARK  status: ('A' for Active; 'I' for Inactive)
REMARK    1  A    between atoms: P_1  and  O_3
REMARK    2  A    between atoms: P_1  and  O_6
REMARK    3  A    between atoms: P_1  and  C_9
REMARK    4  A    between atoms: O_3  and  C_4
REMARK    5  A    between atoms: O_6  and  C_7
REMARK    6  A    between atoms: C_9  and  C_10
REMARK                            x       y       z     vdW  Elec       q    Type
REMARK                         _______ _______ _______ _____ _____    ______ ____
ROOT
ATOM      1  P   UNL     1      34.804 -19.014 -21.994  0.00  0.00    +0.348 P 
ATOM      2  O   UNL     1      34.370 -19.255 -23.412  0.00  0.00    -0.257 OA
ENDROOT
BRANCH   1   3
ATOM      3  O   UNL     1      35.829 -20.137 -21.433  0.00  0.00    -0.294 OA
BRANCH   3   4
ATOM      4  C   UNL     1      36.578 -19.913 -20.253  0.00  0.00    +0.151 C 
ATOM      5  C   UNL     1      36.570 -21.175 -19.417  0.00  0.00    +0.035 C 
ENDBRANCH   3   4
ENDBRANCH   1   3
BRANCH   1   6
ATOM      6  O   UNL     1      33.599 -19.020 -20.915  0.00  0.00    -0.294 OA
BRANCH   6   7
ATOM      7  C   UNL     1      32.719 -20.130 -20.871  0.00  0.00    +0.151 C 
ATOM      8  C   UNL     1      32.980 -20.917 -19.605  0.00  0.00    +0.035 C 
ENDBRANCH   6   7
ENDBRANCH   1   6
BRANCH   1   9
ATOM      9  C   UNL     1      35.635 -17.456 -21.751  0.00  0.00    +0.142 C 
BRANCH   9  10
ATOM     10  C   UNL     1      34.718 -16.269 -21.822  0.00  0.00    -0.010 C 
ATOM     11  C   UNL     1      34.304 -15.650 -20.648  0.00  0.00    -0.004 C 
ATOM     12  C   UNL     1      34.292 -15.803 -23.059  0.00  0.00    -0.004 C 
ATOM     13  C   UNL     1      33.020 -14.073 -21.952  0.00  0.00    -0.022 C 
ATOM     14  C   UNL     1      33.451 -14.549 -20.714  0.00  0.00    -0.005 C 
ATOM     15  C   UNL     1      33.439 -14.702 -23.125  0.00  0.00    -0.005 C 
ATOM     16  C   UNL     1      32.108 -12.895 -22.023  0.00  0.00    +0.031 C 
ENDBRANCH   9  10
ENDBRANCH   1   9
TORSDOF 6
ENDMDL
MODEL 7
REMARK VINA RESULT:      -6.7      1.361      2.521
REMARK  Name = 3050
REMARK  6 active torsions:
REMARK  status: ('A' for Active; 'I' for Inactive)
REMARK    1  A    between atoms: P_1  and  O_3
REMARK    2  A    between atoms: P_1  and  O_6
REMARK    3  A    between atoms: P_1  and  C_9
REMARK    4  A    between atoms: O_3  and  C_4
REMARK    5  A    between atoms: O_6  and  C_7
REMARK    6  A    between atoms: C_9  and  C_10
REMARK                            x       y       z     vdW  Elec       q    Type
REMARK                         _______ _______ _______ _____ _____    ______ ____
ROOT
ATOM      1  P   UNL     1      34.415 -16.869 -22.114  0.00  0.00    +0.348 P 
ATOM      2  O   UNL     1      33.314 -16.751 -21.099  0.00  0.00    -0.257 OA
ENDROOT
BRANCH   1   3
ATOM      3  O   UNL     1      35.142 -15.460 -22.444  0.00  0.00    -0.294 OA
BRANCH   3   4
ATOM      4  C   UNL     1      34.423 -14.242 -22.397  0.00  0.00    +0.151 C 
ATOM      5  C   UNL     1      33.886 -13.933 -23.778  0.00  0.00    +0.035 C 
ENDBRANCH   3   4
ENDBRANCH   1   3
BRANCH   1   6
ATOM      6  O   UNL     1      33.935 -17.404 -23.563  0.00  0.00    -0.294 OA
BRANCH   6   7
ATOM      7  C   UNL     1      34.901 -17.928 -24.458  0.00  0.00    +0.151 C 
ATOM      8  C   UNL     1      34.598 -19.390 -24.709  0.00  0.00    +0.035 C 
ENDBRANCH   6   7
ENDBRANCH   1   6
BRANCH   1   9
ATOM      9  C   UNL     1      35.728 -17.972 -21.625  0.00  0.00    +0.142 C 
BRANCH   9  10
ATOM     10  C   UNL     1      35.243 -19.205 -20.917  0.00  0.00    -0.010 C 
ATOM     11  C   UNL     1      36.160 -20.049 -20.303  0.00  0.00    -0.004 C 
ATOM     12  C   UNL     1      33.883 -19.488 -20.884  0.00  0.00    -0.004 C 
ATOM     13  C   UNL     1      34.346 -21.486 -19.607  0.00  0.00    -0.022 C 
ATOM     14  C   UNL     1      35.710 -21.194 -19.646  0.00  0.00    -0.005 C 
ATOM     15  C   UNL     1      33.433 -20.632 -20.227  0.00  0.00    -0.005 C 
ATOM     16  C   UNL     1      33.865 -22.710 -18.904  0.00  0.00    +0.031 C 
ENDBRANCH   9  10
ENDBRANCH   1   9
TORSDOF 6
ENDMDL
MODEL 8
REMARK VINA RESULT:      -6.7      7.804      9.926
REMARK  Name = 3050
REMARK  6 active torsions:
REMARK  status: ('A' for Active; 'I' for Inactive)
REMARK    1  A    between atoms: P_1  and  O_3
REMARK    2  A    between atoms: P_1  and  O_6
REMARK    3  A    between atoms: P_1  and  C_9
REMARK    4  A    between atoms: O_3  and  C_4
REMARK    5  A    between atoms: O_6  and  C_7
REMARK    6  A    between atoms: C_9  and  C_10
REMARK                            x       y       z     vdW  Elec       q    Type
REMARK                         _______ _______ _______ _____ _____    ______ ____
ROOT
ATOM      1  P   UNL     1      36.140 -24.887 -14.875  0.00  0.00    +0.348 P 
ATOM      2  O   UNL     1      35.639 -26.167 -15.480  0.00  0.00    -0.257 OA
ENDROOT
BRANCH   1   3
ATOM      3  O   UNL     1      36.554 -23.771 -15.975  0.00  0.00    -0.294 OA
BRANCH   3   4
ATOM      4  C   UNL     1      37.293 -22.623 -15.604  0.00  0.00    +0.151 C 
ATOM      5  C   UNL     1      37.171 -21.583 -16.697  0.00  0.00    +0.035 C 
ENDBRANCH   3   4
ENDBRANCH   1   3
BRANCH   1   6
ATOM      6  O   UNL     1      37.473 -25.049 -13.972  0.00  0.00    -0.294 OA
BRANCH   6   7
ATOM      7  C   UNL     1      38.421 -26.043 -14.318  0.00  0.00    +0.151 C 
ATOM      8  C   UNL     1      39.801 -25.421 -14.344  0.00  0.00    +0.035 C 
ENDBRANCH   6   7
ENDBRANCH   1   6
BRANCH   1   9
ATOM      9  C   UNL     1      34.956 -24.082 -13.813  0.00  0.00    +0.142 C 
BRANCH   9  10
ATOM     10  C   UNL     1      33.557 -24.090 -14.359  0.00  0.00    -0.010 C 
ATOM     11  C   UNL     1      33.258 -23.340 -15.490  0.00  0.00    -0.004 C 
ATOM     12  C   UNL     1      32.578 -24.846 -13.728  0.00  0.00    -0.004 C 
ATOM     13  C   UNL     1      30.969 -24.104 -15.371  0.00  0.00    -0.022 C 
ATOM     14  C   UNL     1      31.959 -23.347 -15.997  0.00  0.00    -0.005 C 
ATOM     15  C   UNL     1      31.278 -24.853 -14.235  0.00  0.00    -0.005 C 
ATOM     16  C   UNL     1      29.580 -24.111 -15.913  0.00  0.00    +0.031 C 
ENDBRANCH   9  10
ENDBRANCH   1   9
TORSDOF 6
ENDMDL
MODEL 9
REMARK VINA RESULT:      -6.7      1.976      5.693
REMARK  Name = 3050
REMARK  6 active torsions:
REMARK  status: ('A' for Active; 'I' for Inactive)
REMARK    1  A    between atoms: P_1  and  O_3
REMARK    2  A    between atoms: P_1  and  O_6
REMARK    3  A    between atoms: P_1  and  C_9
REMARK    4  A    between atoms: O_3  and  C_4
REMARK    5  A    between atoms: O_6  and  C_7
REMARK    6  A    between atoms: C_9  and  C_10
REMARK                            x       y       z     vdW  Elec       q    Type
REMARK                         _______ _______ _______ _____ _____    ______ ____
ROOT
ATOM      1  P   UNL     1      35.339 -18.379 -22.298  0.00  0.00    +0.348 P 
ATOM      2  O   UNL     1      36.770 -18.347 -22.755  0.00  0.00    -0.257 OA
ENDROOT
BRANCH   1   3
ATOM      3  O   UNL     1      34.856 -19.839 -21.792  0.00  0.00    -0.294 OA
BRANCH   3   4
ATOM      4  C   UNL     1      34.369 -20.029 -20.476  0.00  0.00    +0.151 C 
ATOM      5  C   UNL     1      32.860 -20.140 -20.520  0.00  0.00    +0.035 C 
ENDBRANCH   3   4
ENDBRANCH   1   3
BRANCH   1   6
ATOM      6  O   UNL     1      34.263 -17.992 -23.442  0.00  0.00    -0.294 OA
BRANCH   6   7
ATOM      7  C   UNL     1      34.676 -17.970 -24.797  0.00  0.00    +0.151 C 
ATOM      8  C   UNL     1      34.311 -16.632 -25.403  0.00  0.00    +0.035 C 
ENDBRANCH   6   7
ENDBRANCH   1   6
BRANCH   1   9
ATOM      9  C   UNL     1      34.992 -17.273 -20.944  0.00  0.00    +0.142 C 
BRANCH   9  10
ATOM     10  C   UNL     1      34.242 -16.039 -21.354  0.00  0.00    -0.010 C 
ATOM     11  C   UNL     1      34.826 -15.144 -22.243  0.00  0.00    -0.004 C 
ATOM     12  C   UNL     1      32.973 -15.804 -20.841  0.00  0.00    -0.004 C 
ATOM     13  C   UNL     1      32.854 -13.754 -22.114  0.00  0.00    -0.022 C 
ATOM     14  C   UNL     1      34.129 -13.998 -22.624  0.00  0.00    -0.005 C 
ATOM     15  C   UNL     1      32.275 -14.658 -21.222  0.00  0.00    -0.005 C 
ATOM     16  C   UNL     1      32.108 -12.529 -22.522  0.00  0.00    +0.031 C 
ENDBRANCH   9  10
ENDBRANCH   1   9
TORSDOF 6
ENDMDL
