MODEL 1
REMARK VINA RESULT:      -7.5      0.000      0.000
REMARK  Name = 4661
REMARK  4 active torsions:
REMARK  status: ('A' for Active; 'I' for Inactive)
REMARK    1  A    between atoms: C_1  and  C_10
REMARK    2  A    between atoms: C_4  and  N_9
REMARK    3  A    between atoms: C_10  and  C_12
REMARK    4  A    between atoms: C_12  and  O_13
REMARK                            x       y       z     vdW  Elec       q    Type
REMARK                         _______ _______ _______ _____ _____    ______ ____
ROOT
ATOM      1  C   UNL     1      35.038 -19.515 -21.044  0.00  0.00    -0.011 C 
ATOM      2  C   UNL     1      33.650 -19.610 -20.943  0.00  0.00    -0.002 C 
ATOM      3  C   UNL     1      35.850 -20.439 -20.385  0.00  0.00    -0.002 C 
ATOM      4  C   UNL     1      33.885 -21.551 -19.524  0.00  0.00    +0.143 C 
ATOM      5  C   UNL     1      33.075 -20.628 -20.183  0.00  0.00    +0.024 C 
ATOM      6  C   UNL     1      35.273 -21.457 -19.625  0.00  0.00    +0.024 C 
ENDROOT
BRANCH   4   9
ATOM      7  O   UNL     1      33.856 -23.714 -18.725  0.00  0.00    -0.126 OA
ATOM      8  O   UNL     1      32.242 -22.354 -18.118  0.00  0.00    -0.126 OA
ATOM      9  N   UNL     1      33.299 -22.589 -18.752  0.00  0.00    +0.058 N 
ENDBRANCH   4   9
BRANCH   1  10
ATOM     10  C   UNL     1      35.654 -18.427 -21.857  0.00  0.00    +0.136 C 
BRANCH  10  12
ATOM     11  O   UNL     1      35.176 -16.578 -20.346  0.00  0.00    -0.250 OA
ATOM     12  C   UNL     1      35.169 -17.042 -21.479  0.00  0.00    +0.318 C 
BRANCH  12  13
ATOM     13  O   UNL     1      34.714 -16.352 -22.558  0.00  0.00    -0.480 OA
ATOM     14  H   UNL     1      35.262 -15.713 -22.970  0.00  0.00    +0.295 HD
ENDBRANCH  12  13
ENDBRANCH  10  12
ENDBRANCH   1  10
TORSDOF 4
ENDMDL
MODEL 2
REMARK VINA RESULT:      -7.4      1.493      1.808
REMARK  Name = 4661
REMARK  4 active torsions:
REMARK  status: ('A' for Active; 'I' for Inactive)
REMARK    1  A    between atoms: C_1  and  C_10
REMARK    2  A    between atoms: C_4  and  N_9
REMARK    3  A    between atoms: C_10  and  C_12
REMARK    4  A    between atoms: C_12  and  O_13
REMARK                            x       y       z     vdW  Elec       q    Type
REMARK                         _______ _______ _______ _____ _____    ______ ____
ROOT
ATOM      1  C   UNL     1      34.528 -19.201 -21.140  0.00  0.00    -0.011 C 
ATOM      2  C   UNL     1      33.305 -19.739 -20.741  0.00  0.00    -0.002 C 
ATOM      3  C   UNL     1      35.720 -19.816 -20.756  0.00  0.00    -0.002 C 
ATOM      4  C   UNL     1      34.466 -21.508 -19.574  0.00  0.00    +0.143 C 
ATOM      5  C   UNL     1      33.275 -20.893 -19.958  0.00  0.00    +0.024 C 
ATOM      6  C   UNL     1      35.689 -20.970 -19.973  0.00  0.00    +0.024 C 
ENDROOT
BRANCH   4   9
ATOM      7  O   UNL     1      33.844 -23.700 -19.218  0.00  0.00    -0.126 OA
ATOM      8  O   UNL     1      34.997 -22.675 -17.657  0.00  0.00    -0.126 OA
ATOM      9  N   UNL     1      34.434 -22.684 -18.778  0.00  0.00    +0.058 N 
ENDBRANCH   4   9
BRANCH   1  10
ATOM     10  C   UNL     1      34.562 -17.967 -21.978  0.00  0.00    +0.136 C 
BRANCH  10  12
ATOM     11  O   UNL     1      34.784 -19.258 -24.032  0.00  0.00    -0.250 OA
ATOM     12  C   UNL     1      34.985 -18.222 -23.411  0.00  0.00    +0.318 C 
BRANCH  12  13
ATOM     13  O   UNL     1      35.627 -17.151 -23.948  0.00  0.00    -0.480 OA
ATOM     14  H   UNL     1      36.561 -17.092 -23.898  0.00  0.00    +0.295 HD
ENDBRANCH  12  13
ENDBRANCH  10  12
ENDBRANCH   1  10
TORSDOF 4
ENDMDL
MODEL 3
REMARK VINA RESULT:      -7.3      0.349      1.833
REMARK  Name = 4661
REMARK  4 active torsions:
REMARK  status: ('A' for Active; 'I' for Inactive)
REMARK    1  A    between atoms: C_1  and  C_10
REMARK    2  A    between atoms: C_4  and  N_9
REMARK    3  A    between atoms: C_10  and  C_12
REMARK    4  A    between atoms: C_12  and  O_13
REMARK                            x       y       z     vdW  Elec       q    Type
REMARK                         _______ _______ _______ _____ _____    ______ ____
ROOT
ATOM      1  C   UNL     1      34.763 -19.534 -21.095  0.00  0.00    -0.011 C 
ATOM      2  C   UNL     1      35.637 -20.445 -20.502  0.00  0.00    -0.002 C 
ATOM      3  C   UNL     1      33.394 -19.614 -20.840  0.00  0.00    -0.002 C 
ATOM      4  C   UNL     1      33.773 -21.514 -19.397  0.00  0.00    +0.143 C 
ATOM      5  C   UNL     1      35.142 -21.434 -19.653  0.00  0.00    +0.024 C 
ATOM      6  C   UNL     1      32.899 -20.604 -19.991  0.00  0.00    +0.024 C 
ENDROOT
BRANCH   4   9
ATOM      7  O   UNL     1      32.098 -22.413 -18.093  0.00  0.00    -0.126 OA
ATOM      8  O   UNL     1      34.007 -23.490 -18.230  0.00  0.00    -0.126 OA
ATOM      9  N   UNL     1      33.269 -22.521 -18.532  0.00  0.00    +0.058 N 
ENDBRANCH   4   9
BRANCH   1  10
ATOM     10  C   UNL     1      35.292 -18.475 -22.003  0.00  0.00    +0.136 C 
BRANCH  10  12
ATOM     11  O   UNL     1      34.043 -16.416 -22.363  0.00  0.00    -0.250 OA
ATOM     12  C   UNL     1      34.792 -17.085 -21.664  0.00  0.00    +0.318 C 
BRANCH  12  13
ATOM     13  O   UNL     1      35.278 -16.648 -20.471  0.00  0.00    -0.480 OA
ATOM     14  H   UNL     1      35.138 -15.760 -20.206  0.00  0.00    +0.295 HD
ENDBRANCH  12  13
ENDBRANCH  10  12
ENDBRANCH   1  10
TORSDOF 4
ENDMDL
MODEL 4
REMARK VINA RESULT:      -6.9      2.085      5.524
REMARK  Name = 4661
REMARK  4 active torsions:
REMARK  status: ('A' for Active; 'I' for Inactive)
REMARK    1  A    between atoms: C_1  and  C_10
REMARK    2  A    between atoms: C_4  and  N_9
REMARK    3  A    between atoms: C_10  and  C_12
REMARK    4  A    between atoms: C_12  and  O_13
REMARK                            x       y       z     vdW  Elec       q    Type
REMARK                         _______ _______ _______ _____ _____    ______ ____
ROOT
ATOM      1  C   UNL     1      35.137 -20.828 -19.870  0.00  0.00    -0.011 C 
ATOM      2  C   UNL     1      36.352 -20.219 -20.182  0.00  0.00    -0.002 C 
ATOM      3  C   UNL     1      33.958 -20.382 -20.467  0.00  0.00    -0.002 C 
ATOM      4  C   UNL     1      35.209 -18.716 -21.690  0.00  0.00    +0.143 C 
ATOM      5  C   UNL     1      36.387 -19.163 -21.092  0.00  0.00    +0.024 C 
ATOM      6  C   UNL     1      33.994 -19.326 -21.378  0.00  0.00    +0.024 C 
ENDROOT
BRANCH   4   9
ATOM      7  O   UNL     1      35.190 -16.464 -22.186  0.00  0.00    -0.126 OA
ATOM      8  O   UNL     1      35.330 -17.897 -23.843  0.00  0.00    -0.126 OA
ATOM      9  N   UNL     1      35.245 -17.641 -22.618  0.00  0.00    +0.058 N 
ENDBRANCH   4   9
BRANCH   1  10
ATOM     10  C   UNL     1      35.098 -21.958 -18.897  0.00  0.00    +0.136 C 
BRANCH  10  12
ATOM     11  O   UNL     1      32.760 -22.454 -18.427  0.00  0.00    -0.250 OA
ATOM     12  C   UNL     1      33.817 -22.766 -18.960  0.00  0.00    +0.318 C 
BRANCH  12  13
ATOM     13  O   UNL     1      33.969 -23.903 -19.689  0.00  0.00    -0.480 OA
ATOM     14  H   UNL     1      34.078 -24.727 -19.255  0.00  0.00    +0.295 HD
ENDBRANCH  12  13
ENDBRANCH  10  12
ENDBRANCH   1  10
TORSDOF 4
ENDMDL
MODEL 5
REMARK VINA RESULT:      -6.9      7.673      8.577
REMARK  Name = 4661
REMARK  4 active torsions:
REMARK  status: ('A' for Active; 'I' for Inactive)
REMARK    1  A    between atoms: C_1  and  C_10
REMARK    2  A    between atoms: C_4  and  N_9
REMARK    3  A    between atoms: C_10  and  C_12
REMARK    4  A    between atoms: C_12  and  O_13
REMARK                            x       y       z     vdW  Elec       q    Type
REMARK                         _______ _______ _______ _____ _____    ______ ____
ROOT
ATOM      1  C   UNL     1      30.833 -24.366 -14.463  0.00  0.00    -0.011 C 
ATOM      2  C   UNL     1      30.742 -22.984 -14.635  0.00  0.00    -0.002 C 
ATOM      3  C   UNL     1      29.937 -25.210 -15.118  0.00  0.00    -0.002 C 
ATOM      4  C   UNL     1      28.858 -23.293 -16.115  0.00  0.00    +0.143 C 
ATOM      5  C   UNL     1      29.755 -22.449 -15.461  0.00  0.00    +0.024 C 
ATOM      6  C   UNL     1      28.949 -24.674 -15.944  0.00  0.00    +0.024 C 
ENDROOT
BRANCH   4   9
ATOM      7  O   UNL     1      27.351 -23.472 -17.851  0.00  0.00    -0.126 OA
ATOM      8  O   UNL     1      27.494 -21.557 -16.786  0.00  0.00    -0.126 OA
ATOM      9  N   UNL     1      27.853 -22.747 -16.957  0.00  0.00    +0.058 N 
ENDBRANCH   4   9
BRANCH   1  10
ATOM     10  C   UNL     1      31.890 -24.939 -13.581  0.00  0.00    +0.136 C 
BRANCH  10  12
ATOM     11  O   UNL     1      33.968 -24.415 -14.739  0.00  0.00    -0.250 OA
ATOM     12  C   UNL     1      33.246 -24.286 -13.759  0.00  0.00    +0.318 C 
BRANCH  12  13
ATOM     13  O   UNL     1      33.585 -23.522 -12.686  0.00  0.00    -0.480 OA
ATOM     14  H   UNL     1      34.399 -23.669 -12.245  0.00  0.00    +0.295 HD
ENDBRANCH  12  13
ENDBRANCH  10  12
ENDBRANCH   1  10
TORSDOF 4
ENDMDL
MODEL 6
REMARK VINA RESULT:      -6.8      3.083      5.971
REMARK  Name = 4661
REMARK  4 active torsions:
REMARK  status: ('A' for Active; 'I' for Inactive)
REMARK    1  A    between atoms: C_1  and  C_10
REMARK    2  A    between atoms: C_4  and  N_9
REMARK    3  A    between atoms: C_10  and  C_12
REMARK    4  A    between atoms: C_12  and  O_13
REMARK                            x       y       z     vdW  Elec       q    Type
REMARK                         _______ _______ _______ _____ _____    ______ ____
ROOT
ATOM      1  C   UNL     1      34.795 -19.104 -21.608  0.00  0.00    -0.011 C 
ATOM      2  C   UNL     1      34.851 -19.508 -22.941  0.00  0.00    -0.002 C 
ATOM      3  C   UNL     1      34.633 -17.754 -21.294  0.00  0.00    -0.002 C 
ATOM      4  C   UNL     1      34.584 -17.213 -23.647  0.00  0.00    +0.143 C 
ATOM      5  C   UNL     1      34.746 -18.562 -23.961  0.00  0.00    +0.024 C 
ATOM      6  C   UNL     1      34.528 -16.809 -22.314  0.00  0.00    +0.024 C 
ENDROOT
BRANCH   4   9
ATOM      7  O   UNL     1      34.821 -16.569 -25.848  0.00  0.00    -0.126 OA
ATOM      8  O   UNL     1      34.036 -15.107 -24.412  0.00  0.00    -0.126 OA
ATOM      9  N   UNL     1      34.475 -16.250 -24.685  0.00  0.00    +0.058 N 
ENDBRANCH   4   9
BRANCH   1  10
ATOM     10  C   UNL     1      34.908 -20.115 -20.517  0.00  0.00    +0.136 C 
BRANCH  10  12
ATOM     11  O   UNL     1      32.493 -20.423 -20.598  0.00  0.00    -0.250 OA
ATOM     12  C   UNL     1      33.579 -20.730 -20.124  0.00  0.00    +0.318 C 
BRANCH  12  13
ATOM     13  O   UNL     1      33.725 -21.683 -19.165  0.00  0.00    -0.480 OA
ATOM     14  H   UNL     1      33.410 -22.553 -19.318  0.00  0.00    +0.295 HD
ENDBRANCH  12  13
ENDBRANCH  10  12
ENDBRANCH   1  10
TORSDOF 4
ENDMDL
MODEL 7
REMARK VINA RESULT:      -6.8      3.905      6.627
REMARK  Name = 4661
REMARK  4 active torsions:
REMARK  status: ('A' for Active; 'I' for Inactive)
REMARK    1  A    between atoms: C_1  and  C_10
REMARK    2  A    between atoms: C_4  and  N_9
REMARK    3  A    between atoms: C_10  and  C_12
REMARK    4  A    between atoms: C_12  and  O_13
REMARK                            x       y       z     vdW  Elec       q    Type
REMARK                         _______ _______ _______ _____ _____    ______ ____
ROOT
ATOM      1  C   UNL     1      35.382 -17.713 -22.777  0.00  0.00    -0.011 C 
ATOM      2  C   UNL     1      35.119 -18.154 -24.074  0.00  0.00    -0.002 C 
ATOM      3  C   UNL     1      34.997 -16.431 -22.384  0.00  0.00    -0.002 C 
ATOM      4  C   UNL     1      34.086 -16.030 -24.585  0.00  0.00    +0.143 C 
ATOM      5  C   UNL     1      34.471 -17.312 -24.977  0.00  0.00    +0.024 C 
ATOM      6  C   UNL     1      34.349 -15.590 -23.288  0.00  0.00    +0.024 C 
ENDROOT
BRANCH   4   9
ATOM      7  O   UNL     1      33.426 -15.474 -26.723  0.00  0.00    -0.126 OA
ATOM      8  O   UNL     1      32.858 -14.140 -25.075  0.00  0.00    -0.126 OA
ATOM      9  N   UNL     1      33.425 -15.173 -25.505  0.00  0.00    +0.058 N 
ENDBRANCH   4   9
BRANCH   1  10
ATOM     10  C   UNL     1      36.075 -18.613 -21.810  0.00  0.00    +0.136 C 
BRANCH  10  12
ATOM     11  O   UNL     1      33.929 -19.611 -21.234  0.00  0.00    -0.250 OA
ATOM     12  C   UNL     1      35.127 -19.490 -21.016  0.00  0.00    +0.318 C 
BRANCH  12  13
ATOM     13  O   UNL     1      35.765 -20.145 -20.010  0.00  0.00    -0.480 OA
ATOM     14  H   UNL     1      36.687 -20.028 -19.885  0.00  0.00    +0.295 HD
ENDBRANCH  12  13
ENDBRANCH  10  12
ENDBRANCH   1  10
TORSDOF 4
ENDMDL
MODEL 8
REMARK VINA RESULT:      -6.6      6.013      7.590
REMARK  Name = 4661
REMARK  4 active torsions:
REMARK  status: ('A' for Active; 'I' for Inactive)
REMARK    1  A    between atoms: C_1  and  C_10
REMARK    2  A    between atoms: C_4  and  N_9
REMARK    3  A    between atoms: C_10  and  C_12
REMARK    4  A    between atoms: C_12  and  O_13
REMARK                            x       y       z     vdW  Elec       q    Type
REMARK                         _______ _______ _______ _____ _____    ______ ____
ROOT
ATOM      1  C   UNL     1      30.164 -23.117 -15.426  0.00  0.00    -0.011 C 
ATOM      2  C   UNL     1      30.879 -23.251 -14.236  0.00  0.00    -0.002 C 
ATOM      3  C   UNL     1      30.840 -23.070 -16.645  0.00  0.00    -0.002 C 
ATOM      4  C   UNL     1      32.947 -23.293 -15.485  0.00  0.00    +0.143 C 
ATOM      5  C   UNL     1      32.271 -23.339 -14.267  0.00  0.00    +0.024 C 
ATOM      6  C   UNL     1      32.232 -23.159 -16.675  0.00  0.00    +0.024 C 
ENDROOT
BRANCH   4   9
ATOM      7  O   UNL     1      35.003 -23.282 -14.441  0.00  0.00    -0.126 OA
ATOM      8  O   UNL     1      34.939 -23.562 -16.617  0.00  0.00    -0.126 OA
ATOM      9  N   UNL     1      34.364 -23.384 -15.516  0.00  0.00    +0.058 N 
ENDBRANCH   4   9
BRANCH   1  10
ATOM     10  C   UNL     1      28.676 -23.023 -15.394  0.00  0.00    +0.136 C 
BRANCH  10  12
ATOM     11  O   UNL     1      27.812 -23.909 -17.492  0.00  0.00    -0.250 OA
ATOM     12  C   UNL     1      28.046 -22.948 -16.771  0.00  0.00    +0.318 C 
BRANCH  12  13
ATOM     13  O   UNL     1      27.760 -21.668 -17.129  0.00  0.00    -0.480 OA
ATOM     14  H   UNL     1      28.448 -21.095 -17.406  0.00  0.00    +0.295 HD
ENDBRANCH  12  13
ENDBRANCH  10  12
ENDBRANCH   1  10
TORSDOF 4
ENDMDL
MODEL 9
REMARK VINA RESULT:      -6.6      7.071      8.204
REMARK  Name = 4661
REMARK  4 active torsions:
REMARK  status: ('A' for Active; 'I' for Inactive)
REMARK    1  A    between atoms: C_1  and  C_10
REMARK    2  A    between atoms: C_4  and  N_9
REMARK    3  A    between atoms: C_10  and  C_12
REMARK    4  A    between atoms: C_12  and  O_13
REMARK                            x       y       z     vdW  Elec       q    Type
REMARK                         _______ _______ _______ _____ _____    ______ ____
ROOT
ATOM      1  C   UNL     1      29.827 -23.800 -15.003  0.00  0.00    -0.011 C 
ATOM      2  C   UNL     1      30.817 -22.992 -15.563  0.00  0.00    -0.002 C 
ATOM      3  C   UNL     1      30.174 -24.799 -14.093  0.00  0.00    -0.002 C 
ATOM      4  C   UNL     1      32.501 -24.182 -14.303  0.00  0.00    +0.143 C 
ATOM      5  C   UNL     1      32.153 -23.184 -15.213  0.00  0.00    +0.024 C 
ATOM      6  C   UNL     1      31.511 -24.990 -13.743  0.00  0.00    +0.024 C 
ENDROOT
BRANCH   4   9
ATOM      7  O   UNL     1      34.714 -24.518 -14.855  0.00  0.00    -0.126 OA
ATOM      8  O   UNL     1      34.174 -24.401 -12.730  0.00  0.00    -0.126 OA
ATOM      9  N   UNL     1      33.861 -24.376 -13.945  0.00  0.00    +0.058 N 
ENDBRANCH   4   9
BRANCH   1  10
ATOM     10  C   UNL     1      28.398 -23.596 -15.377  0.00  0.00    +0.136 C 
BRANCH  10  12
ATOM     11  O   UNL     1      28.368 -21.923 -17.147  0.00  0.00    -0.250 OA
ATOM     12  C   UNL     1      28.211 -23.083 -16.791  0.00  0.00    +0.318 C 
BRANCH  12  13
ATOM     13  O   UNL     1      27.839 -24.074 -17.645  0.00  0.00    -0.480 OA
ATOM     14  H   UNL     1      28.480 -24.484 -18.193  0.00  0.00    +0.295 HD
ENDBRANCH  12  13
ENDBRANCH  10  12
ENDBRANCH   1  10
TORSDOF 4
ENDMDL
