MODEL 1
REMARK VINA RESULT:     -10.3      0.000      0.000
REMARK  Name = 9954980
REMARK  5 active torsions:
REMARK  status: ('A' for Active; 'I' for Inactive)
REMARK    1  A    between atoms: N_2  and  C_18
REMARK    2  A    between atoms: C_3  and  C_5
REMARK    3  A    between atoms: C_10  and  N_12
REMARK    4  A    between atoms: C_19  and  N_24
REMARK    5  A    between atoms: C_25  and  C_29
REMARK                            x       y       z     vdW  Elec       q    Type
REMARK                         _______ _______ _______ _____ _____    ______ ____
ROOT
ATOM      1  O   UNL     1      35.338 -16.900 -26.125  0.00  0.00    -0.270 OA
ATOM      2  N   UNL     1      33.914 -15.501 -24.947  0.00  0.00    -0.301 N 
ATOM      3  C   UNL     1      34.698 -16.632 -25.113  0.00  0.00    +0.246 C 
ATOM      4  H   UNL     1      33.437 -15.375 -24.095  0.00  0.00    +0.150 HD
ENDROOT
BRANCH   3   5
ATOM      5  C   UNL     1      34.720 -17.578 -23.967  0.00  0.00    +0.053 C 
ATOM      6  C   UNL     1      34.809 -18.931 -24.223  0.00  0.00    +0.006 C 
ATOM      7  C   UNL     1      34.652 -17.073 -22.685  0.00  0.00    +0.006 C 
ATOM      8  C   UNL     1      34.829 -19.819 -23.147  0.00  0.00    +0.015 C 
ATOM      9  C   UNL     1      34.673 -17.962 -21.610  0.00  0.00    +0.015 C 
ATOM     10  C   UNL     1      34.761 -19.335 -21.841  0.00  0.00    +0.058 C 
BRANCH  10  12
ATOM     11  O   UNL     1      32.426 -20.422 -20.526  0.00  0.00    -0.269 OA
ATOM     12  N   UNL     1      34.783 -20.258 -20.723  0.00  0.00    -0.233 N 
ATOM     13  C   UNL     1      33.564 -20.751 -20.190  0.00  0.00    +0.257 C 
ATOM     14  C   UNL     1      35.995 -20.648 -20.150  0.00  0.00    +0.072 C 
ATOM     15  C   UNL     1      33.677 -21.735 -19.069  0.00  0.00    +0.059 C 
ATOM     16  C   UNL     1      36.068 -21.503 -19.125  0.00  0.00    +0.017 C 
ATOM     17  C   UNL     1      34.872 -22.067 -18.575  0.00  0.00    +0.006 C 
ENDBRANCH  10  12
ENDBRANCH   3   5
BRANCH   2  18
ATOM     18  C   UNL     1      33.770 -14.506 -25.972  0.00  0.00    +0.090 C 
ATOM     19  C   UNL     1      33.944 -13.067 -25.480  0.00  0.00    +0.090 C 
ATOM     20  C   UNL     1      32.390 -14.516 -26.631  0.00  0.00    +0.021 C 
ATOM     21  C   UNL     1      33.351 -12.262 -26.632  0.00  0.00    +0.021 C 
ATOM     22  C   UNL     1      32.153 -13.082 -27.112  0.00  0.00    +0.003 C 
BRANCH  19  24
ATOM     23  O   UNL     1      33.782 -10.548 -24.101  0.00  0.00    -0.270 OA
ATOM     24  N   UNL     1      33.243 -12.800 -24.247  0.00  0.00    -0.300 N 
ATOM     25  C   UNL     1      33.220 -11.543 -23.650  0.00  0.00    +0.252 C 
ATOM     26  H   UNL     1      32.761 -13.538 -23.808  0.00  0.00    +0.150 HD
BRANCH  25  29
ATOM     27 CL   UNL     1      30.820  -9.561 -19.145  0.00  0.00    -0.075 Cl
ATOM     28  S   UNL     1      32.290  -9.902 -21.703  0.00  0.00    -0.071 S 
ATOM     29  C   UNL     1      32.476 -11.438 -22.369  0.00  0.00    +0.084 C 
ATOM     30  C   UNL     1      31.927 -12.446 -21.672  0.00  0.00    +0.012 C 
ATOM     31  C   UNL     1      31.300 -11.943 -20.496  0.00  0.00    +0.019 C 
ATOM     32  C   UNL     1      31.421 -10.575 -20.389  0.00  0.00    +0.087 C 
ENDBRANCH  25  29
ENDBRANCH  19  24
ENDBRANCH   2  18
TORSDOF 5
ENDMDL
MODEL 2
REMARK VINA RESULT:     -10.1      5.629     11.060
REMARK  Name = 9954980
REMARK  5 active torsions:
REMARK  status: ('A' for Active; 'I' for Inactive)
REMARK    1  A    between atoms: N_2  and  C_18
REMARK    2  A    between atoms: C_3  and  C_5
REMARK    3  A    between atoms: C_10  and  N_12
REMARK    4  A    between atoms: C_19  and  N_24
REMARK    5  A    between atoms: C_25  and  C_29
REMARK                            x       y       z     vdW  Elec       q    Type
REMARK                         _______ _______ _______ _____ _____    ______ ____
ROOT
ATOM      1  O   UNL     1      35.334 -23.386 -17.044  0.00  0.00    -0.270 OA
ATOM      2  N   UNL     1      33.071 -22.932 -16.829  0.00  0.00    -0.301 N 
ATOM      3  C   UNL     1      34.318 -22.810 -17.422  0.00  0.00    +0.246 C 
ATOM      4  H   UNL     1      32.314 -22.427 -17.207  0.00  0.00    +0.150 HD
ENDROOT
BRANCH   3   5
ATOM      5  C   UNL     1      34.395 -21.886 -18.583  0.00  0.00    +0.053 C 
ATOM      6  C   UNL     1      33.224 -21.432 -19.152  0.00  0.00    +0.006 C 
ATOM      7  C   UNL     1      35.637 -21.511 -19.054  0.00  0.00    +0.006 C 
ATOM      8  C   UNL     1      33.296 -20.566 -20.243  0.00  0.00    +0.015 C 
ATOM      9  C   UNL     1      35.709 -20.644 -20.145  0.00  0.00    +0.015 C 
ATOM     10  C   UNL     1      34.539 -20.171 -20.739  0.00  0.00    +0.058 C 
BRANCH  10  12
ATOM     11  O   UNL     1      34.813 -17.297 -20.573  0.00  0.00    -0.269 OA
ATOM     12  N   UNL     1      34.615 -19.270 -21.872  0.00  0.00    -0.233 N 
ATOM     13  C   UNL     1      34.790 -17.879 -21.658  0.00  0.00    +0.257 C 
ATOM     14  C   UNL     1      34.495 -19.758 -23.175  0.00  0.00    +0.072 C 
ATOM     15  C   UNL     1      34.906 -17.026 -22.882  0.00  0.00    +0.059 C 
ATOM     16  C   UNL     1      34.568 -18.971 -24.253  0.00  0.00    +0.017 C 
ATOM     17  C   UNL     1      34.787 -17.564 -24.098  0.00  0.00    +0.006 C 
ENDBRANCH  10  12
ENDBRANCH   3   5
BRANCH   2  18
ATOM     18  C   UNL     1      32.841 -23.766 -15.683  0.00  0.00    +0.090 C 
ATOM     19  C   UNL     1      31.523 -24.544 -15.728  0.00  0.00    +0.090 C 
ATOM     20  C   UNL     1      32.771 -22.982 -14.372  0.00  0.00    +0.021 C 
ATOM     21  C   UNL     1      31.364 -24.985 -14.276  0.00  0.00    +0.021 C 
ATOM     22  C   UNL     1      31.872 -23.805 -13.447  0.00  0.00    +0.003 C 
BRANCH  19  24
ATOM     23  O   UNL     1      28.775 -24.870 -14.943  0.00  0.00    -0.270 OA
ATOM     24  N   UNL     1      30.402 -23.740 -16.151  0.00  0.00    -0.300 N 
ATOM     25  C   UNL     1      29.100 -23.973 -15.717  0.00  0.00    +0.252 C 
ATOM     26  H   UNL     1      30.564 -22.995 -16.774  0.00  0.00    +0.150 HD
BRANCH  25  29
ATOM     27 CL   UNL     1      25.734 -21.349 -19.148  0.00  0.00    -0.075 Cl
ATOM     28  S   UNL     1      27.798 -23.103 -17.930  0.00  0.00    -0.071 S 
ATOM     29  C   UNL     1      28.054 -23.072 -16.266  0.00  0.00    +0.084 C 
ATOM     30  C   UNL     1      27.279 -22.224 -15.573  0.00  0.00    +0.012 C 
ATOM     31  C   UNL     1      26.398 -21.533 -16.454  0.00  0.00    +0.019 C 
ATOM     32  C   UNL     1      26.575 -21.916 -17.766  0.00  0.00    +0.087 C 
ENDBRANCH  25  29
ENDBRANCH  19  24
ENDBRANCH   2  18
TORSDOF 5
ENDMDL
MODEL 3
REMARK VINA RESULT:      -9.9      0.853      1.510
REMARK  Name = 9954980
REMARK  5 active torsions:
REMARK  status: ('A' for Active; 'I' for Inactive)
REMARK    1  A    between atoms: N_2  and  C_18
REMARK    2  A    between atoms: C_3  and  C_5
REMARK    3  A    between atoms: C_10  and  N_12
REMARK    4  A    between atoms: C_19  and  N_24
REMARK    5  A    between atoms: C_25  and  C_29
REMARK                            x       y       z     vdW  Elec       q    Type
REMARK                         _______ _______ _______ _____ _____    ______ ____
ROOT
ATOM      1  O   UNL     1      35.288 -16.988 -26.062  0.00  0.00    -0.270 OA
ATOM      2  N   UNL     1      33.924 -15.537 -24.875  0.00  0.00    -0.301 N 
ATOM      3  C   UNL     1      34.669 -16.694 -25.044  0.00  0.00    +0.246 C 
ATOM      4  H   UNL     1      33.462 -15.392 -24.018  0.00  0.00    +0.150 HD
ENDROOT
BRANCH   3   5
ATOM      5  C   UNL     1      34.673 -17.636 -23.894  0.00  0.00    +0.053 C 
ATOM      6  C   UNL     1      34.543 -17.128 -22.618  0.00  0.00    +0.006 C 
ATOM      7  C   UNL     1      34.806 -18.987 -24.140  0.00  0.00    +0.006 C 
ATOM      8  C   UNL     1      34.548 -18.012 -21.538  0.00  0.00    +0.015 C 
ATOM      9  C   UNL     1      34.811 -19.870 -23.060  0.00  0.00    +0.015 C 
ATOM     10  C   UNL     1      34.681 -19.382 -21.759  0.00  0.00    +0.058 C 
BRANCH  10  12
ATOM     11  O   UNL     1      37.040 -20.300 -20.360  0.00  0.00    -0.269 OA
ATOM     12  N   UNL     1      34.686 -20.301 -20.637  0.00  0.00    -0.233 N 
ATOM     13  C   UNL     1      35.910 -20.644 -20.009  0.00  0.00    +0.257 C 
ATOM     14  C   UNL     1      33.494 -20.871 -20.183  0.00  0.00    +0.072 C 
ATOM     15  C   UNL     1      35.821 -21.561 -18.831  0.00  0.00    +0.059 C 
ATOM     16  C   UNL     1      33.444 -21.714 -19.148  0.00  0.00    +0.017 C 
ATOM     17  C   UNL     1      34.644 -22.062 -18.449  0.00  0.00    +0.006 C 
ENDBRANCH  10  12
ENDBRANCH   3   5
BRANCH   2  18
ATOM     18  C   UNL     1      33.802 -14.543 -25.903  0.00  0.00    +0.090 C 
ATOM     19  C   UNL     1      33.988 -13.105 -25.412  0.00  0.00    +0.090 C 
ATOM     20  C   UNL     1      32.429 -14.538 -26.575  0.00  0.00    +0.021 C 
ATOM     21  C   UNL     1      33.416 -12.295 -26.571  0.00  0.00    +0.021 C 
ATOM     22  C   UNL     1      32.213 -13.103 -27.061  0.00  0.00    +0.003 C 
BRANCH  19  24
ATOM     23  O   UNL     1      33.748 -10.557 -24.099  0.00  0.00    -0.270 OA
ATOM     24  N   UNL     1      33.279 -12.827 -24.186  0.00  0.00    -0.300 N 
ATOM     25  C   UNL     1      33.217 -11.557 -23.622  0.00  0.00    +0.252 C 
ATOM     26  H   UNL     1      32.819 -13.569 -23.728  0.00  0.00    +0.150 HD
BRANCH  25  29
ATOM     27 CL   UNL     1      30.819  -9.540 -19.131  0.00  0.00    -0.075 Cl
ATOM     28  S   UNL     1      32.295  -9.902 -21.683  0.00  0.00    -0.071 S 
ATOM     29  C   UNL     1      32.469 -11.442 -22.344  0.00  0.00    +0.084 C 
ATOM     30  C   UNL     1      31.908 -12.442 -21.647  0.00  0.00    +0.012 C 
ATOM     31  C   UNL     1      31.281 -11.931 -20.474  0.00  0.00    +0.019 C 
ATOM     32  C   UNL     1      31.415 -10.563 -20.370  0.00  0.00    +0.087 C 
ENDBRANCH  25  29
ENDBRANCH  19  24
ENDBRANCH   2  18
TORSDOF 5
ENDMDL
MODEL 4
REMARK VINA RESULT:      -9.9      7.061     12.155
REMARK  Name = 9954980
REMARK  5 active torsions:
REMARK  status: ('A' for Active; 'I' for Inactive)
REMARK    1  A    between atoms: N_2  and  C_18
REMARK    2  A    between atoms: C_3  and  C_5
REMARK    3  A    between atoms: C_10  and  N_12
REMARK    4  A    between atoms: C_19  and  N_24
REMARK    5  A    between atoms: C_25  and  C_29
REMARK                            x       y       z     vdW  Elec       q    Type
REMARK                         _______ _______ _______ _____ _____    ______ ____
ROOT
ATOM      1  O   UNL     1      32.946 -24.324 -17.188  0.00  0.00    -0.270 OA
ATOM      2  N   UNL     1      31.604 -22.564 -16.497  0.00  0.00    -0.301 N 
ATOM      3  C   UNL     1      32.571 -23.160 -17.292  0.00  0.00    +0.246 C 
ATOM      4  H   UNL     1      31.371 -21.622 -16.659  0.00  0.00    +0.150 HD
ENDROOT
BRANCH   3   5
ATOM      5  C   UNL     1      33.194 -22.284 -18.319  0.00  0.00    +0.053 C 
ATOM      6  C   UNL     1      34.544 -22.412 -18.572  0.00  0.00    +0.006 C 
ATOM      7  C   UNL     1      32.402 -21.373 -18.986  0.00  0.00    +0.006 C 
ATOM      8  C   UNL     1      35.129 -21.589 -19.535  0.00  0.00    +0.015 C 
ATOM      9  C   UNL     1      32.987 -20.551 -19.950  0.00  0.00    +0.015 C 
ATOM     10  C   UNL     1      34.351 -20.659 -20.224  0.00  0.00    +0.058 C 
BRANCH  10  12
ATOM     11  O   UNL     1      36.917 -19.350 -19.971  0.00  0.00    -0.269 OA
ATOM     12  N   UNL     1      34.958 -19.805 -21.226  0.00  0.00    -0.233 N 
ATOM     13  C   UNL     1      36.244 -19.252 -20.998  0.00  0.00    +0.257 C 
ATOM     14  C   UNL     1      34.276 -19.502 -22.407  0.00  0.00    +0.072 C 
ATOM     15  C   UNL     1      36.817 -18.421 -22.101  0.00  0.00    +0.059 C 
ATOM     16  C   UNL     1      34.796 -18.729 -23.365  0.00  0.00    +0.017 C 
ATOM     17  C   UNL     1      36.109 -18.179 -23.207  0.00  0.00    +0.006 C 
ENDBRANCH  10  12
ENDBRANCH   3   5
BRANCH   2  18
ATOM     18  C   UNL     1      30.930 -23.272 -15.445  0.00  0.00    +0.090 C 
ATOM     19  C   UNL     1      31.766 -23.456 -14.176  0.00  0.00    +0.090 C 
ATOM     20  C   UNL     1      30.524 -24.692 -15.839  0.00  0.00    +0.021 C 
ATOM     21  C   UNL     1      30.991 -24.543 -13.439  0.00  0.00    +0.021 C 
ATOM     22  C   UNL     1      30.502 -25.491 -14.534  0.00  0.00    +0.003 C 
BRANCH  19  24
ATOM     23  O   UNL     1      33.933 -23.587 -12.290  0.00  0.00    -0.270 OA
ATOM     24  N   UNL     1      33.120 -23.876 -14.444  0.00  0.00    -0.300 N 
ATOM     25  C   UNL     1      34.107 -23.907 -13.463  0.00  0.00    +0.252 C 
ATOM     26  H   UNL     1      33.357 -24.151 -15.359  0.00  0.00    +0.150 HD
BRANCH  25  29
ATOM     27 CL   UNL     1      39.273 -25.725 -13.473  0.00  0.00    -0.075 Cl
ATOM     28  S   UNL     1      36.542 -24.837 -12.716  0.00  0.00    -0.071 S 
ATOM     29  C   UNL     1      35.458 -24.338 -13.906  0.00  0.00    +0.084 C 
ATOM     30  C   UNL     1      35.918 -24.376 -15.165  0.00  0.00    +0.012 C 
ATOM     31  C   UNL     1      37.263 -24.847 -15.182  0.00  0.00    +0.019 C 
ATOM     32  C   UNL     1      37.726 -25.135 -13.917  0.00  0.00    +0.087 C 
ENDBRANCH  25  29
ENDBRANCH  19  24
ENDBRANCH   2  18
TORSDOF 5
ENDMDL
MODEL 5
REMARK VINA RESULT:      -9.8      5.430     11.137
REMARK  Name = 9954980
REMARK  5 active torsions:
REMARK  status: ('A' for Active; 'I' for Inactive)
REMARK    1  A    between atoms: N_2  and  C_18
REMARK    2  A    between atoms: C_3  and  C_5
REMARK    3  A    between atoms: C_10  and  N_12
REMARK    4  A    between atoms: C_19  and  N_24
REMARK    5  A    between atoms: C_25  and  C_29
REMARK                            x       y       z     vdW  Elec       q    Type
REMARK                         _______ _______ _______ _____ _____    ______ ____
ROOT
ATOM      1  O   UNL     1      37.606 -22.215 -17.257  0.00  0.00    -0.270 OA
ATOM      2  N   UNL     1      35.364 -22.711 -16.937  0.00  0.00    -0.301 N 
ATOM      3  C   UNL     1      36.430 -22.117 -17.595  0.00  0.00    +0.246 C 
ATOM      4  H   UNL     1      34.454 -22.573 -17.287  0.00  0.00    +0.150 HD
ENDROOT
BRANCH   3   5
ATOM      5  C   UNL     1      36.081 -21.289 -18.778  0.00  0.00    +0.053 C 
ATOM      6  C   UNL     1      34.777 -21.290 -19.230  0.00  0.00    +0.006 C 
ATOM      7  C   UNL     1      37.071 -20.546 -19.387  0.00  0.00    +0.006 C 
ATOM      8  C   UNL     1      34.449 -20.514 -20.342  0.00  0.00    +0.015 C 
ATOM      9  C   UNL     1      36.742 -19.769 -20.498  0.00  0.00    +0.015 C 
ATOM     10  C   UNL     1      35.432 -19.753 -20.976  0.00  0.00    +0.058 C 
BRANCH  10  12
ATOM     11  O   UNL     1      35.026 -16.889 -20.952  0.00  0.00    -0.269 OA
ATOM     12  N   UNL     1      35.091 -18.945 -22.131  0.00  0.00    -0.233 N 
ATOM     13  C   UNL     1      34.959 -17.539 -21.996  0.00  0.00    +0.257 C 
ATOM     14  C   UNL     1      34.871 -19.543 -23.373  0.00  0.00    +0.072 C 
ATOM     15  C   UNL     1      34.653 -16.776 -23.245  0.00  0.00    +0.059 C 
ATOM     16  C   UNL     1      34.565 -18.842 -24.469  0.00  0.00    +0.017 C 
ATOM     17  C   UNL     1      34.460 -17.415 -24.401  0.00  0.00    +0.006 C 
ENDBRANCH  10  12
ENDBRANCH   3   5
BRANCH   2  18
ATOM     18  C   UNL     1      35.537 -23.519 -15.764  0.00  0.00    +0.090 C 
ATOM     19  C   UNL     1      34.353 -24.440 -15.455  0.00  0.00    +0.090 C 
ATOM     20  C   UNL     1      35.717 -22.697 -14.487  0.00  0.00    +0.021 C 
ATOM     21  C   UNL     1      34.627 -24.838 -14.008  0.00  0.00    +0.021 C 
ATOM     22  C   UNL     1      35.190 -23.577 -13.352  0.00  0.00    +0.003 C 
BRANCH  19  24
ATOM     23  O   UNL     1      31.839 -25.351 -14.398  0.00  0.00    -0.270 OA
ATOM     24  N   UNL     1      33.075 -23.783 -15.579  0.00  0.00    -0.300 N 
ATOM     25  C   UNL     1      31.905 -24.301 -15.032  0.00  0.00    +0.252 C 
ATOM     26  H   UNL     1      33.027 -22.932 -16.072  0.00  0.00    +0.150 HD
BRANCH  25  29
ATOM     27 CL   UNL     1      27.324 -22.316 -17.282  0.00  0.00    -0.075 Cl
ATOM     28  S   UNL     1      29.818 -23.818 -16.693  0.00  0.00    -0.071 S 
ATOM     29  C   UNL     1      30.666 -23.517 -15.269  0.00  0.00    +0.084 C 
ATOM     30  C   UNL     1      30.139 -22.581 -14.464  0.00  0.00    +0.012 C 
ATOM     31  C   UNL     1      28.946 -22.055 -15.039  0.00  0.00    +0.019 C 
ATOM     32  C   UNL     1      28.655 -22.640 -16.252  0.00  0.00    +0.087 C 
ENDBRANCH  25  29
ENDBRANCH  19  24
ENDBRANCH   2  18
TORSDOF 5
ENDMDL
MODEL 6
REMARK VINA RESULT:      -8.8      2.641      4.322
REMARK  Name = 9954980
REMARK  5 active torsions:
REMARK  status: ('A' for Active; 'I' for Inactive)
REMARK    1  A    between atoms: N_2  and  C_18
REMARK    2  A    between atoms: C_3  and  C_5
REMARK    3  A    between atoms: C_10  and  N_12
REMARK    4  A    between atoms: C_19  and  N_24
REMARK    5  A    between atoms: C_25  and  C_29
REMARK                            x       y       z     vdW  Elec       q    Type
REMARK                         _______ _______ _______ _____ _____    ______ ____
ROOT
ATOM      1  O   UNL     1      36.457 -18.987 -21.858  0.00  0.00    -0.270 OA
ATOM      2  N   UNL     1      34.462 -19.446 -22.947  0.00  0.00    -0.301 N 
ATOM      3  C   UNL     1      35.350 -19.517 -21.885  0.00  0.00    +0.246 C 
ATOM      4  H   UNL     1      33.595 -19.907 -22.872  0.00  0.00    +0.150 HD
ENDROOT
BRANCH   3   5
ATOM      5  C   UNL     1      34.903 -20.324 -20.719  0.00  0.00    +0.053 C 
ATOM      6  C   UNL     1      33.551 -20.452 -20.478  0.00  0.00    +0.006 C 
ATOM      7  C   UNL     1      35.854 -20.919 -19.917  0.00  0.00    +0.006 C 
ATOM      8  C   UNL     1      33.131 -21.208 -19.383  0.00  0.00    +0.015 C 
ATOM      9  C   UNL     1      35.434 -21.675 -18.823  0.00  0.00    +0.015 C 
ATOM     10  C   UNL     1      34.072 -21.820 -18.556  0.00  0.00    +0.058 C 
BRANCH  10  12
ATOM     11  O   UNL     1      35.821 -23.100 -16.641  0.00  0.00    -0.269 OA
ATOM     12  N   UNL     1      33.636 -22.607 -17.419  0.00  0.00    -0.233 N 
ATOM     13  C   UNL     1      34.595 -23.151 -16.526  0.00  0.00    +0.257 C 
ATOM     14  C   UNL     1      32.278 -22.853 -17.206  0.00  0.00    +0.072 C 
ATOM     15  C   UNL     1      34.060 -23.909 -15.354  0.00  0.00    +0.059 C 
ATOM     16  C   UNL     1      31.826 -23.563 -16.168  0.00  0.00    +0.017 C 
ATOM     17  C   UNL     1      32.746 -24.100 -15.211  0.00  0.00    +0.006 C 
ENDBRANCH  10  12
ENDBRANCH   3   5
BRANCH   2  18
ATOM     18  C   UNL     1      34.759 -18.727 -24.153  0.00  0.00    +0.090 C 
ATOM     19  C   UNL     1      35.253 -17.295 -23.924  0.00  0.00    +0.090 C 
ATOM     20  C   UNL     1      33.549 -18.566 -25.072  0.00  0.00    +0.021 C 
ATOM     21  C   UNL     1      35.091 -16.677 -25.309  0.00  0.00    +0.021 C 
ATOM     22  C   UNL     1      33.798 -17.279 -25.862  0.00  0.00    +0.003 C 
BRANCH  19  24
ATOM     23  O   UNL     1      34.647 -14.484 -23.929  0.00  0.00    -0.270 OA
ATOM     24  N   UNL     1      34.477 -16.577 -22.942  0.00  0.00    -0.300 N 
ATOM     25  C   UNL     1      34.234 -15.209 -23.027  0.00  0.00    +0.252 C 
ATOM     26  H   UNL     1      34.103 -17.075 -22.179  0.00  0.00    +0.150 HD
BRANCH  25  29
ATOM     27 CL   UNL     1      31.230 -11.759 -20.018  0.00  0.00    -0.075 Cl
ATOM     28  S   UNL     1      32.836 -13.058 -22.152  0.00  0.00    -0.071 S 
ATOM     29  C   UNL     1      33.439 -14.614 -21.923  0.00  0.00    +0.084 C 
ATOM     30  C   UNL     1      33.143 -15.186 -20.746  0.00  0.00    +0.012 C 
ATOM     31  C   UNL     1      32.361 -14.298 -19.952  0.00  0.00    +0.019 C 
ATOM     32  C   UNL     1      32.121 -13.104 -20.596  0.00  0.00    +0.087 C 
ENDBRANCH  25  29
ENDBRANCH  19  24
ENDBRANCH   2  18
TORSDOF 5
ENDMDL
MODEL 7
REMARK VINA RESULT:      -8.8      5.075      8.322
REMARK  Name = 9954980
REMARK  5 active torsions:
REMARK  status: ('A' for Active; 'I' for Inactive)
REMARK    1  A    between atoms: N_2  and  C_18
REMARK    2  A    between atoms: C_3  and  C_5
REMARK    3  A    between atoms: C_10  and  N_12
REMARK    4  A    between atoms: C_19  and  N_24
REMARK    5  A    between atoms: C_25  and  C_29
REMARK                            x       y       z     vdW  Elec       q    Type
REMARK                         _______ _______ _______ _____ _____    ______ ____
ROOT
ATOM      1  O   UNL     1      31.567  -9.306 -20.587  0.00  0.00    -0.270 OA
ATOM      2  N   UNL     1      31.475  -8.316 -22.681  0.00  0.00    -0.301 N 
ATOM      3  C   UNL     1      31.710  -9.364 -21.804  0.00  0.00    +0.246 C 
ATOM      4  H   UNL     1      31.620  -8.462 -23.644  0.00  0.00    +0.150 HD
ENDROOT
BRANCH   3   5
ATOM      5  C   UNL     1      32.196 -10.627 -22.419  0.00  0.00    +0.053 C 
ATOM      6  C   UNL     1      31.713 -11.827 -21.942  0.00  0.00    +0.006 C 
ATOM      7  C   UNL     1      33.113 -10.557 -23.447  0.00  0.00    +0.006 C 
ATOM      8  C   UNL     1      32.170 -13.013 -22.518  0.00  0.00    +0.015 C 
ATOM      9  C   UNL     1      33.568 -11.743 -24.024  0.00  0.00    +0.015 C 
ATOM     10  C   UNL     1      33.097 -12.971 -23.559  0.00  0.00    +0.058 C 
BRANCH  10  12
ATOM     11  O   UNL     1      34.985 -14.799 -22.353  0.00  0.00    -0.269 OA
ATOM     12  N   UNL     1      33.571 -14.203 -24.159  0.00  0.00    -0.233 N 
ATOM     13  C   UNL     1      34.470 -15.036 -23.446  0.00  0.00    +0.257 C 
ATOM     14  C   UNL     1      33.167 -14.566 -25.446  0.00  0.00    +0.072 C 
ATOM     15  C   UNL     1      34.872 -16.311 -24.117  0.00  0.00    +0.059 C 
ATOM     16  C   UNL     1      33.567 -15.695 -26.039  0.00  0.00    +0.017 C 
ATOM     17  C   UNL     1      34.441 -16.595 -25.349  0.00  0.00    +0.006 C 
ENDBRANCH  10  12
ENDBRANCH   3   5
BRANCH   2  18
ATOM     18  C   UNL     1      31.028  -7.026 -22.238  0.00  0.00    +0.090 C 
ATOM     19  C   UNL     1      30.919  -5.982 -23.352  0.00  0.00    +0.090 C 
ATOM     20  C   UNL     1      31.962  -6.386 -21.211  0.00  0.00    +0.021 C 
ATOM     21  C   UNL     1      30.837  -4.680 -22.562  0.00  0.00    +0.021 C 
ATOM     22  C   UNL     1      31.787  -4.875 -21.379  0.00  0.00    +0.003 C 
BRANCH  19  24
ATOM     23  O   UNL     1      31.445  -4.109 -25.470  0.00  0.00    -0.270 OA
ATOM     24  N   UNL     1      32.056  -5.978 -24.240  0.00  0.00    -0.300 N 
ATOM     25  C   UNL     1      32.228  -5.027 -25.242  0.00  0.00    +0.252 C 
ATOM     26  H   UNL     1      32.740  -6.679 -24.134  0.00  0.00    +0.150 HD
BRANCH  25  29
ATOM     27 CL   UNL     1      35.838  -4.556 -29.332  0.00  0.00    -0.075 Cl
ATOM     28  S   UNL     1      33.472  -4.340 -27.550  0.00  0.00    -0.071 S 
ATOM     29  C   UNL     1      33.439  -5.177 -26.089  0.00  0.00    +0.084 C 
ATOM     30  C   UNL     1      34.525  -5.916 -25.816  0.00  0.00    +0.012 C 
ATOM     31  C   UNL     1      35.473  -5.803 -26.873  0.00  0.00    +0.019 C 
ATOM     32  C   UNL     1      35.028  -4.975 -27.881  0.00  0.00    +0.087 C 
ENDBRANCH  25  29
ENDBRANCH  19  24
ENDBRANCH   2  18
TORSDOF 5
ENDMDL
MODEL 8
REMARK VINA RESULT:      -8.6      4.495      7.736
REMARK  Name = 9954980
REMARK  5 active torsions:
REMARK  status: ('A' for Active; 'I' for Inactive)
REMARK    1  A    between atoms: N_2  and  C_18
REMARK    2  A    between atoms: C_3  and  C_5
REMARK    3  A    between atoms: C_10  and  N_12
REMARK    4  A    between atoms: C_19  and  N_24
REMARK    5  A    between atoms: C_25  and  C_29
REMARK                            x       y       z     vdW  Elec       q    Type
REMARK                         _______ _______ _______ _____ _____    ______ ____
ROOT
ATOM      1  O   UNL     1      30.749 -10.596 -20.277  0.00  0.00    -0.270 OA
ATOM      2  N   UNL     1      31.959  -9.176 -21.653  0.00  0.00    -0.301 N 
ATOM      3  C   UNL     1      31.534 -10.416 -21.203  0.00  0.00    +0.246 C 
ATOM      4  H   UNL     1      32.593  -9.135 -22.404  0.00  0.00    +0.150 HD
ENDROOT
BRANCH   3   5
ATOM      5  C   UNL     1      32.114 -11.592 -21.903  0.00  0.00    +0.053 C 
ATOM      6  C   UNL     1      31.909 -12.849 -21.374  0.00  0.00    +0.006 C 
ATOM      7  C   UNL     1      32.838 -11.388 -23.059  0.00  0.00    +0.006 C 
ATOM      8  C   UNL     1      32.455 -13.953 -22.030  0.00  0.00    +0.015 C 
ATOM      9  C   UNL     1      33.383 -12.492 -23.715  0.00  0.00    +0.015 C 
ATOM     10  C   UNL     1      33.191 -13.775 -23.201  0.00  0.00    +0.058 C 
BRANCH  10  12
ATOM     11  O   UNL     1      32.562 -14.589 -25.903  0.00  0.00    -0.269 OA
ATOM     12  N   UNL     1      33.757 -14.922 -23.884  0.00  0.00    -0.233 N 
ATOM     13  C   UNL     1      33.396 -15.193 -25.228  0.00  0.00    +0.257 C 
ATOM     14  C   UNL     1      34.640 -15.777 -23.220  0.00  0.00    +0.072 C 
ATOM     15  C   UNL     1      34.062 -16.367 -25.873  0.00  0.00    +0.059 C 
ATOM     16  C   UNL     1      35.197 -16.840 -23.808  0.00  0.00    +0.017 C 
ATOM     17  C   UNL     1      34.902 -17.138 -25.177  0.00  0.00    +0.006 C 
ENDBRANCH  10  12
ENDBRANCH   3   5
BRANCH   2  18
ATOM     18  C   UNL     1      31.509  -7.947 -21.062  0.00  0.00    +0.090 C 
ATOM     19  C   UNL     1      31.206  -6.838 -22.073  0.00  0.00    +0.090 C 
ATOM     20  C   UNL     1      32.535  -7.323 -20.115  0.00  0.00    +0.021 C 
ATOM     21  C   UNL     1      31.161  -5.599 -21.185  0.00  0.00    +0.021 C 
ATOM     22  C   UNL     1      32.264  -5.817 -20.148  0.00  0.00    +0.003 C 
BRANCH  19  24
ATOM     23  O   UNL     1      31.235  -4.944 -24.237  0.00  0.00    -0.270 OA
ATOM     24  N   UNL     1      32.217  -6.708 -23.094  0.00  0.00    -0.300 N 
ATOM     25  C   UNL     1      32.147  -5.756 -24.107  0.00  0.00    +0.252 C 
ATOM     26  H   UNL     1      32.990  -7.318 -23.074  0.00  0.00    +0.150 HD
BRANCH  25  29
ATOM     27 CL   UNL     1      35.278  -4.663 -28.465  0.00  0.00    -0.075 Cl
ATOM     28  S   UNL     1      33.127  -4.732 -26.419  0.00  0.00    -0.071 S 
ATOM     29  C   UNL     1      33.256  -5.768 -25.097  0.00  0.00    +0.084 C 
ATOM     30  C   UNL     1      34.364  -6.524 -25.054  0.00  0.00    +0.012 C 
ATOM     31  C   UNL     1      35.188  -6.250 -26.183  0.00  0.00    +0.019 C 
ATOM     32  C   UNL     1      34.634  -5.294 -27.007  0.00  0.00    +0.087 C 
ENDBRANCH  25  29
ENDBRANCH  19  24
ENDBRANCH   2  18
TORSDOF 5
ENDMDL
MODEL 9
REMARK VINA RESULT:      -8.6      2.698      4.364
REMARK  Name = 9954980
REMARK  5 active torsions:
REMARK  status: ('A' for Active; 'I' for Inactive)
REMARK    1  A    between atoms: N_2  and  C_18
REMARK    2  A    between atoms: C_3  and  C_5
REMARK    3  A    between atoms: C_10  and  N_12
REMARK    4  A    between atoms: C_19  and  N_24
REMARK    5  A    between atoms: C_25  and  C_29
REMARK                            x       y       z     vdW  Elec       q    Type
REMARK                         _______ _______ _______ _____ _____    ______ ____
ROOT
ATOM      1  O   UNL     1      36.579 -19.150 -21.715  0.00  0.00    -0.270 OA
ATOM      2  N   UNL     1      34.584 -19.655 -22.781  0.00  0.00    -0.301 N 
ATOM      3  C   UNL     1      35.478 -19.692 -21.723  0.00  0.00    +0.246 C 
ATOM      4  H   UNL     1      33.723 -20.124 -22.692  0.00  0.00    +0.150 HD
ENDROOT
BRANCH   3   5
ATOM      5  C   UNL     1      35.047 -20.478 -20.537  0.00  0.00    +0.053 C 
ATOM      6  C   UNL     1      36.008 -21.077 -19.750  0.00  0.00    +0.006 C 
ATOM      7  C   UNL     1      33.699 -20.583 -20.263  0.00  0.00    +0.006 C 
ATOM      8  C   UNL     1      35.602 -21.816 -18.638  0.00  0.00    +0.015 C 
ATOM      9  C   UNL     1      33.294 -21.321 -19.151  0.00  0.00    +0.015 C 
ATOM     10  C   UNL     1      34.246 -21.937 -18.338  0.00  0.00    +0.058 C 
BRANCH  10  12
ATOM     11  O   UNL     1      31.505 -22.548 -17.647  0.00  0.00    -0.269 OA
ATOM     12  N   UNL     1      33.824 -22.704 -17.182  0.00  0.00    -0.233 N 
ATOM     13  C   UNL     1      32.446 -22.970 -16.975  0.00  0.00    +0.257 C 
ATOM     14  C   UNL     1      34.763 -23.165 -16.256  0.00  0.00    +0.072 C 
ATOM     15  C   UNL     1      32.101 -23.808 -15.784  0.00  0.00    +0.059 C 
ATOM     16  C   UNL     1      34.426 -23.884 -15.181  0.00  0.00    +0.017 C 
ATOM     17  C   UNL     1      33.054 -24.219 -14.944  0.00  0.00    +0.006 C 
ENDBRANCH  10  12
ENDBRANCH   3   5
BRANCH   2  18
ATOM     18  C   UNL     1      34.867 -18.959 -24.005  0.00  0.00    +0.090 C 
ATOM     19  C   UNL     1      35.320 -17.509 -23.812  0.00  0.00    +0.090 C 
ATOM     20  C   UNL     1      33.657 -18.856 -24.933  0.00  0.00    +0.021 C 
ATOM     21  C   UNL     1      35.148 -16.932 -25.213  0.00  0.00    +0.021 C 
ATOM     22  C   UNL     1      33.874 -17.584 -25.755  0.00  0.00    +0.003 C 
BRANCH  19  24
ATOM     23  O   UNL     1      34.894 -14.667 -23.716  0.00  0.00    -0.270 OA
ATOM     24  N   UNL     1      34.520 -16.787 -22.852  0.00  0.00    -0.300 N 
ATOM     25  C   UNL     1      34.371 -15.404 -22.884  0.00  0.00    +0.252 C 
ATOM     26  H   UNL     1      34.060 -17.294 -22.144  0.00  0.00    +0.150 HD
BRANCH  25  29
ATOM     27 CL   UNL     1      31.365 -11.909 -19.929  0.00  0.00    -0.075 Cl
ATOM     28  S   UNL     1      33.040 -13.211 -22.007  0.00  0.00    -0.071 S 
ATOM     29  C   UNL     1      33.535 -14.809 -21.810  0.00  0.00    +0.084 C 
ATOM     30  C   UNL     1      33.124 -15.412 -20.683  0.00  0.00    +0.012 C 
ATOM     31  C   UNL     1      32.341 -14.512 -19.904  0.00  0.00    +0.019 C 
ATOM     32  C   UNL     1      32.215 -13.280 -20.507  0.00  0.00    +0.087 C 
ENDBRANCH  25  29
ENDBRANCH  19  24
ENDBRANCH   2  18
TORSDOF 5
ENDMDL
