MODEL 1
REMARK VINA RESULT:      -7.1      0.000      0.000
REMARK  Name = 2576
REMARK  9 active torsions:
REMARK  status: ('A' for Active; 'I' for Inactive)
REMARK    1  A    between atoms: C_1  and  C_3
REMARK    2  A    between atoms: C_1  and  C_6
REMARK    3  A    between atoms: C_1  and  C_15
REMARK    4  A    between atoms: C_3  and  C_4
REMARK    5  A    between atoms: C_6  and  O_7
REMARK    6  A    between atoms: O_7  and  C_10
REMARK    7  A    between atoms: N_9  and  C_12
REMARK    8  A    between atoms: C_15  and  O_16
REMARK    9  A    between atoms: O_16  and  C_19
REMARK                            x       y       z     vdW  Elec       q    Type
REMARK                         _______ _______ _______ _____ _____    ______ ____
ROOT
ATOM      1  C   UNL     1      33.875 -15.429 -21.619  0.00  0.00    +0.081 C 
ATOM      2  C   UNL     1      34.732 -14.741 -20.538  0.00  0.00    +0.007 C 
ENDROOT
BRANCH   1   3
ATOM      3  C   UNL     1      32.447 -14.810 -21.665  0.00  0.00    +0.007 C 
BRANCH   3   4
ATOM      4  C   UNL     1      32.314 -13.405 -21.064  0.00  0.00    +0.000 C 
ATOM      5  C   UNL     1      31.985 -12.376 -22.138  0.00  0.00    +0.000 C 
ENDBRANCH   3   4
ENDBRANCH   1   3
BRANCH   1   6
ATOM      6  C   UNL     1      33.834 -16.946 -21.315  0.00  0.00    +0.213 C 
BRANCH   6   7
ATOM      7  O   UNL     1      35.055 -17.585 -21.663  0.00  0.00    -0.435 OA
BRANCH   7  10
ATOM      8  O   UNL     1      34.861 -19.583 -22.778  0.00  0.00    -0.226 OA
ATOM      9  N   UNL     1      35.204 -19.501 -20.485  0.00  0.00    -0.272 N 
ATOM     10  C   UNL     1      35.025 -18.954 -21.738  0.00  0.00    +0.402 C 
ATOM     11  H   UNL     1      35.326 -18.889 -19.724  0.00  0.00    +0.153 HD
BRANCH   9  12
ATOM     12  C   UNL     1      35.223 -20.923 -20.226  0.00  0.00    +0.075 C 
ATOM     13  C   UNL     1      33.902 -21.366 -19.613  0.00  0.00    +0.021 C 
ATOM     14  C   UNL     1      36.399 -21.286 -19.328  0.00  0.00    +0.021 C 
ENDBRANCH   9  12
ENDBRANCH   7  10
ENDBRANCH   6   7
ENDBRANCH   1   6
BRANCH   1  15
ATOM     15  C   UNL     1      34.566 -15.181 -22.986  0.00  0.00    +0.213 C 
BRANCH  15  16
ATOM     16  O   UNL     1      33.679 -15.398 -24.076  0.00  0.00    -0.435 OA
BRANCH  16  19
ATOM     17  O   UNL     1      33.718 -16.172 -26.243  0.00  0.00    -0.227 OA
ATOM     18  N   UNL     1      35.197 -16.960 -24.668  0.00  0.00    -0.295 N 
ATOM     19  C   UNL     1      34.156 -16.174 -25.097  0.00  0.00    +0.398 C 
ATOM     20  H   UNL     1      35.497 -16.909 -23.732  0.00  0.00    +0.148 HD
ATOM     21  H   UNL     1      35.642 -17.574 -25.296  0.00  0.00    +0.148 HD
ENDBRANCH  16  19
ENDBRANCH  15  16
ENDBRANCH   1  15
TORSDOF 9
ENDMDL
MODEL 2
REMARK VINA RESULT:      -6.9      2.283      6.369
REMARK  Name = 2576
REMARK  9 active torsions:
REMARK  status: ('A' for Active; 'I' for Inactive)
REMARK    1  A    between atoms: C_1  and  C_3
REMARK    2  A    between atoms: C_1  and  C_6
REMARK    3  A    between atoms: C_1  and  C_15
REMARK    4  A    between atoms: C_3  and  C_4
REMARK    5  A    between atoms: C_6  and  O_7
REMARK    6  A    between atoms: O_7  and  C_10
REMARK    7  A    between atoms: N_9  and  C_12
REMARK    8  A    between atoms: C_15  and  O_16
REMARK    9  A    between atoms: O_16  and  C_19
REMARK                            x       y       z     vdW  Elec       q    Type
REMARK                         _______ _______ _______ _____ _____    ______ ____
ROOT
ATOM      1  C   UNL     1      35.368 -18.595 -21.647  0.00  0.00    +0.081 C 
ATOM      2  C   UNL     1      36.561 -19.088 -20.806  0.00  0.00    +0.007 C 
ENDROOT
BRANCH   1   3
ATOM      3  C   UNL     1      35.745 -18.537 -23.157  0.00  0.00    +0.007 C 
BRANCH   3   4
ATOM      4  C   UNL     1      34.679 -19.062 -24.127  0.00  0.00    +0.000 C 
ATOM      5  C   UNL     1      34.335 -18.020 -25.183  0.00  0.00    +0.000 C 
ENDBRANCH   3   4
ENDBRANCH   1   3
BRANCH   1   6
ATOM      6  C   UNL     1      34.933 -17.210 -21.111  0.00  0.00    +0.213 C 
BRANCH   6   7
ATOM      7  O   UNL     1      35.124 -16.188 -22.079  0.00  0.00    -0.435 OA
BRANCH   7  10
ATOM      8  O   UNL     1      32.995 -15.397 -21.739  0.00  0.00    -0.226 OA
ATOM      9  N   UNL     1      34.217 -14.821 -23.626  0.00  0.00    -0.272 N 
ATOM     10  C   UNL     1      34.013 -15.459 -22.421  0.00  0.00    +0.402 C 
ATOM     11  H   UNL     1      35.081 -14.949 -24.079  0.00  0.00    +0.153 HD
BRANCH   9  12
ATOM     12  C   UNL     1      33.233 -13.973 -24.260  0.00  0.00    +0.075 C 
ATOM     13  C   UNL     1      32.974 -14.440 -25.686  0.00  0.00    +0.021 C 
ATOM     14  C   UNL     1      33.684 -12.518 -24.229  0.00  0.00    +0.021 C 
ENDBRANCH   9  12
ENDBRANCH   7  10
ENDBRANCH   6   7
ENDBRANCH   1   6
BRANCH   1  15
ATOM     15  C   UNL     1      34.216 -19.620 -21.464  0.00  0.00    +0.213 C 
BRANCH  15  16
ATOM     16  O   UNL     1      34.515 -20.579 -20.458  0.00  0.00    -0.435 OA
BRANCH  16  19
ATOM     17  O   UNL     1      32.404 -20.538 -19.542  0.00  0.00    -0.227 OA
ATOM     18  N   UNL     1      33.680 -22.452 -19.514  0.00  0.00    -0.295 N 
ATOM     19  C   UNL     1      33.442 -21.133 -19.815  0.00  0.00    +0.398 C 
ATOM     20  H   UNL     1      34.537 -22.865 -19.765  0.00  0.00    +0.148 HD
ATOM     21  H   UNL     1      32.994 -22.982 -19.049  0.00  0.00    +0.148 HD
ENDBRANCH  16  19
ENDBRANCH  15  16
ENDBRANCH   1  15
TORSDOF 9
ENDMDL
MODEL 3
REMARK VINA RESULT:      -6.8      1.884      5.819
REMARK  Name = 2576
REMARK  9 active torsions:
REMARK  status: ('A' for Active; 'I' for Inactive)
REMARK    1  A    between atoms: C_1  and  C_3
REMARK    2  A    between atoms: C_1  and  C_6
REMARK    3  A    between atoms: C_1  and  C_15
REMARK    4  A    between atoms: C_3  and  C_4
REMARK    5  A    between atoms: C_6  and  O_7
REMARK    6  A    between atoms: O_7  and  C_10
REMARK    7  A    between atoms: N_9  and  C_12
REMARK    8  A    between atoms: C_15  and  O_16
REMARK    9  A    between atoms: O_16  and  C_19
REMARK                            x       y       z     vdW  Elec       q    Type
REMARK                         _______ _______ _______ _____ _____    ______ ____
ROOT
ATOM      1  C   UNL     1      34.792 -19.195 -21.404  0.00  0.00    +0.081 C 
ATOM      2  C   UNL     1      33.373 -19.527 -20.904  0.00  0.00    +0.007 C 
ENDROOT
BRANCH   1   3
ATOM      3  C   UNL     1      35.839 -20.157 -20.769  0.00  0.00    +0.007 C 
BRANCH   3   4
ATOM      4  C   UNL     1      35.274 -21.203 -19.800  0.00  0.00    +0.000 C 
ATOM      5  C   UNL     1      36.297 -21.574 -18.734  0.00  0.00    +0.000 C 
ENDBRANCH   3   4
ENDBRANCH   1   3
BRANCH   1   6
ATOM      6  C   UNL     1      35.093 -17.715 -21.065  0.00  0.00    +0.213 C 
BRANCH   6   7
ATOM      7  O   UNL     1      33.908 -16.931 -21.033  0.00  0.00    -0.435 OA
BRANCH   7  10
ATOM      8  O   UNL     1      34.828 -14.914 -20.436  0.00  0.00    -0.226 OA
ATOM      9  N   UNL     1      33.273 -15.078 -22.151  0.00  0.00    -0.272 N 
ATOM     10  C   UNL     1      34.073 -15.574 -21.142  0.00  0.00    +0.402 C 
ATOM     11  H   UNL     1      32.709 -15.712 -22.650  0.00  0.00    +0.153 HD
BRANCH   9  12
ATOM     12  C   UNL     1      33.219 -13.682 -22.517  0.00  0.00    +0.075 C 
ATOM     13  C   UNL     1      32.101 -12.980 -21.758  0.00  0.00    +0.021 C 
ATOM     14  C   UNL     1      33.044 -13.531 -24.023  0.00  0.00    +0.021 C 
ENDBRANCH   9  12
ENDBRANCH   7  10
ENDBRANCH   6   7
ENDBRANCH   1   6
BRANCH   1  15
ATOM     15  C   UNL     1      34.801 -19.398 -22.943  0.00  0.00    +0.213 C 
BRANCH  15  16
ATOM     16  O   UNL     1      35.517 -18.366 -23.609  0.00  0.00    -0.435 OA
BRANCH  16  19
ATOM     17  O   UNL     1      34.043 -18.275 -25.374  0.00  0.00    -0.227 OA
ATOM     18  N   UNL     1      35.232 -16.420 -24.716  0.00  0.00    -0.295 N 
ATOM     19  C   UNL     1      34.858 -17.738 -24.631  0.00  0.00    +0.398 C 
ATOM     20  H   UNL     1      35.893 -16.055 -24.084  0.00  0.00    +0.148 HD
ATOM     21  H   UNL     1      34.838 -15.840 -25.406  0.00  0.00    +0.148 HD
ENDBRANCH  16  19
ENDBRANCH  15  16
ENDBRANCH   1  15
TORSDOF 9
ENDMDL
MODEL 4
REMARK VINA RESULT:      -6.8      2.064      5.808
REMARK  Name = 2576
REMARK  9 active torsions:
REMARK  status: ('A' for Active; 'I' for Inactive)
REMARK    1  A    between atoms: C_1  and  C_3
REMARK    2  A    between atoms: C_1  and  C_6
REMARK    3  A    between atoms: C_1  and  C_15
REMARK    4  A    between atoms: C_3  and  C_4
REMARK    5  A    between atoms: C_6  and  O_7
REMARK    6  A    between atoms: O_7  and  C_10
REMARK    7  A    between atoms: N_9  and  C_12
REMARK    8  A    between atoms: C_15  and  O_16
REMARK    9  A    between atoms: O_16  and  C_19
REMARK                            x       y       z     vdW  Elec       q    Type
REMARK                         _______ _______ _______ _____ _____    ______ ____
ROOT
ATOM      1  C   UNL     1      35.345 -18.455 -21.750  0.00  0.00    +0.081 C 
ATOM      2  C   UNL     1      36.649 -18.968 -21.110  0.00  0.00    +0.007 C 
ENDROOT
BRANCH   1   3
ATOM      3  C   UNL     1      34.178 -19.456 -21.500  0.00  0.00    +0.007 C 
BRANCH   3   4
ATOM      4  C   UNL     1      34.389 -20.444 -20.346  0.00  0.00    +0.000 C 
ATOM      5  C   UNL     1      33.060 -20.875 -19.740  0.00  0.00    +0.000 C 
ENDBRANCH   3   4
ENDBRANCH   1   3
BRANCH   1   6
ATOM      6  C   UNL     1      35.598 -18.235 -23.261  0.00  0.00    +0.213 C 
BRANCH   6   7
ATOM      7  O   UNL     1      34.402 -17.901 -23.952  0.00  0.00    -0.435 OA
BRANCH   7  10
ATOM      8  O   UNL     1      35.051 -16.926 -25.927  0.00  0.00    -0.226 OA
ATOM      9  N   UNL     1      33.840 -15.751 -24.334  0.00  0.00    -0.272 N 
ATOM     10  C   UNL     1      34.484 -16.860 -24.841  0.00  0.00    +0.402 C 
ATOM     11  H   UNL     1      33.419 -15.824 -23.447  0.00  0.00    +0.153 HD
BRANCH   9  12
ATOM     12  C   UNL     1      33.747 -14.489 -25.032  0.00  0.00    +0.075 C 
ATOM     13  C   UNL     1      33.448 -13.364 -24.051  0.00  0.00    +0.021 C 
ATOM     14  C   UNL     1      32.690 -14.562 -26.127  0.00  0.00    +0.021 C 
ENDBRANCH   9  12
ENDBRANCH   7  10
ENDBRANCH   6   7
ENDBRANCH   1   6
BRANCH   1  15
ATOM     15  C   UNL     1      34.993 -17.105 -21.069  0.00  0.00    +0.213 C 
BRANCH  15  16
ATOM     16  O   UNL     1      33.596 -16.844 -21.100  0.00  0.00    -0.435 OA
BRANCH  16  19
ATOM     17  O   UNL     1      32.142 -15.107 -21.506  0.00  0.00    -0.227 OA
ATOM     18  N   UNL     1      34.245 -14.727 -20.657  0.00  0.00    -0.295 N 
ATOM     19  C   UNL     1      33.229 -15.525 -21.123  0.00  0.00    +0.398 C 
ATOM     20  H   UNL     1      35.093 -15.132 -20.364  0.00  0.00    +0.148 HD
ATOM     21  H   UNL     1      34.124 -13.752 -20.615  0.00  0.00    +0.148 HD
ENDBRANCH  16  19
ENDBRANCH  15  16
ENDBRANCH   1  15
TORSDOF 9
ENDMDL
MODEL 5
REMARK VINA RESULT:      -6.8      6.594      9.967
REMARK  Name = 2576
REMARK  9 active torsions:
REMARK  status: ('A' for Active; 'I' for Inactive)
REMARK    1  A    between atoms: C_1  and  C_3
REMARK    2  A    between atoms: C_1  and  C_6
REMARK    3  A    between atoms: C_1  and  C_15
REMARK    4  A    between atoms: C_3  and  C_4
REMARK    5  A    between atoms: C_6  and  O_7
REMARK    6  A    between atoms: O_7  and  C_10
REMARK    7  A    between atoms: N_9  and  C_12
REMARK    8  A    between atoms: C_15  and  O_16
REMARK    9  A    between atoms: O_16  and  C_19
REMARK                            x       y       z     vdW  Elec       q    Type
REMARK                         _______ _______ _______ _____ _____    ______ ____
ROOT
ATOM      1  C   UNL     1      29.785 -23.234 -16.111  0.00  0.00    +0.081 C 
ATOM      2  C   UNL     1      29.651 -22.423 -14.807  0.00  0.00    +0.007 C 
ENDROOT
BRANCH   1   3
ATOM      3  C   UNL     1      30.133 -24.720 -15.802  0.00  0.00    +0.007 C 
BRANCH   3   4
ATOM      4  C   UNL     1      30.255 -25.076 -14.315  0.00  0.00    +0.000 C 
ATOM      5  C   UNL     1      31.713 -25.117 -13.877  0.00  0.00    +0.000 C 
ENDBRANCH   3   4
ENDBRANCH   1   3
BRANCH   1   6
ATOM      6  C   UNL     1      30.866 -22.563 -16.992  0.00  0.00    +0.213 C 
BRANCH   6   7
ATOM      7  O   UNL     1      32.126 -23.206 -16.861  0.00  0.00    -0.435 OA
BRANCH   7  10
ATOM      8  O   UNL     1      33.713 -24.048 -18.291  0.00  0.00    -0.226 OA
ATOM      9  N   UNL     1      32.813 -21.930 -18.588  0.00  0.00    -0.272 N 
ATOM     10  C   UNL     1      32.957 -23.144 -17.949  0.00  0.00    +0.402 C 
ATOM     11  H   UNL     1      32.170 -21.284 -18.216  0.00  0.00    +0.153 HD
BRANCH   9  12
ATOM     12  C   UNL     1      33.551 -21.554 -19.772  0.00  0.00    +0.075 C 
ATOM     13  C   UNL     1      35.021 -21.346 -19.434  0.00  0.00    +0.021 C 
ATOM     14  C   UNL     1      32.947 -20.307 -20.404  0.00  0.00    +0.021 C 
ENDBRANCH   9  12
ENDBRANCH   7  10
ENDBRANCH   6   7
ENDBRANCH   1   6
BRANCH   1  15
ATOM     15  C   UNL     1      28.410 -23.187 -16.831  0.00  0.00    +0.213 C 
BRANCH  15  16
ATOM     16  O   UNL     1      27.872 -21.872 -16.860  0.00  0.00    -0.435 OA
BRANCH  16  19
ATOM     17  O   UNL     1      25.766 -22.086 -15.958  0.00  0.00    -0.227 OA
ATOM     18  N   UNL     1      26.072 -21.293 -18.094  0.00  0.00    -0.295 N 
ATOM     19  C   UNL     1      26.506 -21.779 -16.886  0.00  0.00    +0.398 C 
ATOM     20  H   UNL     1      26.725 -21.065 -18.795  0.00  0.00    +0.148 HD
ATOM     21  H   UNL     1      25.110 -21.171 -18.259  0.00  0.00    +0.148 HD
ENDBRANCH  16  19
ENDBRANCH  15  16
ENDBRANCH   1  15
TORSDOF 9
ENDMDL
MODEL 6
REMARK VINA RESULT:      -6.5      2.162      3.023
REMARK  Name = 2576
REMARK  9 active torsions:
REMARK  status: ('A' for Active; 'I' for Inactive)
REMARK    1  A    between atoms: C_1  and  C_3
REMARK    2  A    between atoms: C_1  and  C_6
REMARK    3  A    between atoms: C_1  and  C_15
REMARK    4  A    between atoms: C_3  and  C_4
REMARK    5  A    between atoms: C_6  and  O_7
REMARK    6  A    between atoms: O_7  and  C_10
REMARK    7  A    between atoms: N_9  and  C_12
REMARK    8  A    between atoms: C_15  and  O_16
REMARK    9  A    between atoms: O_16  and  C_19
REMARK                            x       y       z     vdW  Elec       q    Type
REMARK                         _______ _______ _______ _____ _____    ______ ____
ROOT
ATOM      1  C   UNL     1      33.140 -13.309 -23.044  0.00  0.00    +0.081 C 
ATOM      2  C   UNL     1      33.710 -12.035 -23.698  0.00  0.00    +0.007 C 
ENDROOT
BRANCH   1   3
ATOM      3  C   UNL     1      31.917 -12.966 -22.143  0.00  0.00    +0.007 C 
BRANCH   3   4
ATOM      4  C   UNL     1      31.745 -11.481 -21.798  0.00  0.00    +0.000 C 
ATOM      5  C   UNL     1      31.219 -11.303 -20.380  0.00  0.00    +0.000 C 
ENDBRANCH   3   4
ENDBRANCH   1   3
BRANCH   1   6
ATOM      6  C   UNL     1      34.272 -13.992 -22.240  0.00  0.00    +0.213 C 
BRANCH   6   7
ATOM      7  O   UNL     1      33.760 -14.773 -21.169  0.00  0.00    -0.435 OA
BRANCH   7  10
ATOM      8  O   UNL     1      35.174 -16.056 -19.895  0.00  0.00    -0.226 OA
ATOM      9  N   UNL     1      34.192 -16.885 -21.826  0.00  0.00    -0.272 N 
ATOM     10  C   UNL     1      34.446 -15.923 -20.872  0.00  0.00    +0.402 C 
ATOM     11  H   UNL     1      33.585 -16.657 -22.567  0.00  0.00    +0.153 HD
BRANCH   9  12
ATOM     12  C   UNL     1      34.765 -18.212 -21.798  0.00  0.00    +0.075 C 
ATOM     13  C   UNL     1      35.089 -18.676 -23.212  0.00  0.00    +0.021 C 
ATOM     14  C   UNL     1      33.824 -19.185 -21.099  0.00  0.00    +0.021 C 
ENDBRANCH   9  12
ENDBRANCH   7  10
ENDBRANCH   6   7
ENDBRANCH   1   6
BRANCH   1  15
ATOM     15  C   UNL     1      32.664 -14.245 -24.188  0.00  0.00    +0.213 C 
BRANCH  15  16
ATOM     16  O   UNL     1      33.524 -15.365 -24.349  0.00  0.00    -0.435 OA
BRANCH  16  19
ATOM     17  O   UNL     1      34.478 -16.705 -25.959  0.00  0.00    -0.227 OA
ATOM     18  N   UNL     1      33.002 -15.033 -26.520  0.00  0.00    -0.295 N 
ATOM     19  C   UNL     1      33.735 -15.784 -25.635  0.00  0.00    +0.398 C 
ATOM     20  H   UNL     1      32.425 -14.308 -26.188  0.00  0.00    +0.148 HD
ATOM     21  H   UNL     1      33.053 -15.221 -27.484  0.00  0.00    +0.148 HD
ENDBRANCH  16  19
ENDBRANCH  15  16
ENDBRANCH   1  15
TORSDOF 9
ENDMDL
MODEL 7
REMARK VINA RESULT:      -6.5      2.678      6.381
REMARK  Name = 2576
REMARK  9 active torsions:
REMARK  status: ('A' for Active; 'I' for Inactive)
REMARK    1  A    between atoms: C_1  and  C_3
REMARK    2  A    between atoms: C_1  and  C_6
REMARK    3  A    between atoms: C_1  and  C_15
REMARK    4  A    between atoms: C_3  and  C_4
REMARK    5  A    between atoms: C_6  and  O_7
REMARK    6  A    between atoms: O_7  and  C_10
REMARK    7  A    between atoms: N_9  and  C_12
REMARK    8  A    between atoms: C_15  and  O_16
REMARK    9  A    between atoms: O_16  and  C_19
REMARK                            x       y       z     vdW  Elec       q    Type
REMARK                         _______ _______ _______ _____ _____    ______ ____
ROOT
ATOM      1  C   UNL     1      32.993 -14.529 -21.263  0.00  0.00    +0.081 C 
ATOM      2  C   UNL     1      32.231 -15.757 -20.727  0.00  0.00    +0.007 C 
ENDROOT
BRANCH   1   3
ATOM      3  C   UNL     1      32.549 -13.237 -20.515  0.00  0.00    +0.007 C 
BRANCH   3   4
ATOM      4  C   UNL     1      31.692 -12.261 -21.332  0.00  0.00    +0.000 C 
ATOM      5  C   UNL     1      31.130 -11.153 -20.451  0.00  0.00    +0.000 C 
ENDBRANCH   3   4
ENDBRANCH   1   3
BRANCH   1   6
ATOM      6  C   UNL     1      32.740 -14.427 -22.786  0.00  0.00    +0.213 C 
BRANCH   6   7
ATOM      7  O   UNL     1      33.908 -14.019 -23.487  0.00  0.00    -0.435 OA
BRANCH   7  10
ATOM      8  O   UNL     1      33.310 -13.226 -25.557  0.00  0.00    -0.226 OA
ATOM      9  N   UNL     1      34.126 -11.815 -23.906  0.00  0.00    -0.272 N 
ATOM     10  C   UNL     1      33.741 -13.033 -24.425  0.00  0.00    +0.402 C 
ATOM     11  H   UNL     1      34.456 -11.788 -22.979  0.00  0.00    +0.153 HD
BRANCH   9  12
ATOM     12  C   UNL     1      34.070 -10.575 -24.646  0.00  0.00    +0.075 C 
ATOM     13  C   UNL     1      35.354 -10.375 -25.440  0.00  0.00    +0.021 C 
ATOM     14  C   UNL     1      33.814  -9.403 -23.706  0.00  0.00    +0.021 C 
ENDBRANCH   9  12
ENDBRANCH   7  10
ENDBRANCH   6   7
ENDBRANCH   1   6
BRANCH   1  15
ATOM     15  C   UNL     1      34.503 -14.765 -20.990  0.00  0.00    +0.213 C 
BRANCH  15  16
ATOM     16  O   UNL     1      34.753 -16.069 -20.482  0.00  0.00    -0.435 OA
BRANCH  16  19
ATOM     17  O   UNL     1      35.423 -16.766 -22.571  0.00  0.00    -0.227 OA
ATOM     18  N   UNL     1      35.527 -18.172 -20.754  0.00  0.00    -0.295 N 
ATOM     19  C   UNL     1      35.248 -16.980 -21.376  0.00  0.00    +0.398 C 
ATOM     20  H   UNL     1      35.363 -18.273 -19.789  0.00  0.00    +0.148 HD
ATOM     21  H   UNL     1      35.892 -18.924 -21.273  0.00  0.00    +0.148 HD
ENDBRANCH  16  19
ENDBRANCH  15  16
ENDBRANCH   1  15
TORSDOF 9
ENDMDL
MODEL 8
REMARK VINA RESULT:      -6.5      8.708     10.477
REMARK  Name = 2576
REMARK  9 active torsions:
REMARK  status: ('A' for Active; 'I' for Inactive)
REMARK    1  A    between atoms: C_1  and  C_3
REMARK    2  A    between atoms: C_1  and  C_6
REMARK    3  A    between atoms: C_1  and  C_15
REMARK    4  A    between atoms: C_3  and  C_4
REMARK    5  A    between atoms: C_6  and  O_7
REMARK    6  A    between atoms: O_7  and  C_10
REMARK    7  A    between atoms: N_9  and  C_12
REMARK    8  A    between atoms: C_15  and  O_16
REMARK    9  A    between atoms: O_16  and  C_19
REMARK                            x       y       z     vdW  Elec       q    Type
REMARK                         _______ _______ _______ _____ _____    ______ ____
ROOT
ATOM      1  C   UNL     1      31.092 -23.543 -15.364  0.00  0.00    +0.081 C 
ATOM      2  C   UNL     1      30.623 -24.977 -15.051  0.00  0.00    +0.007 C 
ENDROOT
BRANCH   1   3
ATOM      3  C   UNL     1      31.735 -23.471 -16.781  0.00  0.00    +0.007 C 
BRANCH   3   4
ATOM      4  C   UNL     1      33.228 -23.123 -16.814  0.00  0.00    +0.000 C 
ATOM      5  C   UNL     1      33.671 -22.727 -18.216  0.00  0.00    +0.000 C 
ENDBRANCH   3   4
ENDBRANCH   1   3
BRANCH   1   6
ATOM      6  C   UNL     1      32.084 -23.104 -14.261  0.00  0.00    +0.213 C 
BRANCH   6   7
ATOM      7  O   UNL     1      32.557 -24.213 -13.508  0.00  0.00    -0.435 OA
BRANCH   7  10
ATOM      8  O   UNL     1      34.447 -23.872 -12.250  0.00  0.00    -0.226 OA
ATOM      9  N   UNL     1      34.553 -24.809 -14.369  0.00  0.00    -0.272 N 
ATOM     10  C   UNL     1      33.908 -24.262 -13.280  0.00  0.00    +0.402 C 
ATOM     11  H   UNL     1      34.008 -25.087 -15.140  0.00  0.00    +0.153 HD
BRANCH   9  12
ATOM     12  C   UNL     1      35.984 -24.999 -14.442  0.00  0.00    +0.075 C 
ATOM     13  C   UNL     1      36.641 -23.806 -15.123  0.00  0.00    +0.021 C 
ATOM     14  C   UNL     1      36.314 -26.299 -15.165  0.00  0.00    +0.021 C 
ENDBRANCH   9  12
ENDBRANCH   7  10
ENDBRANCH   6   7
ENDBRANCH   1   6
BRANCH   1  15
ATOM     15  C   UNL     1      29.838 -22.629 -15.343  0.00  0.00    +0.213 C 
BRANCH  15  16
ATOM     16  O   UNL     1      29.314 -22.417 -16.648  0.00  0.00    -0.435 OA
BRANCH  16  19
ATOM     17  O   UNL     1      27.754 -23.754 -17.685  0.00  0.00    -0.227 OA
ATOM     18  N   UNL     1      27.141 -22.243 -16.063  0.00  0.00    -0.295 N 
ATOM     19  C   UNL     1      28.047 -22.883 -16.872  0.00  0.00    +0.398 C 
ATOM     20  H   UNL     1      27.447 -21.553 -15.432  0.00  0.00    +0.148 HD
ATOM     21  H   UNL     1      26.186 -22.476 -16.113  0.00  0.00    +0.148 HD
ENDBRANCH  16  19
ENDBRANCH  15  16
ENDBRANCH   1  15
TORSDOF 9
ENDMDL
MODEL 9
REMARK VINA RESULT:      -6.4      2.235      6.441
REMARK  Name = 2576
REMARK  9 active torsions:
REMARK  status: ('A' for Active; 'I' for Inactive)
REMARK    1  A    between atoms: C_1  and  C_3
REMARK    2  A    between atoms: C_1  and  C_6
REMARK    3  A    between atoms: C_1  and  C_15
REMARK    4  A    between atoms: C_3  and  C_4
REMARK    5  A    between atoms: C_6  and  O_7
REMARK    6  A    between atoms: O_7  and  C_10
REMARK    7  A    between atoms: N_9  and  C_12
REMARK    8  A    between atoms: C_15  and  O_16
REMARK    9  A    between atoms: O_16  and  C_19
REMARK                            x       y       z     vdW  Elec       q    Type
REMARK                         _______ _______ _______ _____ _____    ______ ____
ROOT
ATOM      1  C   UNL     1      35.102 -18.456 -22.050  0.00  0.00    +0.081 C 
ATOM      2  C   UNL     1      34.824 -19.325 -23.293  0.00  0.00    +0.007 C 
ENDROOT
BRANCH   1   3
ATOM      3  C   UNL     1      33.979 -18.642 -20.987  0.00  0.00    +0.007 C 
BRANCH   3   4
ATOM      4  C   UNL     1      33.096 -19.884 -21.166  0.00  0.00    +0.000 C 
ATOM      5  C   UNL     1      32.979 -20.668 -19.866  0.00  0.00    +0.000 C 
ENDBRANCH   3   4
ENDBRANCH   1   3
BRANCH   1   6
ATOM      6  C   UNL     1      35.222 -16.982 -22.505  0.00  0.00    +0.213 C 
BRANCH   6   7
ATOM      7  O   UNL     1      34.447 -16.114 -21.689  0.00  0.00    -0.435 OA
BRANCH   7  10
ATOM      8  O   UNL     1      32.431 -15.024 -21.829  0.00  0.00    -0.226 OA
ATOM      9  N   UNL     1      33.921 -15.051 -23.607  0.00  0.00    -0.272 N 
ATOM     10  C   UNL     1      33.497 -15.362 -22.332  0.00  0.00    +0.402 C 
ATOM     11  H   UNL     1      34.802 -15.381 -23.897  0.00  0.00    +0.153 HD
BRANCH   9  12
ATOM     12  C   UNL     1      33.145 -14.267 -24.540  0.00  0.00    +0.075 C 
ATOM     13  C   UNL     1      33.260 -14.849 -25.942  0.00  0.00    +0.021 C 
ATOM     14  C   UNL     1      33.588 -12.809 -24.510  0.00  0.00    +0.021 C 
ENDBRANCH   9  12
ENDBRANCH   7  10
ENDBRANCH   6   7
ENDBRANCH   1   6
BRANCH   1  15
ATOM     15  C   UNL     1      36.446 -18.934 -21.440  0.00  0.00    +0.213 C 
BRANCH  15  16
ATOM     16  O   UNL     1      36.306 -19.306 -20.075  0.00  0.00    -0.435 OA
BRANCH  16  19
ATOM     17  O   UNL     1      36.328 -21.549 -20.589  0.00  0.00    -0.227 OA
ATOM     18  N   UNL     1      36.868 -20.804 -18.482  0.00  0.00    -0.295 N 
ATOM     19  C   UNL     1      36.485 -20.633 -19.789  0.00  0.00    +0.398 C 
ATOM     20  H   UNL     1      36.976 -20.021 -17.895  0.00  0.00    +0.148 HD
ATOM     21  H   UNL     1      37.034 -21.708 -18.132  0.00  0.00    +0.148 HD
ENDBRANCH  16  19
ENDBRANCH  15  16
ENDBRANCH   1  15
TORSDOF 9
ENDMDL
