MODEL 1
REMARK VINA RESULT:      -5.5      0.000      0.000
REMARK  Name = 448539
REMARK  9 active torsions:
REMARK  status: ('A' for Active; 'I' for Inactive)
REMARK    1  A    between atoms: C_1  and  C_2
REMARK    2  A    between atoms: C_1  and  CA_11
REMARK    3  A    between atoms: C_2  and  C_3
REMARK    4  A    between atoms: C_3  and  N_4
REMARK    5  A    between atoms: N_4  and  C_6
REMARK    6  A    between atoms: C_6  and  S_9
REMARK    7  A    between atoms: CA_11  and  N_12
REMARK    8  A    between atoms: CA_11  and  C_17
REMARK    9  A    between atoms: C_17  and  O_18
REMARK                            x       y       z     vdW  Elec       q    Type
REMARK                         _______ _______ _______ _____ _____    ______ ____
ROOT
ATOM      1  C   UNL     1      28.903 -22.293 -15.388  0.00  0.00    -0.009 C 
ENDROOT
BRANCH   1   2
ATOM      2  C   UNL     1      29.893 -23.361 -14.903  0.00  0.00    +0.022 C 
BRANCH   2   3
ATOM      3  C   UNL     1      31.316 -23.095 -15.381  0.00  0.00    +0.114 C 
BRANCH   3   4
ATOM      4  N   UNL     1      31.322 -22.858 -16.825  0.00  0.00    -0.217 NA
BRANCH   4   6
ATOM      5  N   UNL     1      32.845 -22.368 -18.632  0.00  0.00    -0.381 N 
ATOM      6  C   UNL     1      32.478 -22.802 -17.386  0.00  0.00    +0.142 C 
ATOM      7  H   UNL     1      33.791 -22.396 -18.903  0.00  0.00    +0.158 HD
ATOM      8  H   UNL     1      32.164 -22.028 -19.256  0.00  0.00    +0.158 HD
BRANCH   6   9
ATOM      9  S   UNL     1      33.831 -23.376 -16.406  0.00  0.00    -0.109 S 
ATOM     10  H   UNL     1      34.220 -24.604 -16.844  0.00  0.00    +0.110 HD
ENDBRANCH   6   9
ENDBRANCH   4   6
ENDBRANCH   3   4
ENDBRANCH   2   3
ENDBRANCH   1   2
BRANCH   1  11
ATOM     11  CA  UNL     1      27.741 -22.900 -16.188  0.00  0.00    +0.036 C 
BRANCH  11  12
ATOM     12  N   UNL     1      28.214 -23.333 -17.501  0.00  0.00    +0.389 N 
ATOM     13  H1  UNL     1      28.381 -24.339 -17.488  0.00  0.00    -0.088 HD
ATOM     14  H2  UNL     1      29.082 -22.847 -17.727  0.00  0.00    -0.088 HD
ATOM     15  H3  UNL     1      27.509 -23.114 -18.206  0.00  0.00    -0.088 HD
ENDBRANCH  11  12
BRANCH  11  17
ATOM     16  OXT UNL     1      26.650 -21.048 -17.337  0.00  0.00    -0.253 OA
ATOM     17  C   UNL     1      26.636 -21.894 -16.452  0.00  0.00    +0.293 C 
BRANCH  17  18
ATOM     18  O   UNL     1      25.587 -22.051 -15.602  0.00  0.00    -0.482 OA
ATOM     19  H   UNL     1      25.296 -21.329 -15.080  0.00  0.00    +0.295 HD
ENDBRANCH  17  18
ENDBRANCH  11  17
ENDBRANCH   1  11
TORSDOF 9
ENDMDL
MODEL 2
REMARK VINA RESULT:      -5.5      7.506      8.894
REMARK  Name = 448539
REMARK  9 active torsions:
REMARK  status: ('A' for Active; 'I' for Inactive)
REMARK    1  A    between atoms: C_1  and  C_2
REMARK    2  A    between atoms: C_1  and  CA_11
REMARK    3  A    between atoms: C_2  and  C_3
REMARK    4  A    between atoms: C_3  and  N_4
REMARK    5  A    between atoms: N_4  and  C_6
REMARK    6  A    between atoms: C_6  and  S_9
REMARK    7  A    between atoms: CA_11  and  N_12
REMARK    8  A    between atoms: CA_11  and  C_17
REMARK    9  A    between atoms: C_17  and  O_18
REMARK                            x       y       z     vdW  Elec       q    Type
REMARK                         _______ _______ _______ _____ _____    ______ ____
ROOT
ATOM      1  C   UNL     1      37.442 -26.179 -13.073  0.00  0.00    -0.009 C 
ENDROOT
BRANCH   1   2
ATOM      2  C   UNL     1      38.256 -24.964 -12.609  0.00  0.00    +0.022 C 
BRANCH   2   3
ATOM      3  C   UNL     1      37.426 -23.685 -12.580  0.00  0.00    +0.114 C 
BRANCH   3   4
ATOM      4  N   UNL     1      37.532 -22.992 -13.865  0.00  0.00    -0.217 NA
BRANCH   4   6
ATOM      5  N   UNL     1      35.152 -23.176 -14.222  0.00  0.00    -0.381 N 
ATOM      6  C   UNL     1      36.455 -22.929 -14.565  0.00  0.00    +0.142 C 
ATOM      7  H   UNL     1      34.439 -23.077 -14.894  0.00  0.00    +0.158 HD
ATOM      8  H   UNL     1      34.928 -23.450 -13.303  0.00  0.00    +0.158 HD
BRANCH   6   9
ATOM      9  S   UNL     1      36.666 -22.447 -16.252  0.00  0.00    -0.109 S 
ATOM     10  H   UNL     1      37.933 -21.988 -16.437  0.00  0.00    +0.110 HD
ENDBRANCH   6   9
ENDBRANCH   4   6
ENDBRANCH   3   4
ENDBRANCH   2   3
ENDBRANCH   1   2
BRANCH   1  11
ATOM     11  CA  UNL     1      37.859 -26.657 -14.472  0.00  0.00    +0.036 C 
BRANCH  11  12
ATOM     12  N   UNL     1      38.713 -25.655 -15.104  0.00  0.00    +0.389 N 
ATOM     13  H1  UNL     1      39.304 -25.216 -14.398  0.00  0.00    -0.088 HD
ATOM     14  H2  UNL     1      38.132 -24.945 -15.551  0.00  0.00    -0.088 HD
ATOM     15  H3  UNL     1      39.301 -26.103 -15.808  0.00  0.00    -0.088 HD
ENDBRANCH  11  12
BRANCH  11  17
ATOM     16  OXT UNL     1      36.684 -27.472 -16.445  0.00  0.00    -0.253 OA
ATOM     17  C   UNL     1      36.671 -26.838 -15.398  0.00  0.00    +0.293 C 
BRANCH  17  18
ATOM     18  O   UNL     1      35.552 -26.232 -14.920  0.00  0.00    -0.482 OA
ATOM     19  H   UNL     1      34.799 -26.744 -14.701  0.00  0.00    +0.295 HD
ENDBRANCH  17  18
ENDBRANCH  11  17
ENDBRANCH   1  11
TORSDOF 9
ENDMDL
MODEL 3
REMARK VINA RESULT:      -5.5      8.628     10.215
REMARK  Name = 448539
REMARK  9 active torsions:
REMARK  status: ('A' for Active; 'I' for Inactive)
REMARK    1  A    between atoms: C_1  and  C_2
REMARK    2  A    between atoms: C_1  and  CA_11
REMARK    3  A    between atoms: C_2  and  C_3
REMARK    4  A    between atoms: C_3  and  N_4
REMARK    5  A    between atoms: N_4  and  C_6
REMARK    6  A    between atoms: C_6  and  S_9
REMARK    7  A    between atoms: CA_11  and  N_12
REMARK    8  A    between atoms: CA_11  and  C_17
REMARK    9  A    between atoms: C_17  and  O_18
REMARK                            x       y       z     vdW  Elec       q    Type
REMARK                         _______ _______ _______ _____ _____    ______ ____
ROOT
ATOM      1  C   UNL     1      38.425 -25.592 -12.933  0.00  0.00    -0.009 C 
ENDROOT
BRANCH   1   2
ATOM      2  C   UNL     1      38.220 -24.308 -12.116  0.00  0.00    +0.022 C 
BRANCH   2   3
ATOM      3  C   UNL     1      37.290 -23.319 -12.812  0.00  0.00    +0.114 C 
BRANCH   3   4
ATOM      4  N   UNL     1      35.900 -23.612 -12.463  0.00  0.00    -0.217 NA
BRANCH   4   6
ATOM      5  N   UNL     1      34.058 -24.775 -13.505  0.00  0.00    -0.381 N 
ATOM      6  C   UNL     1      35.121 -23.913 -13.442  0.00  0.00    +0.142 C 
ATOM      7  H   UNL     1      33.565 -24.886 -14.350  0.00  0.00    +0.158 HD
ATOM      8  H   UNL     1      33.787 -25.281 -12.706  0.00  0.00    +0.158 HD
BRANCH   6   9
ATOM      9  S   UNL     1      35.462 -23.091 -14.969  0.00  0.00    -0.109 S 
ATOM     10  H   UNL     1      34.449 -23.326 -15.846  0.00  0.00    +0.110 HD
ENDBRANCH   6   9
ENDBRANCH   4   6
ENDBRANCH   3   4
ENDBRANCH   2   3
ENDBRANCH   1   2
BRANCH   1  11
ATOM     11  CA  UNL     1      38.855 -25.297 -14.378  0.00  0.00    +0.036 C 
BRANCH  11  12
ATOM     12  N   UNL     1      37.888 -25.871 -15.311  0.00  0.00    +0.389 N 
ATOM     13  H1  UNL     1      37.858 -25.307 -16.160  0.00  0.00    -0.088 HD
ATOM     14  H2  UNL     1      36.965 -25.885 -14.878  0.00  0.00    -0.088 HD
ATOM     15  H3  UNL     1      38.167 -26.825 -15.546  0.00  0.00    -0.088 HD
ENDBRANCH  11  12
BRANCH  11  17
ATOM     16  OXT UNL     1      40.970 -26.414 -13.911  0.00  0.00    -0.253 OA
ATOM     17  C   UNL     1      40.192 -25.927 -14.721  0.00  0.00    +0.293 C 
BRANCH  17  18
ATOM     18  O   UNL     1      40.433 -25.919 -16.059  0.00  0.00    -0.482 OA
ATOM     19  H   UNL     1      40.507 -26.728 -16.526  0.00  0.00    +0.295 HD
ENDBRANCH  17  18
ENDBRANCH  11  17
ENDBRANCH   1  11
TORSDOF 9
ENDMDL
MODEL 4
REMARK VINA RESULT:      -5.4      7.201      8.651
REMARK  Name = 448539
REMARK  9 active torsions:
REMARK  status: ('A' for Active; 'I' for Inactive)
REMARK    1  A    between atoms: C_1  and  C_2
REMARK    2  A    between atoms: C_1  and  CA_11
REMARK    3  A    between atoms: C_2  and  C_3
REMARK    4  A    between atoms: C_3  and  N_4
REMARK    5  A    between atoms: N_4  and  C_6
REMARK    6  A    between atoms: C_6  and  S_9
REMARK    7  A    between atoms: CA_11  and  N_12
REMARK    8  A    between atoms: CA_11  and  C_17
REMARK    9  A    between atoms: C_17  and  O_18
REMARK                            x       y       z     vdW  Elec       q    Type
REMARK                         _______ _______ _______ _____ _____    ______ ____
ROOT
ATOM      1  C   UNL     1      37.933 -25.157 -12.312  0.00  0.00    -0.009 C 
ENDROOT
BRANCH   1   2
ATOM      2  C   UNL     1      37.495 -26.075 -13.463  0.00  0.00    +0.022 C 
BRANCH   2   3
ATOM      3  C   UNL     1      37.380 -25.329 -14.789  0.00  0.00    +0.114 C 
BRANCH   3   4
ATOM      4  N   UNL     1      36.057 -25.551 -15.373  0.00  0.00    -0.217 NA
BRANCH   4   6
ATOM      5  N   UNL     1      33.987 -24.839 -14.354  0.00  0.00    -0.381 N 
ATOM      6  C   UNL     1      35.150 -24.693 -15.064  0.00  0.00    +0.142 C 
ATOM      7  H   UNL     1      33.399 -24.063 -14.209  0.00  0.00    +0.158 HD
ATOM      8  H   UNL     1      33.741 -25.719 -13.989  0.00  0.00    +0.158 HD
BRANCH   6   9
ATOM      9  S   UNL     1      35.428 -23.046 -15.641  0.00  0.00    -0.109 S 
ATOM     10  H   UNL     1      34.982 -22.158 -14.712  0.00  0.00    +0.110 HD
ENDBRANCH   6   9
ENDBRANCH   4   6
ENDBRANCH   3   4
ENDBRANCH   2   3
ENDBRANCH   1   2
BRANCH   1  11
ATOM     11  CA  UNL     1      36.916 -24.037 -12.045  0.00  0.00    +0.036 C 
BRANCH  11  12
ATOM     12  N   UNL     1      37.600 -22.862 -11.511  0.00  0.00    +0.389 N 
ATOM     13  H1  UNL     1      38.020 -22.335 -12.277  0.00  0.00    -0.088 HD
ATOM     14  H2  UNL     1      38.330 -23.159 -10.863  0.00  0.00    -0.088 HD
ATOM     15  H3  UNL     1      36.929 -22.271 -11.019  0.00  0.00    -0.088 HD
ENDBRANCH  11  12
BRANCH  11  17
ATOM     16  OXT UNL     1      35.995 -24.243  -9.798  0.00  0.00    -0.253 OA
ATOM     17  C   UNL     1      35.886 -24.431 -11.003  0.00  0.00    +0.293 C 
BRANCH  17  18
ATOM     18  O   UNL     1      34.786 -25.003 -11.560  0.00  0.00    -0.482 OA
ATOM     19  H   UNL     1      34.869 -25.512 -12.343  0.00  0.00    +0.295 HD
ENDBRANCH  17  18
ENDBRANCH  11  17
ENDBRANCH   1  11
TORSDOF 9
ENDMDL
MODEL 5
REMARK VINA RESULT:      -5.4      8.320      8.938
REMARK  Name = 448539
REMARK  9 active torsions:
REMARK  status: ('A' for Active; 'I' for Inactive)
REMARK    1  A    between atoms: C_1  and  C_2
REMARK    2  A    between atoms: C_1  and  CA_11
REMARK    3  A    between atoms: C_2  and  C_3
REMARK    4  A    between atoms: C_3  and  N_4
REMARK    5  A    between atoms: N_4  and  C_6
REMARK    6  A    between atoms: C_6  and  S_9
REMARK    7  A    between atoms: CA_11  and  N_12
REMARK    8  A    between atoms: CA_11  and  C_17
REMARK    9  A    between atoms: C_17  and  O_18
REMARK                            x       y       z     vdW  Elec       q    Type
REMARK                         _______ _______ _______ _____ _____    ______ ____
ROOT
ATOM      1  C   UNL     1      35.446 -23.855 -13.542  0.00  0.00    -0.009 C 
ENDROOT
BRANCH   1   2
ATOM      2  C   UNL     1      36.378 -23.019 -14.432  0.00  0.00    +0.022 C 
BRANCH   2   3
ATOM      3  C   UNL     1      37.439 -23.870 -15.123  0.00  0.00    +0.114 C 
BRANCH   3   4
ATOM      4  N   UNL     1      38.367 -24.413 -14.130  0.00  0.00    -0.217 NA
BRANCH   4   6
ATOM      5  N   UNL     1      38.007 -26.797 -14.258  0.00  0.00    -0.381 N 
ATOM      6  C   UNL     1      38.731 -25.635 -14.304  0.00  0.00    +0.142 C 
ATOM      7  H   UNL     1      38.453 -27.660 -14.417  0.00  0.00    +0.158 HD
ATOM      8  H   UNL     1      37.042 -26.769 -14.067  0.00  0.00    +0.158 HD
BRANCH   6   9
ATOM      9  S   UNL     1      40.445 -25.879 -14.659  0.00  0.00    -0.109 S 
ATOM     10  H   UNL     1      41.123 -24.720 -14.439  0.00  0.00    +0.110 HD
ENDBRANCH   6   9
ENDBRANCH   4   6
ENDBRANCH   3   4
ENDBRANCH   2   3
ENDBRANCH   1   2
BRANCH   1  11
ATOM     11  CA  UNL     1      35.671 -23.578 -12.048  0.00  0.00    +0.036 C 
BRANCH  11  12
ATOM     12  N   UNL     1      36.951 -22.901 -11.855  0.00  0.00    +0.389 N 
ATOM     13  H1  UNL     1      37.375 -23.216 -10.983  0.00  0.00    -0.088 HD
ATOM     14  H2  UNL     1      36.799 -21.893 -11.814  0.00  0.00    -0.088 HD
ATOM     15  H3  UNL     1      37.572 -23.120 -12.634  0.00  0.00    -0.088 HD
ENDBRANCH  11  12
BRANCH  11  17
ATOM     16  OXT UNL     1      35.253 -25.009 -10.120  0.00  0.00    -0.253 OA
ATOM     17  C   UNL     1      35.745 -24.854 -11.230  0.00  0.00    +0.293 C 
BRANCH  17  18
ATOM     18  O   UNL     1      36.407 -25.844 -11.885  0.00  0.00    -0.482 OA
ATOM     19  H   UNL     1      36.356 -25.904 -12.819  0.00  0.00    +0.295 HD
ENDBRANCH  17  18
ENDBRANCH  11  17
ENDBRANCH   1  11
TORSDOF 9
ENDMDL
MODEL 6
REMARK VINA RESULT:      -5.4      8.439     10.127
REMARK  Name = 448539
REMARK  9 active torsions:
REMARK  status: ('A' for Active; 'I' for Inactive)
REMARK    1  A    between atoms: C_1  and  C_2
REMARK    2  A    between atoms: C_1  and  CA_11
REMARK    3  A    between atoms: C_2  and  C_3
REMARK    4  A    between atoms: C_3  and  N_4
REMARK    5  A    between atoms: N_4  and  C_6
REMARK    6  A    between atoms: C_6  and  S_9
REMARK    7  A    between atoms: CA_11  and  N_12
REMARK    8  A    between atoms: CA_11  and  C_17
REMARK    9  A    between atoms: C_17  and  O_18
REMARK                            x       y       z     vdW  Elec       q    Type
REMARK                         _______ _______ _______ _____ _____    ______ ____
ROOT
ATOM      1  C   UNL     1      38.188 -25.890 -13.726  0.00  0.00    -0.009 C 
ENDROOT
BRANCH   1   2
ATOM      2  C   UNL     1      37.182 -26.223 -14.837  0.00  0.00    +0.022 C 
BRANCH   2   3
ATOM      3  C   UNL     1      35.888 -25.426 -14.707  0.00  0.00    +0.114 C 
BRANCH   3   4
ATOM      4  N   UNL     1      35.735 -24.533 -15.856  0.00  0.00    -0.217 NA
BRANCH   4   6
ATOM      5  N   UNL     1      34.827 -22.661 -14.632  0.00  0.00    -0.381 N 
ATOM      6  C   UNL     1      35.586 -23.284 -15.587  0.00  0.00    +0.142 C 
ATOM      7  H   UNL     1      34.829 -21.679 -14.565  0.00  0.00    +0.158 HD
ATOM      8  H   UNL     1      34.280 -23.195 -14.012  0.00  0.00    +0.158 HD
BRANCH   6   9
ATOM      9  S   UNL     1      36.500 -22.168 -16.607  0.00  0.00    -0.109 S 
ATOM     10  H   UNL     1      36.524 -22.637 -17.884  0.00  0.00    +0.110 HD
ENDBRANCH   6   9
ENDBRANCH   4   6
ENDBRANCH   3   4
ENDBRANCH   2   3
ENDBRANCH   1   2
BRANCH   1  11
ATOM     11  CA  UNL     1      39.405 -25.119 -14.258  0.00  0.00    +0.036 C 
BRANCH  11  12
ATOM     12  N   UNL     1      39.012 -24.303 -15.405  0.00  0.00    +0.389 N 
ATOM     13  H1  UNL     1      39.525 -24.608 -16.232  0.00  0.00    -0.088 HD
ATOM     14  H2  UNL     1      39.226 -23.324 -15.214  0.00  0.00    -0.088 HD
ATOM     15  H3  UNL     1      38.010 -24.405 -15.569  0.00  0.00    -0.088 HD
ENDBRANCH  11  12
BRANCH  11  17
ATOM     16  OXT UNL     1      41.200 -26.754 -14.047  0.00  0.00    -0.253 OA
ATOM     17  C   UNL     1      40.500 -26.042 -14.757  0.00  0.00    +0.293 C 
BRANCH  17  18
ATOM     18  O   UNL     1      40.610 -26.020 -16.112  0.00  0.00    -0.482 OA
ATOM     19  H   UNL     1      40.559 -25.206 -16.573  0.00  0.00    +0.295 HD
ENDBRANCH  17  18
ENDBRANCH  11  17
ENDBRANCH   1  11
TORSDOF 9
ENDMDL
MODEL 7
REMARK VINA RESULT:      -5.3      6.497      7.977
REMARK  Name = 448539
REMARK  9 active torsions:
REMARK  status: ('A' for Active; 'I' for Inactive)
REMARK    1  A    between atoms: C_1  and  C_2
REMARK    2  A    between atoms: C_1  and  CA_11
REMARK    3  A    between atoms: C_2  and  C_3
REMARK    4  A    between atoms: C_3  and  N_4
REMARK    5  A    between atoms: N_4  and  C_6
REMARK    6  A    between atoms: C_6  and  S_9
REMARK    7  A    between atoms: CA_11  and  N_12
REMARK    8  A    between atoms: CA_11  and  C_17
REMARK    9  A    between atoms: C_17  and  O_18
REMARK                            x       y       z     vdW  Elec       q    Type
REMARK                         _______ _______ _______ _____ _____    ______ ____
ROOT
ATOM      1  C   UNL     1      35.255 -24.957 -15.022  0.00  0.00    -0.009 C 
ENDROOT
BRANCH   1   2
ATOM      2  C   UNL     1      35.035 -23.472 -15.343  0.00  0.00    +0.022 C 
BRANCH   2   3
ATOM      3  C   UNL     1      34.180 -23.267 -16.589  0.00  0.00    +0.114 C 
BRANCH   3   4
ATOM      4  N   UNL     1      35.012 -22.776 -17.689  0.00  0.00    -0.217 NA
BRANCH   4   6
ATOM      5  N   UNL     1      33.066 -22.329 -19.045  0.00  0.00    -0.381 N 
ATOM      6  C   UNL     1      34.385 -22.257 -18.685  0.00  0.00    +0.142 C 
ATOM      7  H   UNL     1      32.750 -21.863 -19.853  0.00  0.00    +0.158 HD
ATOM      8  H   UNL     1      32.433 -22.846 -18.496  0.00  0.00    +0.158 HD
BRANCH   6   9
ATOM      9  S   UNL     1      35.370 -21.287 -19.786  0.00  0.00    -0.109 S 
ATOM     10  H   UNL     1      36.048 -22.109 -20.632  0.00  0.00    +0.110 HD
ENDBRANCH   6   9
ENDBRANCH   4   6
ENDBRANCH   3   4
ENDBRANCH   2   3
ENDBRANCH   1   2
BRANCH   1  11
ATOM     11  CA  UNL     1      36.728 -25.274 -14.723  0.00  0.00    +0.036 C 
BRANCH  11  12
ATOM     12  N   UNL     1      37.591 -24.314 -15.408  0.00  0.00    +0.389 N 
ATOM     13  H1  UNL     1      37.070 -23.456 -15.588  0.00  0.00    -0.088 HD
ATOM     14  H2  UNL     1      37.908 -24.712 -16.292  0.00  0.00    -0.088 HD
ATOM     15  H3  UNL     1      38.399 -24.104 -14.821  0.00  0.00    -0.088 HD
ENDBRANCH  11  12
BRANCH  11  17
ATOM     16  OXT UNL     1      36.605 -27.239 -16.160  0.00  0.00    -0.253 OA
ATOM     17  C   UNL     1      37.138 -26.643 -15.233  0.00  0.00    +0.293 C 
BRANCH  17  18
ATOM     18  O   UNL     1      38.205 -27.143 -14.555  0.00  0.00    -0.482 OA
ATOM     19  H   UNL     1      38.088 -27.503 -13.697  0.00  0.00    +0.295 HD
ENDBRANCH  17  18
ENDBRANCH  11  17
ENDBRANCH   1  11
TORSDOF 9
ENDMDL
MODEL 8
REMARK VINA RESULT:      -5.3      9.917     11.341
REMARK  Name = 448539
REMARK  9 active torsions:
REMARK  status: ('A' for Active; 'I' for Inactive)
REMARK    1  A    between atoms: C_1  and  C_2
REMARK    2  A    between atoms: C_1  and  CA_11
REMARK    3  A    between atoms: C_2  and  C_3
REMARK    4  A    between atoms: C_3  and  N_4
REMARK    5  A    between atoms: N_4  and  C_6
REMARK    6  A    between atoms: C_6  and  S_9
REMARK    7  A    between atoms: CA_11  and  N_12
REMARK    8  A    between atoms: CA_11  and  C_17
REMARK    9  A    between atoms: C_17  and  O_18
REMARK                            x       y       z     vdW  Elec       q    Type
REMARK                         _______ _______ _______ _____ _____    ______ ____
ROOT
ATOM      1  C   UNL     1      34.596 -16.029 -21.091  0.00  0.00    -0.009 C 
ENDROOT
BRANCH   1   2
ATOM      2  C   UNL     1      33.123 -15.603 -21.022  0.00  0.00    +0.022 C 
BRANCH   2   3
ATOM      3  C   UNL     1      32.801 -14.466 -21.987  0.00  0.00    +0.114 C 
BRANCH   3   4
ATOM      4  N   UNL     1      34.016 -14.048 -22.688  0.00  0.00    -0.217 NA
BRANCH   4   6
ATOM      5  N   UNL     1      34.130 -12.033 -24.013  0.00  0.00    -0.381 N 
ATOM      6  C   UNL     1      33.843 -13.347 -23.753  0.00  0.00    +0.142 C 
ATOM      7  H   UNL     1      33.928 -11.652 -24.898  0.00  0.00    +0.158 HD
ATOM      8  H   UNL     1      34.539 -11.471 -23.316  0.00  0.00    +0.158 HD
BRANCH   6   9
ATOM      9  S   UNL     1      33.114 -14.199 -25.119  0.00  0.00    -0.109 S 
ATOM     10  H   UNL     1      33.411 -15.524 -25.038  0.00  0.00    +0.110 HD
ENDBRANCH   6   9
ENDBRANCH   4   6
ENDBRANCH   3   4
ENDBRANCH   2   3
ENDBRANCH   1   2
BRANCH   1  11
ATOM     11  CA  UNL     1      34.760 -17.464 -21.614  0.00  0.00    +0.036 C 
BRANCH  11  12
ATOM     12  N   UNL     1      35.688 -18.201 -20.758  0.00  0.00    +0.389 N 
ATOM     13  H1  UNL     1      36.508 -17.625 -20.570  0.00  0.00    -0.088 HD
ATOM     14  H2  UNL     1      35.975 -19.059 -21.228  0.00  0.00    -0.088 HD
ATOM     15  H3  UNL     1      35.227 -18.434 -19.878  0.00  0.00    -0.088 HD
ENDBRANCH  11  12
BRANCH  11  17
ATOM     16  OXT UNL     1      35.482 -18.515 -23.691  0.00  0.00    -0.253 OA
ATOM     17  C   UNL     1      35.354 -17.506 -23.009  0.00  0.00    +0.293 C 
BRANCH  17  18
ATOM     18  O   UNL     1      35.715 -16.271 -23.448  0.00  0.00    -0.482 OA
ATOM     19  H   UNL     1      35.313 -15.508 -23.083  0.00  0.00    +0.295 HD
ENDBRANCH  17  18
ENDBRANCH  11  17
ENDBRANCH   1  11
TORSDOF 9
ENDMDL
MODEL 9
REMARK VINA RESULT:      -5.2      1.977      2.492
REMARK  Name = 448539
REMARK  9 active torsions:
REMARK  status: ('A' for Active; 'I' for Inactive)
REMARK    1  A    between atoms: C_1  and  C_2
REMARK    2  A    between atoms: C_1  and  CA_11
REMARK    3  A    between atoms: C_2  and  C_3
REMARK    4  A    between atoms: C_3  and  N_4
REMARK    5  A    between atoms: N_4  and  C_6
REMARK    6  A    between atoms: C_6  and  S_9
REMARK    7  A    between atoms: CA_11  and  N_12
REMARK    8  A    between atoms: CA_11  and  C_17
REMARK    9  A    between atoms: C_17  and  O_18
REMARK                            x       y       z     vdW  Elec       q    Type
REMARK                         _______ _______ _______ _____ _____    ______ ____
ROOT
ATOM      1  C   UNL     1      30.809 -22.588 -16.526  0.00  0.00    -0.009 C 
ENDROOT
BRANCH   1   2
ATOM      2  C   UNL     1      32.066 -23.461 -16.406  0.00  0.00    +0.022 C 
BRANCH   2   3
ATOM      3  C   UNL     1      33.140 -23.076 -17.420  0.00  0.00    +0.114 C 
BRANCH   3   4
ATOM      4  N   UNL     1      32.529 -22.382 -18.554  0.00  0.00    -0.217 NA
BRANCH   4   6
ATOM      5  N   UNL     1      33.028 -20.574 -20.074  0.00  0.00    -0.381 N 
ATOM      6  C   UNL     1      33.309 -21.626 -19.242  0.00  0.00    +0.142 C 
ATOM      7  H   UNL     1      33.760 -20.099 -20.530  0.00  0.00    +0.158 HD
ATOM      8  H   UNL     1      32.095 -20.294 -20.216  0.00  0.00    +0.158 HD
BRANCH   6   9
ATOM      9  S   UNL     1      35.034 -21.985 -19.110  0.00  0.00    -0.109 S 
ATOM     10  H   UNL     1      35.461 -22.587 -20.253  0.00  0.00    +0.110 HD
ENDBRANCH   6   9
ENDBRANCH   4   6
ENDBRANCH   3   4
ENDBRANCH   2   3
ENDBRANCH   1   2
BRANCH   1  11
ATOM     11  CA  UNL     1      29.558 -23.297 -15.988  0.00  0.00    +0.036 C 
BRANCH  11  12
ATOM     12  N   UNL     1      29.738 -24.745 -16.059  0.00  0.00    +0.389 N 
ATOM     13  H1  UNL     1      29.714 -25.044 -17.034  0.00  0.00    -0.088 HD
ATOM     14  H2  UNL     1      28.990 -25.207 -15.543  0.00  0.00    -0.088 HD
ATOM     15  H3  UNL     1      30.639 -24.996 -15.649  0.00  0.00    -0.088 HD
ENDBRANCH  11  12
BRANCH  11  17
ATOM     16  OXT UNL     1      27.824 -21.878 -16.948  0.00  0.00    -0.253 OA
ATOM     17  C   UNL     1      28.321 -22.989 -16.812  0.00  0.00    +0.293 C 
BRANCH  17  18
ATOM     18  O   UNL     1      27.824 -24.097 -17.423  0.00  0.00    -0.482 OA
ATOM     19  H   UNL     1      28.314 -24.895 -17.416  0.00  0.00    +0.295 HD
ENDBRANCH  17  18
ENDBRANCH  11  17
ENDBRANCH   1  11
TORSDOF 9
ENDMDL
