MODEL 1
REMARK VINA RESULT:      -7.4      0.000      0.000
REMARK  Name = 4470577
REMARK  5 active torsions:
REMARK  status: ('A' for Active; 'I' for Inactive)
REMARK    1  A    between atoms: N_2  and  C_24
REMARK    2  A    between atoms: C_13  and  C_16
REMARK    3  A    between atoms: C_21  and  O_22
REMARK    4  A    between atoms: C_24  and  C_25
REMARK    5  A    between atoms: C_30  and  O_31
REMARK                            x       y       z     vdW  Elec       q    Type
REMARK                         _______ _______ _______ _____ _____    ______ ____
ROOT
ATOM      1  O   UNL     1      32.850 -14.718 -19.895  0.00  0.00    -0.270 OA
ATOM      2  N   UNL     1      31.894  -9.431 -22.536  0.00  0.00    -0.325 N 
ATOM      3  N   UNL     1      32.007 -12.759 -20.855  0.00  0.00    -0.270 N 
ATOM      4  C   UNL     1      31.896 -10.481 -21.664  0.00  0.00    +0.054 A 
ATOM      5  C   UNL     1      31.999  -9.984 -20.383  0.00  0.00    -0.006 A 
ATOM      6  C   UNL     1      32.035 -10.887 -19.203  0.00  0.00    +0.049 C 
ATOM      7  C   UNL     1      31.787 -11.911 -22.055  0.00  0.00    +0.137 C 
ATOM      8  C   UNL     1      31.452 -12.260 -19.578  0.00  0.00    +0.099 C 
ATOM      9  C   UNL     1      32.071  -8.566 -20.477  0.00  0.00    +0.013 A 
ATOM     10  C   UNL     1      32.002  -8.247 -21.838  0.00  0.00    +0.060 A 
ATOM     11  C   UNL     1      32.188  -7.520 -19.540  0.00  0.00    +0.001 C 
ATOM     12  C   UNL     1      32.043  -6.928 -22.304  0.00  0.00    +0.017 C 
ATOM     13  C   UNL     1      32.656 -14.000 -20.874  0.00  0.00    +0.249 C 
ATOM     14  C   UNL     1      32.231  -6.197 -19.994  0.00  0.00    +0.000 C 
ATOM     15  C   UNL     1      32.158  -5.908 -21.356  0.00  0.00    +0.001 C 
ENDROOT
BRANCH  13  16
ATOM     16  C   UNL     1      33.150 -14.507 -22.163  0.00  0.00    +0.054 C 
ATOM     17  C   UNL     1      32.576 -14.061 -23.349  0.00  0.00    +0.008 C 
ATOM     18  C   UNL     1      34.190 -15.433 -22.189  0.00  0.00    +0.008 C 
ATOM     19  C   UNL     1      33.045 -14.542 -24.572  0.00  0.00    +0.037 C 
ATOM     20  C   UNL     1      34.659 -15.915 -23.411  0.00  0.00    +0.037 C 
ATOM     21  C   UNL     1      34.086 -15.470 -24.602  0.00  0.00    +0.134 C 
BRANCH  21  22
ATOM     22  O   UNL     1      34.543 -15.941 -25.795  0.00  0.00    -0.506 OA
ATOM     23  H   UNL     1      34.880 -15.347 -26.435  0.00  0.00    +0.292 HD
ENDBRANCH  21  22
ENDBRANCH  13  16
BRANCH   2  24
ATOM     24  C   UNL     1      31.798  -9.539 -23.976  0.00  0.00    +0.132 C 
BRANCH  24  25
ATOM     25  C   UNL     1      33.138  -9.827 -24.597  0.00  0.00    +0.001 C 
ATOM     26  C   UNL     1      33.323 -11.004 -25.311  0.00  0.00    +0.001 C 
ATOM     27  C   UNL     1      34.171  -8.913 -24.446  0.00  0.00    +0.001 C 
ATOM     28  C   UNL     1      34.566 -11.271 -25.886  0.00  0.00    +0.036 C 
ATOM     29  C   UNL     1      35.414  -9.179 -25.022  0.00  0.00    +0.036 C 
ATOM     30  C   UNL     1      35.611 -10.358 -25.740  0.00  0.00    +0.134 C 
BRANCH  30  31
ATOM     31  O   UNL     1      36.824 -10.619 -26.300  0.00  0.00    -0.506 OA
ATOM     32  H   UNL     1      37.529 -10.930 -25.767  0.00  0.00    +0.292 HD
ENDBRANCH  30  31
ENDBRANCH  24  25
ENDBRANCH   2  24
TORSDOF 5
ENDMDL
MODEL 2
REMARK VINA RESULT:      -6.7      2.013      2.672
REMARK  Name = 4470577
REMARK  5 active torsions:
REMARK  status: ('A' for Active; 'I' for Inactive)
REMARK    1  A    between atoms: N_2  and  C_24
REMARK    2  A    between atoms: C_13  and  C_16
REMARK    3  A    between atoms: C_21  and  O_22
REMARK    4  A    between atoms: C_24  and  C_25
REMARK    5  A    between atoms: C_30  and  O_31
REMARK                            x       y       z     vdW  Elec       q    Type
REMARK                         _______ _______ _______ _____ _____    ______ ____
ROOT
ATOM      1  O   UNL     1      33.053 -14.308 -21.913  0.00  0.00    -0.270 OA
ATOM      2  N   UNL     1      31.606  -8.540 -22.618  0.00  0.00    -0.325 N 
ATOM      3  N   UNL     1      32.036 -12.209 -22.095  0.00  0.00    -0.270 N 
ATOM      4  C   UNL     1      31.757  -9.806 -22.127  0.00  0.00    +0.054 A 
ATOM      5  C   UNL     1      32.029  -9.720 -20.779  0.00  0.00    -0.006 A 
ATOM      6  C   UNL     1      32.254 -10.939 -19.956  0.00  0.00    +0.049 C 
ATOM      7  C   UNL     1      31.628 -11.050 -22.930  0.00  0.00    +0.137 C 
ATOM      8  C   UNL     1      31.656 -12.165 -20.666  0.00  0.00    +0.099 C 
ATOM      9  C   UNL     1      32.054  -8.341 -20.432  0.00  0.00    +0.013 A 
ATOM     10  C   UNL     1      31.784  -7.624 -21.603  0.00  0.00    +0.060 A 
ATOM     11  C   UNL     1      32.278  -7.628 -19.237  0.00  0.00    +0.001 C 
ATOM     12  C   UNL     1      31.727  -6.226 -21.633  0.00  0.00    +0.017 C 
ATOM     13  C   UNL     1      32.705 -13.337 -22.584  0.00  0.00    +0.249 C 
ATOM     14  C   UNL     1      32.225  -6.230 -19.254  0.00  0.00    +0.000 C 
ATOM     15  C   UNL     1      31.953  -5.542 -20.435  0.00  0.00    +0.001 C 
ENDROOT
BRANCH  13  16
ATOM     16  C   UNL     1      33.022 -13.390 -24.020  0.00  0.00    +0.054 C 
ATOM     17  C   UNL     1      32.744 -14.541 -24.750  0.00  0.00    +0.008 C 
ATOM     18  C   UNL     1      33.601 -12.285 -24.640  0.00  0.00    +0.008 C 
ATOM     19  C   UNL     1      33.046 -14.591 -26.111  0.00  0.00    +0.037 C 
ATOM     20  C   UNL     1      33.903 -12.334 -26.001  0.00  0.00    +0.037 C 
ATOM     21  C   UNL     1      33.626 -13.486 -26.736  0.00  0.00    +0.134 C 
BRANCH  21  22
ATOM     22  O   UNL     1      33.921 -13.534 -28.064  0.00  0.00    -0.506 OA
ATOM     23  H   UNL     1      34.805 -13.428 -28.352  0.00  0.00    +0.292 HD
ENDBRANCH  21  22
ENDBRANCH  13  16
BRANCH   2  24
ATOM     24  C   UNL     1      31.309  -8.207 -23.994  0.00  0.00    +0.132 C 
BRANCH  24  25
ATOM     25  C   UNL     1      32.401  -7.372 -24.606  0.00  0.00    +0.001 C 
ATOM     26  C   UNL     1      32.072  -6.219 -25.307  0.00  0.00    +0.001 C 
ATOM     27  C   UNL     1      33.724  -7.766 -24.461  0.00  0.00    +0.001 C 
ATOM     28  C   UNL     1      33.084  -5.446 -25.874  0.00  0.00    +0.036 C 
ATOM     29  C   UNL     1      34.738  -6.992 -25.028  0.00  0.00    +0.036 C 
ATOM     30  C   UNL     1      34.418  -5.833 -25.735  0.00  0.00    +0.134 C 
BRANCH  30  31
ATOM     31  O   UNL     1      35.406  -5.079 -26.288  0.00  0.00    -0.506 OA
ATOM     32  H   UNL     1      36.158  -5.494 -26.662  0.00  0.00    +0.292 HD
ENDBRANCH  30  31
ENDBRANCH  24  25
ENDBRANCH   2  24
TORSDOF 5
ENDMDL
MODEL 3
REMARK VINA RESULT:      -6.6      1.956      4.681
REMARK  Name = 4470577
REMARK  5 active torsions:
REMARK  status: ('A' for Active; 'I' for Inactive)
REMARK    1  A    between atoms: N_2  and  C_24
REMARK    2  A    between atoms: C_13  and  C_16
REMARK    3  A    between atoms: C_21  and  O_22
REMARK    4  A    between atoms: C_24  and  C_25
REMARK    5  A    between atoms: C_30  and  O_31
REMARK                            x       y       z     vdW  Elec       q    Type
REMARK                         _______ _______ _______ _____ _____    ______ ____
ROOT
ATOM      1  O   UNL     1      36.140 -10.576 -25.913  0.00  0.00    -0.270 OA
ATOM      2  N   UNL     1      31.395  -8.443 -22.950  0.00  0.00    -0.325 N 
ATOM      3  N   UNL     1      34.556  -9.831 -24.361  0.00  0.00    -0.270 N 
ATOM      4  C   UNL     1      32.655  -8.663 -23.425  0.00  0.00    +0.054 A 
ATOM      5  C   UNL     1      33.272  -7.443 -23.603  0.00  0.00    -0.006 A 
ATOM      6  C   UNL     1      34.663  -7.347 -24.122  0.00  0.00    +0.049 C 
ATOM      7  C   UNL     1      33.246 -10.002 -23.684  0.00  0.00    +0.137 C 
ATOM      8  C   UNL     1      35.388  -8.689 -23.921  0.00  0.00    +0.099 C 
ATOM      9  C   UNL     1      32.344  -6.433 -23.227  0.00  0.00    +0.013 A 
ATOM     10  C   UNL     1      31.176  -7.088 -22.820  0.00  0.00    +0.060 A 
ATOM     11  C   UNL     1      32.379  -5.025 -23.191  0.00  0.00    +0.001 C 
ATOM     12  C   UNL     1      30.042  -6.398 -22.377  0.00  0.00    +0.017 C 
ATOM     13  C   UNL     1      35.059 -10.698 -25.339  0.00  0.00    +0.249 C 
ATOM     14  C   UNL     1      31.251  -4.324 -22.751  0.00  0.00    +0.000 C 
ATOM     15  C   UNL     1      30.101  -5.002 -22.350  0.00  0.00    +0.001 C 
ENDROOT
BRANCH  13  16
ATOM     16  C   UNL     1      34.244 -11.861 -25.722  0.00  0.00    +0.054 C 
ATOM     17  C   UNL     1      33.878 -12.798 -24.760  0.00  0.00    +0.008 C 
ATOM     18  C   UNL     1      33.844 -12.020 -27.046  0.00  0.00    +0.008 C 
ATOM     19  C   UNL     1      33.105 -13.901 -25.123  0.00  0.00    +0.037 C 
ATOM     20  C   UNL     1      33.072 -13.122 -27.410  0.00  0.00    +0.037 C 
ATOM     21  C   UNL     1      32.703 -14.063 -26.449  0.00  0.00    +0.134 C 
BRANCH  21  22
ATOM     22  O   UNL     1      31.950 -15.140 -26.804  0.00  0.00    -0.506 OA
ATOM     23  H   UNL     1      32.154 -15.619 -27.582  0.00  0.00    +0.292 HD
ENDBRANCH  21  22
ENDBRANCH  13  16
BRANCH   2  24
ATOM     24  C   UNL     1      30.429  -9.474 -22.633  0.00  0.00    +0.132 C 
BRANCH  24  25
ATOM     25  C   UNL     1      31.054 -10.589 -21.839  0.00  0.00    +0.001 C 
ATOM     26  C   UNL     1      31.335 -11.798 -22.461  0.00  0.00    +0.001 C 
ATOM     27  C   UNL     1      31.342 -10.393 -20.495  0.00  0.00    +0.001 C 
ATOM     28  C   UNL     1      31.914 -12.832 -21.726  0.00  0.00    +0.036 C 
ATOM     29  C   UNL     1      31.923 -11.427 -19.760  0.00  0.00    +0.036 C 
ATOM     30  C   UNL     1      32.207 -12.646 -20.374  0.00  0.00    +0.134 C 
BRANCH  30  31
ATOM     31  O   UNL     1      32.772 -13.654 -19.656  0.00  0.00    -0.506 OA
ATOM     32  H   UNL     1      32.463 -14.533 -19.759  0.00  0.00    +0.292 HD
ENDBRANCH  30  31
ENDBRANCH  24  25
ENDBRANCH   2  24
TORSDOF 5
ENDMDL
MODEL 4
REMARK VINA RESULT:      -6.3      2.775      7.702
REMARK  Name = 4470577
REMARK  5 active torsions:
REMARK  status: ('A' for Active; 'I' for Inactive)
REMARK    1  A    between atoms: N_2  and  C_24
REMARK    2  A    between atoms: C_13  and  C_16
REMARK    3  A    between atoms: C_21  and  O_22
REMARK    4  A    between atoms: C_24  and  C_25
REMARK    5  A    between atoms: C_30  and  O_31
REMARK                            x       y       z     vdW  Elec       q    Type
REMARK                         _______ _______ _______ _____ _____    ______ ____
ROOT
ATOM      1  O   UNL     1      33.561 -12.629 -27.349  0.00  0.00    -0.270 OA
ATOM      2  N   UNL     1      34.414 -15.567 -22.202  0.00  0.00    -0.325 N 
ATOM      3  N   UNL     1      33.411 -13.830 -25.347  0.00  0.00    -0.270 N 
ATOM      4  C   UNL     1      34.042 -15.218 -23.468  0.00  0.00    +0.054 A 
ATOM      5  C   UNL     1      34.198 -16.316 -24.286  0.00  0.00    -0.006 A 
ATOM      6  C   UNL     1      33.880 -16.251 -25.738  0.00  0.00    +0.049 C 
ATOM      7  C   UNL     1      33.539 -13.878 -23.868  0.00  0.00    +0.137 C 
ATOM      8  C   UNL     1      32.941 -15.064 -26.013  0.00  0.00    +0.099 C 
ATOM      9  C   UNL     1      34.696 -17.381 -23.486  0.00  0.00    +0.013 A 
ATOM     10  C   UNL     1      34.821 -16.885 -22.184  0.00  0.00    +0.060 A 
ATOM     11  C   UNL     1      35.054 -18.721 -23.738  0.00  0.00    +0.001 C 
ATOM     12  C   UNL     1      35.287 -17.668 -21.121  0.00  0.00    +0.017 C 
ATOM     13  C   UNL     1      33.660 -12.692 -26.124  0.00  0.00    +0.249 C 
ATOM     14  C   UNL     1      35.521 -19.514 -22.684  0.00  0.00    +0.000 C 
ATOM     15  C   UNL     1      35.634 -18.993 -21.396  0.00  0.00    +0.001 C 
ENDROOT
BRANCH  13  16
ATOM     16  C   UNL     1      34.070 -11.457 -25.438  0.00  0.00    +0.054 C 
ATOM     17  C   UNL     1      33.328 -10.985 -24.360  0.00  0.00    +0.008 C 
ATOM     18  C   UNL     1      35.198 -10.766 -25.874  0.00  0.00    +0.008 C 
ATOM     19  C   UNL     1      33.717  -9.813 -23.710  0.00  0.00    +0.037 C 
ATOM     20  C   UNL     1      35.587  -9.595 -25.224  0.00  0.00    +0.037 C 
ATOM     21  C   UNL     1      34.847  -9.118 -24.142  0.00  0.00    +0.134 C 
BRANCH  21  22
ATOM     22  O   UNL     1      35.226  -7.975 -23.509  0.00  0.00    -0.506 OA
ATOM     23  H   UNL     1      34.721  -7.647 -22.792  0.00  0.00    +0.292 HD
ENDBRANCH  21  22
ENDBRANCH  13  16
BRANCH   2  24
ATOM     24  C   UNL     1      34.392 -14.689 -21.051  0.00  0.00    +0.132 C 
BRANCH  24  25
ATOM     25  C   UNL     1      33.212 -13.757 -21.093  0.00  0.00    +0.001 C 
ATOM     26  C   UNL     1      32.355 -13.785 -22.185  0.00  0.00    +0.001 C 
ATOM     27  C   UNL     1      32.996 -12.882 -20.037  0.00  0.00    +0.001 C 
ATOM     28  C   UNL     1      31.261 -12.921 -22.223  0.00  0.00    +0.036 C 
ATOM     29  C   UNL     1      31.901 -12.018 -20.075  0.00  0.00    +0.036 C 
ATOM     30  C   UNL     1      31.035 -12.037 -21.168  0.00  0.00    +0.134 C 
BRANCH  30  31
ATOM     31  O   UNL     1      29.967 -11.193 -21.205  0.00  0.00    -0.506 OA
ATOM     32  H   UNL     1      29.946 -10.439 -20.648  0.00  0.00    +0.292 HD
ENDBRANCH  30  31
ENDBRANCH  24  25
ENDBRANCH   2  24
TORSDOF 5
ENDMDL
MODEL 5
REMARK VINA RESULT:      -6.2     11.907     15.403
REMARK  Name = 4470577
REMARK  5 active torsions:
REMARK  status: ('A' for Active; 'I' for Inactive)
REMARK    1  A    between atoms: N_2  and  C_24
REMARK    2  A    between atoms: C_13  and  C_16
REMARK    3  A    between atoms: C_21  and  O_22
REMARK    4  A    between atoms: C_24  and  C_25
REMARK    5  A    between atoms: C_30  and  O_31
REMARK                            x       y       z     vdW  Elec       q    Type
REMARK                         _______ _______ _______ _____ _____    ______ ____
ROOT
ATOM      1  O   UNL     1      30.284 -23.462 -11.978  0.00  0.00    -0.270 OA
ATOM      2  N   UNL     1      35.139 -24.377 -15.360  0.00  0.00    -0.325 N 
ATOM      3  N   UNL     1      32.261 -23.345 -13.224  0.00  0.00    -0.270 N 
ATOM      4  C   UNL     1      34.290 -24.031 -14.348  0.00  0.00    +0.054 A 
ATOM      5  C   UNL     1      34.891 -24.345 -13.149  0.00  0.00    -0.006 A 
ATOM      6  C   UNL     1      34.209 -24.093 -11.852  0.00  0.00    +0.049 C 
ATOM      7  C   UNL     1      32.955 -23.406 -14.535  0.00  0.00    +0.137 C 
ATOM      8  C   UNL     1      33.098 -23.046 -12.042  0.00  0.00    +0.099 C 
ATOM      9  C   UNL     1      36.161 -24.916 -13.440  0.00  0.00    +0.013 A 
ATOM     10  C   UNL     1      36.291 -24.923 -14.834  0.00  0.00    +0.060 A 
ATOM     11  C   UNL     1      37.215 -25.430 -12.659  0.00  0.00    +0.001 C 
ATOM     12  C   UNL     1      37.429 -25.419 -15.481  0.00  0.00    +0.017 C 
ATOM     13  C   UNL     1      30.880 -23.507 -13.053  0.00  0.00    +0.249 C 
ATOM     14  C   UNL     1      38.357 -25.928 -13.294  0.00  0.00    +0.000 C 
ATOM     15  C   UNL     1      38.461 -25.921 -14.684  0.00  0.00    +0.001 C 
ENDROOT
BRANCH  13  16
ATOM     16  C   UNL     1      30.055 -23.746 -14.247  0.00  0.00    +0.054 C 
ATOM     17  C   UNL     1      29.764 -25.049 -14.639  0.00  0.00    +0.008 C 
ATOM     18  C   UNL     1      29.571 -22.666 -14.980  0.00  0.00    +0.008 C 
ATOM     19  C   UNL     1      28.982 -25.276 -15.772  0.00  0.00    +0.037 C 
ATOM     20  C   UNL     1      28.789 -22.891 -16.112  0.00  0.00    +0.037 C 
ATOM     21  C   UNL     1      28.494 -24.196 -16.508  0.00  0.00    +0.134 C 
BRANCH  21  22
ATOM     22  O   UNL     1      27.732 -24.417 -17.614  0.00  0.00    -0.506 OA
ATOM     23  H   UNL     1      27.980 -24.043 -18.436  0.00  0.00    +0.292 HD
ENDBRANCH  21  22
ENDBRANCH  13  16
BRANCH   2  24
ATOM     24  C   UNL     1      34.873 -24.204 -16.772  0.00  0.00    +0.132 C 
BRANCH  24  25
ATOM     25  C   UNL     1      35.569 -22.986 -17.318  0.00  0.00    +0.001 C 
ATOM     26  C   UNL     1      36.587 -22.392 -16.584  0.00  0.00    +0.001 C 
ATOM     27  C   UNL     1      35.181 -22.471 -18.547  0.00  0.00    +0.001 C 
ATOM     28  C   UNL     1      37.232 -21.264 -17.090  0.00  0.00    +0.036 C 
ATOM     29  C   UNL     1      35.826 -21.342 -19.054  0.00  0.00    +0.036 C 
ATOM     30  C   UNL     1      36.850 -20.738 -18.325  0.00  0.00    +0.134 C 
BRANCH  30  31
ATOM     31  O   UNL     1      37.478 -19.636 -18.818  0.00  0.00    -0.506 OA
ATOM     32  H   UNL     1      37.690 -19.587 -19.730  0.00  0.00    +0.292 HD
ENDBRANCH  30  31
ENDBRANCH  24  25
ENDBRANCH   2  24
TORSDOF 5
ENDMDL
MODEL 6
REMARK VINA RESULT:      -6.0      9.753     14.179
REMARK  Name = 4470577
REMARK  5 active torsions:
REMARK  status: ('A' for Active; 'I' for Inactive)
REMARK    1  A    between atoms: N_2  and  C_24
REMARK    2  A    between atoms: C_13  and  C_16
REMARK    3  A    between atoms: C_21  and  O_22
REMARK    4  A    between atoms: C_24  and  C_25
REMARK    5  A    between atoms: C_30  and  O_31
REMARK                            x       y       z     vdW  Elec       q    Type
REMARK                         _______ _______ _______ _____ _____    ______ ____
ROOT
ATOM      1  O   UNL     1      37.236 -19.879 -19.221  0.00  0.00    -0.270 OA
ATOM      2  N   UNL     1      34.465 -23.822 -15.669  0.00  0.00    -0.325 N 
ATOM      3  N   UNL     1      36.457 -21.740 -18.038  0.00  0.00    -0.270 N 
ATOM      4  C   UNL     1      35.403 -23.065 -16.309  0.00  0.00    +0.054 A 
ATOM      5  C   UNL     1      36.367 -22.702 -15.393  0.00  0.00    -0.006 A 
ATOM      6  C   UNL     1      37.529 -21.860 -15.786  0.00  0.00    +0.049 C 
ATOM      7  C   UNL     1      35.376 -22.718 -17.754  0.00  0.00    +0.137 C 
ATOM      8  C   UNL     1      37.731 -21.927 -17.309  0.00  0.00    +0.099 C 
ATOM      9  C   UNL     1      35.997 -23.255 -14.137  0.00  0.00    +0.013 A 
ATOM     10  C   UNL     1      34.801 -23.954 -14.339  0.00  0.00    +0.060 A 
ATOM     11  C   UNL     1      36.559 -23.233 -12.845  0.00  0.00    +0.001 C 
ATOM     12  C   UNL     1      34.142 -24.632 -13.307  0.00  0.00    +0.017 C 
ATOM     13  C   UNL     1      36.356 -20.700 -18.970  0.00  0.00    +0.249 C 
ATOM     14  C   UNL     1      35.909 -23.907 -11.805  0.00  0.00    +0.000 C 
ATOM     15  C   UNL     1      34.720 -24.596 -12.035  0.00  0.00    +0.001 C 
ENDROOT
BRANCH  13  16
ATOM     16  C   UNL     1      35.102 -20.565 -19.728  0.00  0.00    +0.054 C 
ATOM     17  C   UNL     1      35.050 -19.727 -20.837  0.00  0.00    +0.008 C 
ATOM     18  C   UNL     1      33.974 -21.277 -19.329  0.00  0.00    +0.008 C 
ATOM     19  C   UNL     1      33.861 -19.599 -21.555  0.00  0.00    +0.037 C 
ATOM     20  C   UNL     1      32.785 -21.150 -20.047  0.00  0.00    +0.037 C 
ATOM     21  C   UNL     1      32.728 -20.311 -21.160  0.00  0.00    +0.134 C 
BRANCH  21  22
ATOM     22  O   UNL     1      31.568 -20.186 -21.860  0.00  0.00    -0.506 OA
ATOM     23  H   UNL     1      31.588 -20.116 -22.793  0.00  0.00    +0.292 HD
ENDBRANCH  21  22
ENDBRANCH  13  16
BRANCH   2  24
ATOM     24  C   UNL     1      33.290 -24.398 -16.289  0.00  0.00    +0.132 C 
BRANCH  24  25
ATOM     25  C   UNL     1      32.037 -23.679 -15.866  0.00  0.00    +0.001 C 
ATOM     26  C   UNL     1      31.605 -23.772 -14.550  0.00  0.00    +0.001 C 
ATOM     27  C   UNL     1      31.329 -22.934 -16.800  0.00  0.00    +0.001 C 
ATOM     28  C   UNL     1      30.444 -23.106 -14.159  0.00  0.00    +0.036 C 
ATOM     29  C   UNL     1      30.168 -22.267 -16.408  0.00  0.00    +0.036 C 
ATOM     30  C   UNL     1      29.725 -22.354 -15.089  0.00  0.00    +0.134 C 
BRANCH  30  31
ATOM     31  O   UNL     1      28.591 -21.705 -14.707  0.00  0.00    -0.506 OA
ATOM     32  H   UNL     1      28.562 -20.768 -14.716  0.00  0.00    +0.292 HD
ENDBRANCH  30  31
ENDBRANCH  24  25
ENDBRANCH   2  24
TORSDOF 5
ENDMDL
MODEL 7
REMARK VINA RESULT:      -6.0      2.114      3.348
REMARK  Name = 4470577
REMARK  5 active torsions:
REMARK  status: ('A' for Active; 'I' for Inactive)
REMARK    1  A    between atoms: N_2  and  C_24
REMARK    2  A    between atoms: C_13  and  C_16
REMARK    3  A    between atoms: C_21  and  O_22
REMARK    4  A    between atoms: C_24  and  C_25
REMARK    5  A    between atoms: C_30  and  O_31
REMARK                            x       y       z     vdW  Elec       q    Type
REMARK                         _______ _______ _______ _____ _____    ______ ____
ROOT
ATOM      1  O   UNL     1      31.867 -14.624 -19.961  0.00  0.00    -0.270 OA
ATOM      2  N   UNL     1      33.870 -10.817 -24.125  0.00  0.00    -0.325 N 
ATOM      3  N   UNL     1      32.217 -13.216 -21.796  0.00  0.00    -0.270 N 
ATOM      4  C   UNL     1      33.124 -11.441 -23.167  0.00  0.00    +0.054 A 
ATOM      5  C   UNL     1      32.576 -10.479 -22.346  0.00  0.00    -0.006 A 
ATOM      6  C   UNL     1      31.711 -10.847 -21.193  0.00  0.00    +0.049 C 
ATOM      7  C   UNL     1      32.937 -12.912 -23.058  0.00  0.00    +0.137 C 
ATOM      8  C   UNL     1      31.157 -12.268 -21.389  0.00  0.00    +0.099 C 
ATOM      9  C   UNL     1      33.013  -9.211 -22.819  0.00  0.00    +0.013 A 
ATOM     10  C   UNL     1      33.822  -9.452 -23.935  0.00  0.00    +0.060 A 
ATOM     11  C   UNL     1      32.802  -7.879 -22.410  0.00  0.00    +0.001 C 
ATOM     12  C   UNL     1      34.428  -8.421 -24.662  0.00  0.00    +0.017 C 
ATOM     13  C   UNL     1      32.449 -14.351 -21.009  0.00  0.00    +0.249 C 
ATOM     14  C   UNL     1      33.403  -6.840 -23.128  0.00  0.00    +0.000 C 
ATOM     15  C   UNL     1      34.203  -7.109 -24.237  0.00  0.00    +0.001 C 
ENDROOT
BRANCH  13  16
ATOM     16  C   UNL     1      33.466 -15.314 -21.460  0.00  0.00    +0.054 C 
ATOM     17  C   UNL     1      34.506 -14.889 -22.281  0.00  0.00    +0.008 C 
ATOM     18  C   UNL     1      33.382 -16.646 -21.063  0.00  0.00    +0.008 C 
ATOM     19  C   UNL     1      35.471 -15.802 -22.708  0.00  0.00    +0.037 C 
ATOM     20  C   UNL     1      34.345 -17.559 -21.490  0.00  0.00    +0.037 C 
ATOM     21  C   UNL     1      35.390 -17.137 -22.313  0.00  0.00    +0.134 C 
BRANCH  21  22
ATOM     22  O   UNL     1      36.330 -18.028 -22.730  0.00  0.00    -0.506 OA
ATOM     23  H   UNL     1      36.701 -18.637 -22.123  0.00  0.00    +0.292 HD
ENDBRANCH  21  22
ENDBRANCH  13  16
BRANCH   2  24
ATOM     24  C   UNL     1      34.606 -11.483 -25.178  0.00  0.00    +0.132 C 
BRANCH  24  25
ATOM     25  C   UNL     1      33.857 -12.679 -25.701  0.00  0.00    +0.001 C 
ATOM     26  C   UNL     1      34.128 -13.938 -25.182  0.00  0.00    +0.001 C 
ATOM     27  C   UNL     1      32.905 -12.507 -26.697  0.00  0.00    +0.001 C 
ATOM     28  C   UNL     1      33.434 -15.046 -25.667  0.00  0.00    +0.036 C 
ATOM     29  C   UNL     1      32.210 -13.615 -27.182  0.00  0.00    +0.036 C 
ATOM     30  C   UNL     1      32.475 -14.884 -26.668  0.00  0.00    +0.134 C 
BRANCH  30  31
ATOM     31  O   UNL     1      31.798 -15.966 -27.142  0.00  0.00    -0.506 OA
ATOM     32  H   UNL     1      31.138 -15.855 -27.798  0.00  0.00    +0.292 HD
ENDBRANCH  30  31
ENDBRANCH  24  25
ENDBRANCH   2  24
TORSDOF 5
ENDMDL
MODEL 8
REMARK VINA RESULT:      -5.8      2.422      7.075
REMARK  Name = 4470577
REMARK  5 active torsions:
REMARK  status: ('A' for Active; 'I' for Inactive)
REMARK    1  A    between atoms: N_2  and  C_24
REMARK    2  A    between atoms: C_13  and  C_16
REMARK    3  A    between atoms: C_21  and  O_22
REMARK    4  A    between atoms: C_24  and  C_25
REMARK    5  A    between atoms: C_30  and  O_31
REMARK                            x       y       z     vdW  Elec       q    Type
REMARK                         _______ _______ _______ _____ _____    ______ ____
ROOT
ATOM      1  O   UNL     1      35.104  -9.886 -25.860  0.00  0.00    -0.270 OA
ATOM      2  N   UNL     1      31.993 -13.127 -21.902  0.00  0.00    -0.325 N 
ATOM      3  N   UNL     1      33.618 -11.271 -24.700  0.00  0.00    -0.270 N 
ATOM      4  C   UNL     1      32.721 -12.721 -22.984  0.00  0.00    +0.054 A 
ATOM      5  C   UNL     1      33.631 -13.709 -23.293  0.00  0.00    -0.006 A 
ATOM      6  C   UNL     1      34.580 -13.559 -24.427  0.00  0.00    +0.049 C 
ATOM      7  C   UNL     1      32.532 -11.433 -23.701  0.00  0.00    +0.137 C 
ATOM      8  C   UNL     1      34.059 -12.493 -25.406  0.00  0.00    +0.099 C 
ATOM      9  C   UNL     1      33.457 -14.762 -22.353  0.00  0.00    +0.013 A 
ATOM     10  C   UNL     1      32.424 -14.372 -21.493  0.00  0.00    +0.060 A 
ATOM     11  C   UNL     1      34.076 -16.011 -22.145  0.00  0.00    +0.001 C 
ATOM     12  C   UNL     1      31.980 -15.175 -20.436  0.00  0.00    +0.017 C 
ATOM     13  C   UNL     1      34.204 -10.045 -25.037  0.00  0.00    +0.249 C 
ATOM     14  C   UNL     1      33.642 -16.823 -21.091  0.00  0.00    +0.000 C 
ATOM     15  C   UNL     1      32.609 -16.410 -20.251  0.00  0.00    +0.001 C 
ENDROOT
BRANCH  13  16
ATOM     16  C   UNL     1      33.712  -8.831 -24.367  0.00  0.00    +0.054 C 
ATOM     17  C   UNL     1      34.526  -8.165 -23.456  0.00  0.00    +0.008 C 
ATOM     18  C   UNL     1      32.433  -8.357 -24.647  0.00  0.00    +0.008 C 
ATOM     19  C   UNL     1      34.059  -7.014 -22.820  0.00  0.00    +0.037 C 
ATOM     20  C   UNL     1      31.966  -7.207 -24.011  0.00  0.00    +0.037 C 
ATOM     21  C   UNL     1      32.779  -6.535 -23.098  0.00  0.00    +0.134 C 
BRANCH  21  22
ATOM     22  O   UNL     1      32.323  -5.414 -22.477  0.00  0.00    -0.506 OA
ATOM     23  H   UNL     1      32.193  -5.411 -21.550  0.00  0.00    +0.292 HD
ENDBRANCH  21  22
ENDBRANCH  13  16
BRANCH   2  24
ATOM     24  C   UNL     1      30.934 -12.368 -21.273  0.00  0.00    +0.132 C 
BRANCH  24  25
ATOM     25  C   UNL     1      31.442 -11.058 -20.733  0.00  0.00    +0.001 C 
ATOM     26  C   UNL     1      31.390  -9.923 -21.531  0.00  0.00    +0.001 C 
ATOM     27  C   UNL     1      31.956 -11.004 -19.445  0.00  0.00    +0.001 C 
ATOM     28  C   UNL     1      31.861  -8.709 -21.030  0.00  0.00    +0.036 C 
ATOM     29  C   UNL     1      32.426  -9.789 -18.944  0.00  0.00    +0.036 C 
ATOM     30  C   UNL     1      32.380  -8.643 -19.736  0.00  0.00    +0.134 C 
BRANCH  30  31
ATOM     31  O   UNL     1      32.840  -7.459 -19.248  0.00  0.00    -0.506 OA
ATOM     32  H   UNL     1      32.237  -6.825 -18.911  0.00  0.00    +0.292 HD
ENDBRANCH  30  31
ENDBRANCH  24  25
ENDBRANCH   2  24
TORSDOF 5
ENDMDL
MODEL 9
REMARK VINA RESULT:      -5.3     12.492     15.335
REMARK  Name = 4470577
REMARK  5 active torsions:
REMARK  status: ('A' for Active; 'I' for Inactive)
REMARK    1  A    between atoms: N_2  and  C_24
REMARK    2  A    between atoms: C_13  and  C_16
REMARK    3  A    between atoms: C_21  and  O_22
REMARK    4  A    between atoms: C_24  and  C_25
REMARK    5  A    between atoms: C_30  and  O_31
REMARK                            x       y       z     vdW  Elec       q    Type
REMARK                         _______ _______ _______ _____ _____    ______ ____
ROOT
ATOM      1  O   UNL     1      31.931 -25.444 -12.585  0.00  0.00    -0.270 OA
ATOM      2  N   UNL     1      36.804 -23.064 -15.123  0.00  0.00    -0.325 N 
ATOM      3  N   UNL     1      33.864 -24.260 -13.162  0.00  0.00    -0.270 N 
ATOM      4  C   UNL     1      35.938 -23.680 -14.265  0.00  0.00    +0.054 A 
ATOM      5  C   UNL     1      36.588 -24.746 -13.682  0.00  0.00    -0.006 A 
ATOM      6  C   UNL     1      35.902 -25.626 -12.699  0.00  0.00    +0.049 C 
ATOM      7  C   UNL     1      34.540 -23.245 -14.009  0.00  0.00    +0.137 C 
ATOM      8  C   UNL     1      34.683 -24.898 -12.109  0.00  0.00    +0.099 C 
ATOM      9  C   UNL     1      37.907 -24.788 -14.212  0.00  0.00    +0.013 A 
ATOM     10  C   UNL     1      38.016 -23.722 -15.112  0.00  0.00    +0.060 A 
ATOM     11  C   UNL     1      39.022 -25.627 -14.018  0.00  0.00    +0.001 C 
ATOM     12  C   UNL     1      39.190 -23.455 -15.825  0.00  0.00    +0.017 C 
ATOM     13  C   UNL     1      32.512 -24.607 -13.273  0.00  0.00    +0.249 C 
ATOM     14  C   UNL     1      40.202 -25.372 -14.726  0.00  0.00    +0.000 C 
ATOM     15  C   UNL     1      40.283 -24.301 -15.615  0.00  0.00    +0.001 C 
ENDROOT
BRANCH  13  16
ATOM     16  C   UNL     1      31.699 -23.920 -14.289  0.00  0.00    +0.054 C 
ATOM     17  C   UNL     1      31.161 -22.666 -14.014  0.00  0.00    +0.008 C 
ATOM     18  C   UNL     1      31.471 -24.529 -15.520  0.00  0.00    +0.008 C 
ATOM     19  C   UNL     1      30.390 -22.015 -14.976  0.00  0.00    +0.037 C 
ATOM     20  C   UNL     1      30.700 -23.878 -16.483  0.00  0.00    +0.037 C 
ATOM     21  C   UNL     1      30.159 -22.621 -16.211  0.00  0.00    +0.134 C 
BRANCH  21  22
ATOM     22  O   UNL     1      29.406 -21.987 -17.150  0.00  0.00    -0.506 OA
ATOM     23  H   UNL     1      28.514 -21.769 -16.967  0.00  0.00    +0.292 HD
ENDBRANCH  21  22
ENDBRANCH  13  16
BRANCH   2  24
ATOM     24  C   UNL     1      36.499 -21.899 -15.926  0.00  0.00    +0.132 C 
BRANCH  24  25
ATOM     25  C   UNL     1      35.674 -22.263 -17.132  0.00  0.00    +0.001 C 
ATOM     26  C   UNL     1      34.518 -23.014 -16.969  0.00  0.00    +0.001 C 
ATOM     27  C   UNL     1      36.083 -21.844 -18.390  0.00  0.00    +0.001 C 
ATOM     28  C   UNL     1      33.754 -23.351 -18.086  0.00  0.00    +0.036 C 
ATOM     29  C   UNL     1      35.319 -22.181 -19.508  0.00  0.00    +0.036 C 
ATOM     30  C   UNL     1      34.156 -22.935 -19.356  0.00  0.00    +0.134 C 
BRANCH  30  31
ATOM     31  O   UNL     1      33.411 -23.265 -20.447  0.00  0.00    -0.506 OA
ATOM     32  H   UNL     1      33.831 -23.425 -21.270  0.00  0.00    +0.292 HD
ENDBRANCH  30  31
ENDBRANCH  24  25
ENDBRANCH   2  24
TORSDOF 5
ENDMDL
