MODEL 1
REMARK VINA RESULT:     -10.8      0.000      0.000
REMARK  Name = 131704304
REMARK  10 active torsions:
REMARK  status: ('A' for Active; 'I' for Inactive)
REMARK    1  A    between atoms: N_2  and  C_12
REMARK    2  A    between atoms: N_3  and  C_31
REMARK    3  A    between atoms: C_5  and  O_10
REMARK    4  A    between atoms: C_12  and  C_13
REMARK    5  A    between atoms: C_13  and  N_14
REMARK    6  A    between atoms: N_14  and  C_17
REMARK    7  A    between atoms: C_17  and  C_19
REMARK    8  A    between atoms: C_23  and  N_27
REMARK    9  A    between atoms: C_31  and  C_34
REMARK   10  A    between atoms: C_34  and  C_36
REMARK                            x       y       z     vdW  Elec       q    Type
REMARK                         _______ _______ _______ _____ _____    ______ ____
ROOT
ATOM      1 CL   UNL     1      33.305 -14.722 -26.496  0.00  0.00    -0.064 Cl
ATOM      2  N   UNL     1      33.403 -14.609 -23.837  0.00  0.00    -0.273 N 
ATOM      3  N   UNL     1      34.861 -16.977 -21.354  0.00  0.00    -0.313 N 
ATOM      4  N   UNL     1      34.780 -17.097 -23.687  0.00  0.00    -0.227 NA
ATOM      5  C   UNL     1      33.962 -15.021 -22.541  0.00  0.00    +0.246 C 
ATOM      6  C   UNL     1      33.756 -15.355 -24.958  0.00  0.00    +0.128 C 
ATOM      7  C   UNL     1      34.554 -16.436 -22.581  0.00  0.00    +0.153 C 
ATOM      8  C   UNL     1      34.421 -16.512 -24.869  0.00  0.00    +0.126 C 
ATOM      9  H   UNL     1      34.682 -16.449 -20.542  0.00  0.00    +0.148 HD
ENDROOT
BRANCH   5  10
ATOM     10  O   UNL     1      35.014 -14.153 -22.142  0.00  0.00    -0.362 OA
ATOM     11  H   UNL     1      34.845 -13.262 -22.487  0.00  0.00    +0.213 HD
ENDBRANCH   5  10
BRANCH   2  12
ATOM     12  C   UNL     1      32.644 -13.381 -23.851  0.00  0.00    +0.071 C 
BRANCH  12  13
ATOM     13  C   UNL     1      33.580 -12.205 -24.097  0.00  0.00    -0.060 C 
BRANCH  13  14
ATOM     14  N   UNL     1      33.080 -11.010 -23.429  0.00  0.00    +0.385 N 
ATOM     15  H   UNL     1      33.870 -10.471 -23.075  0.00  0.00    -0.084 HD
ATOM     16  H   UNL     1      32.545 -10.462 -24.104  0.00  0.00    -0.084 HD
BRANCH  14  17
ATOM     17  C   UNL     1      32.207 -11.357 -22.321  0.00  0.00    -0.084 C 
BRANCH  17  19
ATOM     18  N   UNL     1      31.574  -8.791 -19.505  0.00  0.00    +0.375 N 
ATOM     19  C   UNL     1      31.676 -10.097 -21.631  0.00  0.00    -0.041 C 
ATOM     20  C   UNL     1      32.043 -10.041 -20.129  0.00  0.00    -0.067 C 
ATOM     21  C   UNL     1      32.208  -8.854 -22.360  0.00  0.00    -0.008 C 
ATOM     22  C   UNL     1      31.745  -7.579 -21.662  0.00  0.00    -0.043 C 
ATOM     23  C   UNL     1      32.070  -7.578 -20.164  0.00  0.00    -0.135 C 
ATOM     24  C   UNL     1      31.432 -11.201 -19.337  0.00  0.00    -0.024 C 
ATOM     25  H   UNL     1      31.887  -8.780 -18.534  0.00  0.00    -0.087 HD
ATOM     26  H   UNL     1      30.558  -8.780 -19.587  0.00  0.00    -0.087 HD
BRANCH  23  27
ATOM     27  N   UNL     1      33.497  -7.371 -19.918  0.00  0.00    +0.370 N 
ATOM     28  H   UNL     1      34.040  -7.936 -20.570  0.00  0.00    -0.092 HD
ATOM     29  H   UNL     1      33.721  -7.645 -18.962  0.00  0.00    -0.092 HD
ATOM     30  H   UNL     1      33.726  -6.386 -20.051  0.00  0.00    -0.092 HD
ENDBRANCH  23  27
ENDBRANCH  17  19
ENDBRANCH  14  17
ENDBRANCH  13  14
ENDBRANCH  12  13
ENDBRANCH   2  12
BRANCH   3  31
ATOM     31  C   UNL     1      35.429 -18.279 -21.220  0.00  0.00    +0.162 C 
BRANCH  31  34
ATOM     32  F   UNL     1      34.190 -19.843 -22.458  0.00  0.00    -0.196 F 
ATOM     33  F   UNL     1      33.138 -18.708 -20.939  0.00  0.00    -0.196 F 
ATOM     34  C   UNL     1      34.324 -19.334 -21.198  0.00  0.00    +0.316 C 
BRANCH  34  36
ATOM     35  N   UNL     1      35.912 -20.519 -19.780  0.00  0.00    -0.243 NA
ATOM     36  C   UNL     1      34.627 -20.412 -20.184  0.00  0.00    +0.121 C 
ATOM     37  C   UNL     1      33.599 -21.220 -19.725  0.00  0.00    +0.020 C 
ATOM     38  C   UNL     1      33.911 -22.201 -18.791  0.00  0.00    +0.003 C 
ATOM     39  C   UNL     1      36.177 -21.484 -18.871  0.00  0.00    +0.099 C 
ATOM     40  C   UNL     1      35.222 -22.342 -18.351  0.00  0.00    +0.021 C 
ENDBRANCH  34  36
ENDBRANCH  31  34
ENDBRANCH   3  31
TORSDOF 10
ENDMDL
MODEL 2
REMARK VINA RESULT:     -10.6      2.327      3.192
REMARK  Name = 131704304
REMARK  10 active torsions:
REMARK  status: ('A' for Active; 'I' for Inactive)
REMARK    1  A    between atoms: N_2  and  C_12
REMARK    2  A    between atoms: N_3  and  C_31
REMARK    3  A    between atoms: C_5  and  O_10
REMARK    4  A    between atoms: C_12  and  C_13
REMARK    5  A    between atoms: C_13  and  N_14
REMARK    6  A    between atoms: N_14  and  C_17
REMARK    7  A    between atoms: C_17  and  C_19
REMARK    8  A    between atoms: C_23  and  N_27
REMARK    9  A    between atoms: C_31  and  C_34
REMARK   10  A    between atoms: C_34  and  C_36
REMARK                            x       y       z     vdW  Elec       q    Type
REMARK                         _______ _______ _______ _____ _____    ______ ____
ROOT
ATOM      1 CL   UNL     1      31.391 -10.758 -22.362  0.00  0.00    -0.064 Cl
ATOM      2  N   UNL     1      33.270 -12.244 -23.526  0.00  0.00    -0.273 N 
ATOM      3  N   UNL     1      34.591 -15.618 -22.650  0.00  0.00    -0.313 N 
ATOM      4  N   UNL     1      32.943 -14.327 -21.611  0.00  0.00    -0.227 NA
ATOM      5  C   UNL     1      33.940 -13.531 -23.771  0.00  0.00    +0.246 C 
ATOM      6  C   UNL     1      32.350 -12.185 -22.483  0.00  0.00    +0.128 C 
ATOM      7  C   UNL     1      33.786 -14.505 -22.596  0.00  0.00    +0.153 C 
ATOM      8  C   UNL     1      32.196 -13.182 -21.605  0.00  0.00    +0.126 C 
ATOM      9  H   UNL     1      35.210 -15.723 -23.409  0.00  0.00    +0.148 HD
ENDROOT
BRANCH   5  10
ATOM     10  O   UNL     1      33.392 -14.179 -24.910  0.00  0.00    -0.362 OA
ATOM     11  H   UNL     1      32.426 -14.207 -24.833  0.00  0.00    +0.213 HD
ENDBRANCH   5  10
BRANCH   2  12
ATOM     12  C   UNL     1      33.526 -11.192 -24.479  0.00  0.00    +0.071 C 
BRANCH  12  13
ATOM     13  C   UNL     1      34.588 -10.249 -23.927  0.00  0.00    -0.060 C 
BRANCH  13  14
ATOM     14  N   UNL     1      34.326  -8.881 -24.357  0.00  0.00    +0.385 N 
ATOM     15  H   UNL     1      35.100  -8.561 -24.939  0.00  0.00    -0.084 HD
ATOM     16  H   UNL     1      33.452  -8.869 -24.884  0.00  0.00    -0.084 HD
BRANCH  14  17
ATOM     17  C   UNL     1      34.189  -7.992 -23.217  0.00  0.00    -0.084 C 
BRANCH  17  19
ATOM     18  N   UNL     1      31.142  -6.099 -21.787  0.00  0.00    +0.375 N 
ATOM     19  C   UNL     1      32.777  -7.404 -23.151  0.00  0.00    -0.041 C 
ATOM     20  C   UNL     1      32.484  -6.708 -21.800  0.00  0.00    -0.067 C 
ATOM     21  C   UNL     1      32.579  -6.420 -24.315  0.00  0.00    -0.008 C 
ATOM     22  C   UNL     1      31.200  -5.772 -24.244  0.00  0.00    -0.043 C 
ATOM     23  C   UNL     1      30.915  -5.143 -22.876  0.00  0.00    -0.135 C 
ATOM     24  C   UNL     1      32.553  -7.681 -20.618  0.00  0.00    -0.024 C 
ATOM     25  H   UNL     1      31.020  -5.610 -20.899  0.00  0.00    -0.087 HD
ATOM     26  H   UNL     1      30.470  -6.855 -21.910  0.00  0.00    -0.087 HD
BRANCH  23  27
ATOM     27  N   UNL     1      31.671  -3.906 -22.679  0.00  0.00    +0.370 N 
ATOM     28  H   UNL     1      32.038  -3.586 -23.575  0.00  0.00    -0.092 HD
ATOM     29  H   UNL     1      32.444  -4.078 -22.036  0.00  0.00    -0.092 HD
ATOM     30  H   UNL     1      31.057  -3.191 -22.288  0.00  0.00    -0.092 HD
ENDBRANCH  23  27
ENDBRANCH  17  19
ENDBRANCH  14  17
ENDBRANCH  13  14
ENDBRANCH  12  13
ENDBRANCH   2  12
BRANCH   3  31
ATOM     31  C   UNL     1      34.561 -16.626 -21.640  0.00  0.00    +0.162 C 
BRANCH  31  34
ATOM     32  F   UNL     1      36.429 -17.849 -22.367  0.00  0.00    -0.196 F 
ATOM     33  F   UNL     1      34.575 -18.104 -23.464  0.00  0.00    -0.196 F 
ATOM     34  C   UNL     1      35.077 -17.950 -22.203  0.00  0.00    +0.316 C 
BRANCH  34  36
ATOM     35  N   UNL     1      35.722 -19.796 -20.749  0.00  0.00    -0.243 NA
ATOM     36  C   UNL     1      34.703 -19.102 -21.301  0.00  0.00    +0.121 C 
ATOM     37  C   UNL     1      33.363 -19.387 -21.086  0.00  0.00    +0.020 C 
ATOM     38  C   UNL     1      33.052 -20.452 -20.249  0.00  0.00    +0.003 C 
ATOM     39  C   UNL     1      35.381 -20.824 -19.941  0.00  0.00    +0.099 C 
ATOM     40  C   UNL     1      34.074 -21.189 -19.662  0.00  0.00    +0.021 C 
ENDBRANCH  34  36
ENDBRANCH  31  34
ENDBRANCH   3  31
TORSDOF 10
ENDMDL
MODEL 3
REMARK VINA RESULT:     -10.4      1.375      1.992
REMARK  Name = 131704304
REMARK  10 active torsions:
REMARK  status: ('A' for Active; 'I' for Inactive)
REMARK    1  A    between atoms: N_2  and  C_12
REMARK    2  A    between atoms: N_3  and  C_31
REMARK    3  A    between atoms: C_5  and  O_10
REMARK    4  A    between atoms: C_12  and  C_13
REMARK    5  A    between atoms: C_13  and  N_14
REMARK    6  A    between atoms: N_14  and  C_17
REMARK    7  A    between atoms: C_17  and  C_19
REMARK    8  A    between atoms: C_23  and  N_27
REMARK    9  A    between atoms: C_31  and  C_34
REMARK   10  A    between atoms: C_34  and  C_36
REMARK                            x       y       z     vdW  Elec       q    Type
REMARK                         _______ _______ _______ _____ _____    ______ ____
ROOT
ATOM      1 CL   UNL     1      33.342 -14.696 -26.501  0.00  0.00    -0.064 Cl
ATOM      2  N   UNL     1      33.426 -14.587 -23.842  0.00  0.00    -0.273 N 
ATOM      3  N   UNL     1      34.859 -16.967 -21.355  0.00  0.00    -0.313 N 
ATOM      4  N   UNL     1      34.791 -17.083 -23.688  0.00  0.00    -0.227 NA
ATOM      5  C   UNL     1      33.976 -15.004 -22.543  0.00  0.00    +0.246 C 
ATOM      6  C   UNL     1      33.782 -15.333 -24.962  0.00  0.00    +0.128 C 
ATOM      7  C   UNL     1      34.562 -16.422 -22.582  0.00  0.00    +0.153 C 
ATOM      8  C   UNL     1      34.441 -16.493 -24.871  0.00  0.00    +0.126 C 
ATOM      9  H   UNL     1      34.679 -16.439 -20.543  0.00  0.00    +0.148 HD
ENDROOT
BRANCH   5  10
ATOM     10  O   UNL     1      35.030 -14.142 -22.137  0.00  0.00    -0.362 OA
ATOM     11  H   UNL     1      35.544 -14.568 -21.433  0.00  0.00    +0.213 HD
ENDBRANCH   5  10
BRANCH   2  12
ATOM     12  C   UNL     1      32.674 -13.356 -23.858  0.00  0.00    +0.071 C 
BRANCH  12  13
ATOM     13  C   UNL     1      32.019 -13.139 -22.500  0.00  0.00    -0.060 C 
BRANCH  13  14
ATOM     14  N   UNL     1      31.993 -11.719 -22.170  0.00  0.00    +0.385 N 
ATOM     15  H   UNL     1      31.024 -11.421 -22.058  0.00  0.00    -0.084 HD
ATOM     16  H   UNL     1      32.515 -11.578 -21.304  0.00  0.00    -0.084 HD
BRANCH  14  17
ATOM     17  C   UNL     1      32.615 -10.927 -23.218  0.00  0.00    -0.084 C 
BRANCH  17  19
ATOM     18  N   UNL     1      33.843  -7.267 -23.311  0.00  0.00    +0.375 N 
ATOM     19  C   UNL     1      32.935  -9.517 -22.716  0.00  0.00    -0.041 C 
ATOM     20  C   UNL     1      33.602  -8.636 -23.801  0.00  0.00    -0.067 C 
ATOM     21  C   UNL     1      31.648  -8.853 -22.204  0.00  0.00    -0.008 C 
ATOM     22  C   UNL     1      31.922  -7.422 -21.751  0.00  0.00    -0.043 C 
ATOM     23  C   UNL     1      32.635  -6.592 -22.823  0.00  0.00    -0.135 C 
ATOM     24  C   UNL     1      34.952  -9.199 -24.257  0.00  0.00    -0.024 C 
ATOM     25  H   UNL     1      34.232  -6.716 -24.077  0.00  0.00    -0.087 HD
ATOM     26  H   UNL     1      34.482  -7.342 -22.521  0.00  0.00    -0.087 HD
BRANCH  23  27
ATOM     27  N   UNL     1      31.735  -6.230 -23.918  0.00  0.00    +0.370 N 
ATOM     28  H   UNL     1      32.132  -5.449 -24.440  0.00  0.00    -0.092 HD
ATOM     29  H   UNL     1      30.828  -5.960 -23.538  0.00  0.00    -0.092 HD
ATOM     30  H   UNL     1      31.618  -7.030 -24.540  0.00  0.00    -0.092 HD
ENDBRANCH  23  27
ENDBRANCH  17  19
ENDBRANCH  14  17
ENDBRANCH  13  14
ENDBRANCH  12  13
ENDBRANCH   2  12
BRANCH   3  31
ATOM     31  C   UNL     1      35.420 -18.272 -21.220  0.00  0.00    +0.162 C 
BRANCH  31  34
ATOM     32  F   UNL     1      34.173 -19.820 -22.470  0.00  0.00    -0.196 F 
ATOM     33  F   UNL     1      33.127 -18.692 -20.940  0.00  0.00    -0.196 F 
ATOM     34  C   UNL     1      34.310 -19.322 -21.205  0.00  0.00    +0.316 C 
BRANCH  34  36
ATOM     35  N   UNL     1      35.898 -20.544 -19.819  0.00  0.00    -0.243 NA
ATOM     36  C   UNL     1      34.608 -20.409 -20.201  0.00  0.00    +0.121 C 
ATOM     37  C   UNL     1      33.572 -21.198 -19.727  0.00  0.00    +0.020 C 
ATOM     38  C   UNL     1      33.880 -22.189 -18.802  0.00  0.00    +0.003 C 
ATOM     39  C   UNL     1      36.158 -21.518 -18.918  0.00  0.00    +0.099 C 
ATOM     40  C   UNL     1      35.195 -22.358 -18.385  0.00  0.00    +0.021 C 
ENDBRANCH  34  36
ENDBRANCH  31  34
ENDBRANCH   3  31
TORSDOF 10
ENDMDL
MODEL 4
REMARK VINA RESULT:     -10.3      7.467     11.179
REMARK  Name = 131704304
REMARK  10 active torsions:
REMARK  status: ('A' for Active; 'I' for Inactive)
REMARK    1  A    between atoms: N_2  and  C_12
REMARK    2  A    between atoms: N_3  and  C_31
REMARK    3  A    between atoms: C_5  and  O_10
REMARK    4  A    between atoms: C_12  and  C_13
REMARK    5  A    between atoms: C_13  and  N_14
REMARK    6  A    between atoms: N_14  and  C_17
REMARK    7  A    between atoms: C_17  and  C_19
REMARK    8  A    between atoms: C_23  and  N_27
REMARK    9  A    between atoms: C_31  and  C_34
REMARK   10  A    between atoms: C_34  and  C_36
REMARK                            x       y       z     vdW  Elec       q    Type
REMARK                         _______ _______ _______ _____ _____    ______ ____
ROOT
ATOM      1 CL   UNL     1      29.785 -24.938 -15.560  0.00  0.00    -0.064 Cl
ATOM      2  N   UNL     1      32.123 -23.668 -15.694  0.00  0.00    -0.273 N 
ATOM      3  N   UNL     1      34.938 -23.494 -13.256  0.00  0.00    -0.313 N 
ATOM      4  N   UNL     1      32.890 -24.611 -13.118  0.00  0.00    -0.227 NA
ATOM      5  C   UNL     1      33.512 -23.458 -15.257  0.00  0.00    +0.246 C 
ATOM      6  C   UNL     1      31.321 -24.497 -14.914  0.00  0.00    +0.128 C 
ATOM      7  C   UNL     1      33.742 -23.894 -13.804  0.00  0.00    +0.153 C 
ATOM      8  C   UNL     1      31.706 -24.947 -13.715  0.00  0.00    +0.126 C 
ATOM      9  H   UNL     1      35.559 -22.960 -13.804  0.00  0.00    +0.148 HD
ENDROOT
BRANCH   5  10
ATOM     10  O   UNL     1      34.415 -24.211 -16.054  0.00  0.00    -0.362 OA
ATOM     11  H   UNL     1      34.755 -23.654 -16.771  0.00  0.00    +0.213 HD
ENDBRANCH   5  10
BRANCH   2  12
ATOM     12  C   UNL     1      31.756 -23.106 -16.970  0.00  0.00    +0.071 C 
BRANCH  12  13
ATOM     13  C   UNL     1      33.013 -22.745 -17.751  0.00  0.00    -0.060 C 
BRANCH  13  14
ATOM     14  N   UNL     1      32.670 -21.967 -18.935  0.00  0.00    +0.385 N 
ATOM     15  H   UNL     1      31.864 -22.394 -19.392  0.00  0.00    -0.084 HD
ATOM     16  H   UNL     1      32.453 -21.013 -18.644  0.00  0.00    -0.084 HD
BRANCH  14  17
ATOM     17  C   UNL     1      33.780 -21.923 -19.871  0.00  0.00    -0.084 C 
BRANCH  17  19
ATOM     18  N   UNL     1      36.305 -19.099 -20.619  0.00  0.00    +0.375 N 
ATOM     19  C   UNL     1      34.338 -20.502 -19.987  0.00  0.00    -0.041 C 
ATOM     20  C   UNL     1      35.813 -20.479 -20.457  0.00  0.00    -0.067 C 
ATOM     21  C   UNL     1      33.457 -19.685 -20.945  0.00  0.00    -0.008 C 
ATOM     22  C   UNL     1      34.021 -18.280 -21.129  0.00  0.00    -0.043 C 
ATOM     23  C   UNL     1      35.498 -18.287 -21.537  0.00  0.00    -0.135 C 
ATOM     24  C   UNL     1      36.748 -21.181 -19.468  0.00  0.00    -0.024 C 
ATOM     25  H   UNL     1      37.259 -19.139 -20.980  0.00  0.00    -0.087 HD
ATOM     26  H   UNL     1      36.252 -18.654 -19.703  0.00  0.00    -0.087 HD
BRANCH  23  27
ATOM     27  N   UNL     1      35.676 -18.700 -22.928  0.00  0.00    +0.370 N 
ATOM     28  H   UNL     1      36.421 -19.394 -22.984  0.00  0.00    -0.092 HD
ATOM     29  H   UNL     1      35.922 -17.889 -23.495  0.00  0.00    -0.092 HD
ATOM     30  H   UNL     1      34.807 -19.107 -23.275  0.00  0.00    -0.092 HD
ENDBRANCH  23  27
ENDBRANCH  17  19
ENDBRANCH  14  17
ENDBRANCH  13  14
ENDBRANCH  12  13
ENDBRANCH   2  12
BRANCH   3  31
ATOM     31  C   UNL     1      35.309 -23.828 -11.919  0.00  0.00    +0.162 C 
BRANCH  31  34
ATOM     32  F   UNL     1      37.165 -24.175 -10.523  0.00  0.00    -0.196 F 
ATOM     33  F   UNL     1      37.065 -22.301 -11.610  0.00  0.00    -0.196 F 
ATOM     34  C   UNL     1      36.814 -23.638 -11.729  0.00  0.00    +0.316 C 
BRANCH  34  36
ATOM     35  N   UNL     1      37.739 -23.505 -13.979  0.00  0.00    -0.243 NA
ATOM     36  C   UNL     1      37.584 -24.260 -12.868  0.00  0.00    +0.121 C 
ATOM     37  C   UNL     1      38.086 -25.544 -12.727  0.00  0.00    +0.020 C 
ATOM     38  C   UNL     1      38.793 -26.087 -13.793  0.00  0.00    +0.003 C 
ATOM     39  C   UNL     1      38.432 -24.067 -14.995  0.00  0.00    +0.099 C 
ATOM     40  C   UNL     1      38.973 -25.341 -14.952  0.00  0.00    +0.021 C 
ENDBRANCH  34  36
ENDBRANCH  31  34
ENDBRANCH   3  31
TORSDOF 10
ENDMDL
MODEL 5
REMARK VINA RESULT:     -10.1      1.566      2.059
REMARK  Name = 131704304
REMARK  10 active torsions:
REMARK  status: ('A' for Active; 'I' for Inactive)
REMARK    1  A    between atoms: N_2  and  C_12
REMARK    2  A    between atoms: N_3  and  C_31
REMARK    3  A    between atoms: C_5  and  O_10
REMARK    4  A    between atoms: C_12  and  C_13
REMARK    5  A    between atoms: C_13  and  N_14
REMARK    6  A    between atoms: N_14  and  C_17
REMARK    7  A    between atoms: C_17  and  C_19
REMARK    8  A    between atoms: C_23  and  N_27
REMARK    9  A    between atoms: C_31  and  C_34
REMARK   10  A    between atoms: C_34  and  C_36
REMARK                            x       y       z     vdW  Elec       q    Type
REMARK                         _______ _______ _______ _____ _____    ______ ____
ROOT
ATOM      1 CL   UNL     1      32.678 -13.871 -26.658  0.00  0.00    -0.064 Cl
ATOM      2  N   UNL     1      33.122 -14.259 -24.060  0.00  0.00    -0.273 N 
ATOM      3  N   UNL     1      34.753 -17.093 -22.269  0.00  0.00    -0.313 N 
ATOM      4  N   UNL     1      34.367 -16.773 -24.552  0.00  0.00    -0.227 NA
ATOM      5  C   UNL     1      33.820 -14.923 -22.949  0.00  0.00    +0.246 C 
ATOM      6  C   UNL     1      33.287 -14.793 -25.336  0.00  0.00    +0.128 C 
ATOM      7  C   UNL     1      34.322 -16.323 -23.325  0.00  0.00    +0.153 C 
ATOM      8  C   UNL     1      33.893 -15.966 -25.549  0.00  0.00    +0.126 C 
ATOM      9  H   UNL     1      34.710 -16.720 -21.359  0.00  0.00    +0.148 HD
ENDROOT
BRANCH   5  10
ATOM     10  O   UNL     1      34.961 -14.178 -22.547  0.00  0.00    -0.362 OA
ATOM     11  H   UNL     1      35.693 -14.785 -22.357  0.00  0.00    +0.213 HD
ENDBRANCH   5  10
BRANCH   2  12
ATOM     12  C   UNL     1      32.438 -13.027 -23.749  0.00  0.00    +0.071 C 
BRANCH  12  13
ATOM     13  C   UNL     1      31.967 -13.056 -22.301  0.00  0.00    -0.060 C 
BRANCH  13  14
ATOM     14  N   UNL     1      31.159 -11.879 -22.006  0.00  0.00    +0.385 N 
ATOM     15  H   UNL     1      30.815 -11.484 -22.881  0.00  0.00    -0.084 HD
ATOM     16  H   UNL     1      30.381 -12.161 -21.409  0.00  0.00    -0.084 HD
BRANCH  14  17
ATOM     17  C   UNL     1      31.938 -10.873 -21.305  0.00  0.00    -0.084 C 
BRANCH  17  19
ATOM     18  N   UNL     1      32.125  -7.033 -21.664  0.00  0.00    +0.375 N 
ATOM     19  C   UNL     1      31.602  -9.470 -21.817  0.00  0.00    -0.041 C 
ATOM     20  C   UNL     1      32.423  -8.365 -21.109  0.00  0.00    -0.067 C 
ATOM     21  C   UNL     1      31.825  -9.414 -23.336  0.00  0.00    -0.008 C 
ATOM     22  C   UNL     1      31.555  -8.011 -23.869  0.00  0.00    -0.043 C 
ATOM     23  C   UNL     1      32.337  -6.933 -23.112  0.00  0.00    -0.135 C 
ATOM     24  C   UNL     1      32.141  -8.305 -19.605  0.00  0.00    -0.024 C 
ATOM     25  H   UNL     1      32.728  -6.351 -21.202  0.00  0.00    -0.087 HD
ATOM     26  H   UNL     1      31.135  -6.855 -21.495  0.00  0.00    -0.087 HD
BRANCH  23  27
ATOM     27  N   UNL     1      33.759  -6.950 -23.455  0.00  0.00    +0.370 N 
ATOM     28  H   UNL     1      33.866  -6.845 -24.463  0.00  0.00    -0.092 HD
ATOM     29  H   UNL     1      34.169  -7.836 -23.160  0.00  0.00    -0.092 HD
ATOM     30  H   UNL     1      34.232  -6.182 -22.981  0.00  0.00    -0.092 HD
ENDBRANCH  23  27
ENDBRANCH  17  19
ENDBRANCH  14  17
ENDBRANCH  13  14
ENDBRANCH  12  13
ENDBRANCH   2  12
BRANCH   3  31
ATOM     31  C   UNL     1      35.260 -18.414 -22.452  0.00  0.00    +0.162 C 
BRANCH  31  34
ATOM     32  F   UNL     1      36.099 -17.825 -20.339  0.00  0.00    -0.196 F 
ATOM     33  F   UNL     1      37.212 -19.291 -21.487  0.00  0.00    -0.196 F 
ATOM     34  C   UNL     1      35.943 -18.896 -21.172  0.00  0.00    +0.316 C 
BRANCH  34  36
ATOM     35  N   UNL     1      33.804 -19.902 -20.580  0.00  0.00    -0.243 NA
ATOM     36  C   UNL     1      35.150 -20.005 -20.523  0.00  0.00    +0.121 C 
ATOM     37  C   UNL     1      35.823 -21.052 -19.913  0.00  0.00    +0.020 C 
ATOM     38  C   UNL     1      35.064 -22.058 -19.326  0.00  0.00    +0.003 C 
ATOM     39  C   UNL     1      33.100 -20.899 -19.999  0.00  0.00    +0.099 C 
ATOM     40  C   UNL     1      33.676 -21.987 -19.365  0.00  0.00    +0.021 C 
ENDBRANCH  34  36
ENDBRANCH  31  34
ENDBRANCH   3  31
TORSDOF 10
ENDMDL
MODEL 6
REMARK VINA RESULT:     -10.1      4.224     11.382
REMARK  Name = 131704304
REMARK  10 active torsions:
REMARK  status: ('A' for Active; 'I' for Inactive)
REMARK    1  A    between atoms: N_2  and  C_12
REMARK    2  A    between atoms: N_3  and  C_31
REMARK    3  A    between atoms: C_5  and  O_10
REMARK    4  A    between atoms: C_12  and  C_13
REMARK    5  A    between atoms: C_13  and  N_14
REMARK    6  A    between atoms: N_14  and  C_17
REMARK    7  A    between atoms: C_17  and  C_19
REMARK    8  A    between atoms: C_23  and  N_27
REMARK    9  A    between atoms: C_31  and  C_34
REMARK   10  A    between atoms: C_34  and  C_36
REMARK                            x       y       z     vdW  Elec       q    Type
REMARK                         _______ _______ _______ _____ _____    ______ ____
ROOT
ATOM      1 CL   UNL     1      33.347 -22.237 -18.406  0.00  0.00    -0.064 Cl
ATOM      2  N   UNL     1      35.331 -21.224 -19.866  0.00  0.00    -0.273 N 
ATOM      3  N   UNL     1      35.273 -18.814 -22.710  0.00  0.00    -0.313 N 
ATOM      4  N   UNL     1      33.518 -19.696 -21.444  0.00  0.00    -0.227 NA
ATOM      5  C   UNL     1      35.882 -20.217 -20.786  0.00  0.00    +0.246 C 
ATOM      6  C   UNL     1      33.954 -21.229 -19.666  0.00  0.00    +0.128 C 
ATOM      7  C   UNL     1      34.801 -19.571 -21.663  0.00  0.00    +0.153 C 
ATOM      8  C   UNL     1      33.119 -20.489 -20.404  0.00  0.00    +0.126 C 
ATOM      9  H   UNL     1      36.246 -18.737 -22.842  0.00  0.00    +0.148 HD
ENDROOT
BRANCH   5  10
ATOM     10  O   UNL     1      36.506 -19.161 -20.068  0.00  0.00    -0.362 OA
ATOM     11  H   UNL     1      36.608 -18.391 -20.650  0.00  0.00    +0.213 HD
ENDBRANCH   5  10
BRANCH   2  12
ATOM     12  C   UNL     1      36.287 -22.030 -19.145  0.00  0.00    +0.071 C 
BRANCH  12  13
ATOM     13  C   UNL     1      36.684 -21.322 -17.857  0.00  0.00    -0.060 C 
BRANCH  13  14
ATOM     14  N   UNL     1      37.097 -22.292 -16.851  0.00  0.00    +0.385 N 
ATOM     15  H   UNL     1      37.569 -23.070 -17.313  0.00  0.00    -0.084 HD
ATOM     16  H   UNL     1      37.727 -21.830 -16.194  0.00  0.00    -0.084 HD
BRANCH  14  17
ATOM     17  C   UNL     1      35.953 -22.801 -16.114  0.00  0.00    -0.084 C 
BRANCH  17  19
ATOM     18  N   UNL     1      35.993 -25.428 -13.284  0.00  0.00    +0.375 N 
ATOM     19  C   UNL     1      36.403 -23.515 -14.837  0.00  0.00    -0.041 C 
ATOM     20  C   UNL     1      35.501 -24.722 -14.481  0.00  0.00    -0.067 C 
ATOM     21  C   UNL     1      37.864 -23.964 -14.990  0.00  0.00    -0.008 C 
ATOM     22  C   UNL     1      38.325 -24.732 -13.755  0.00  0.00    -0.043 C 
ATOM     23  C   UNL     1      37.382 -25.884 -13.393  0.00  0.00    -0.135 C 
ATOM     24  C   UNL     1      34.055 -24.305 -14.201  0.00  0.00    -0.024 C 
ATOM     25  H   UNL     1      35.398 -26.242 -13.124  0.00  0.00    -0.087 HD
ATOM     26  H   UNL     1      35.958 -24.763 -12.511  0.00  0.00    -0.087 HD
BRANCH  23  27
ATOM     27  N   UNL     1      37.514 -27.006 -14.323  0.00  0.00    +0.370 N 
ATOM     28  H   UNL     1      36.605 -27.450 -14.450  0.00  0.00    -0.092 HD
ATOM     29  H   UNL     1      38.174 -27.685 -13.945  0.00  0.00    -0.092 HD
ATOM     30  H   UNL     1      37.854 -26.665 -15.221  0.00  0.00    -0.092 HD
ENDBRANCH  23  27
ENDBRANCH  17  19
ENDBRANCH  14  17
ENDBRANCH  13  14
ENDBRANCH  12  13
ENDBRANCH   2  12
BRANCH   3  31
ATOM     31  C   UNL     1      34.398 -18.138 -23.612  0.00  0.00    +0.162 C 
BRANCH  31  34
ATOM     32  F   UNL     1      34.918 -16.454 -25.164  0.00  0.00    -0.196 F 
ATOM     33  F   UNL     1      36.161 -16.604 -23.392  0.00  0.00    -0.196 F 
ATOM     34  C   UNL     1      34.867 -16.699 -23.821  0.00  0.00    +0.316 C 
BRANCH  34  36
ATOM     35  N   UNL     1      33.623 -16.037 -21.833  0.00  0.00    -0.243 NA
ATOM     36  C   UNL     1      33.962 -15.727 -23.104  0.00  0.00    +0.121 C 
ATOM     37  C   UNL     1      33.530 -14.588 -23.766  0.00  0.00    +0.020 C 
ATOM     38  C   UNL     1      32.698 -13.712 -23.079  0.00  0.00    +0.003 C 
ATOM     39  C   UNL     1      32.814 -15.161 -21.197  0.00  0.00    +0.099 C 
ATOM     40  C   UNL     1      32.329 -13.996 -21.769  0.00  0.00    +0.021 C 
ENDBRANCH  34  36
ENDBRANCH  31  34
ENDBRANCH   3  31
TORSDOF 10
ENDMDL
MODEL 7
REMARK VINA RESULT:     -10.0      4.087      7.068
REMARK  Name = 131704304
REMARK  10 active torsions:
REMARK  status: ('A' for Active; 'I' for Inactive)
REMARK    1  A    between atoms: N_2  and  C_12
REMARK    2  A    between atoms: N_3  and  C_31
REMARK    3  A    between atoms: C_5  and  O_10
REMARK    4  A    between atoms: C_12  and  C_13
REMARK    5  A    between atoms: C_13  and  N_14
REMARK    6  A    between atoms: N_14  and  C_17
REMARK    7  A    between atoms: C_17  and  C_19
REMARK    8  A    between atoms: C_23  and  N_27
REMARK    9  A    between atoms: C_31  and  C_34
REMARK   10  A    between atoms: C_34  and  C_36
REMARK                            x       y       z     vdW  Elec       q    Type
REMARK                         _______ _______ _______ _____ _____    ______ ____
ROOT
ATOM      1 CL   UNL     1      37.185 -19.819 -20.343  0.00  0.00    -0.064 Cl
ATOM      2  N   UNL     1      34.735 -20.862 -20.401  0.00  0.00    -0.273 N 
ATOM      3  N   UNL     1      33.075 -23.300 -18.120  0.00  0.00    -0.313 N 
ATOM      4  N   UNL     1      35.231 -22.400 -18.056  0.00  0.00    -0.227 NA
ATOM      5  C   UNL     1      33.601 -21.548 -19.762  0.00  0.00    +0.246 C 
ATOM      6  C   UNL     1      35.943 -20.832 -19.710  0.00  0.00    +0.128 C 
ATOM      7  C   UNL     1      34.040 -22.442 -18.594  0.00  0.00    +0.153 C 
ATOM      8  C   UNL     1      36.151 -21.546 -18.598  0.00  0.00    +0.126 C 
ATOM      9  H   UNL     1      32.187 -23.301 -18.546  0.00  0.00    +0.148 HD
ENDROOT
BRANCH   5  10
ATOM     10  O   UNL     1      32.676 -20.611 -19.229  0.00  0.00    -0.362 OA
ATOM     11  H   UNL     1      31.911 -20.540 -19.821  0.00  0.00    +0.213 HD
ENDBRANCH   5  10
BRANCH   2  12
ATOM     12  C   UNL     1      34.454 -20.160 -21.630  0.00  0.00    +0.071 C 
BRANCH  12  13
ATOM     13  C   UNL     1      34.089 -18.714 -21.321  0.00  0.00    -0.060 C 
BRANCH  13  14
ATOM     14  N   UNL     1      35.108 -17.811 -21.842  0.00  0.00    +0.385 N 
ATOM     15  H   UNL     1      36.025 -18.123 -21.522  0.00  0.00    -0.084 HD
ATOM     16  H   UNL     1      35.060 -17.822 -22.861  0.00  0.00    -0.084 HD
BRANCH  14  17
ATOM     17  C   UNL     1      34.883 -16.450 -21.384  0.00  0.00    -0.084 C 
BRANCH  17  19
ATOM     18  N   UNL     1      32.471 -13.690 -22.600  0.00  0.00    +0.375 N 
ATOM     19  C   UNL     1      33.869 -15.735 -22.281  0.00  0.00    -0.041 C 
ATOM     20  C   UNL     1      33.398 -14.385 -21.689  0.00  0.00    -0.067 C 
ATOM     21  C   UNL     1      34.480 -15.525 -23.675  0.00  0.00    -0.008 C 
ATOM     22  C   UNL     1      33.516 -14.761 -24.577  0.00  0.00    -0.043 C 
ATOM     23  C   UNL     1      33.021 -13.458 -23.940  0.00  0.00    -0.135 C 
ATOM     24  C   UNL     1      32.674 -14.559 -20.350  0.00  0.00    -0.024 C 
ATOM     25  H   UNL     1      32.234 -12.787 -22.189  0.00  0.00    -0.087 HD
ATOM     26  H   UNL     1      31.657 -14.293 -22.713  0.00  0.00    -0.087 HD
BRANCH  23  27
ATOM     27  N   UNL     1      34.061 -12.429 -23.930  0.00  0.00    +0.370 N 
ATOM     28  H   UNL     1      33.629 -11.511 -23.826  0.00  0.00    -0.092 HD
ATOM     29  H   UNL     1      34.581 -12.463 -24.807  0.00  0.00    -0.092 HD
ATOM     30  H   UNL     1      34.697 -12.596 -23.151  0.00  0.00    -0.092 HD
ENDBRANCH  23  27
ENDBRANCH  17  19
ENDBRANCH  14  17
ENDBRANCH  13  14
ENDBRANCH  12  13
ENDBRANCH   2  12
BRANCH   3  31
ATOM     31  C   UNL     1      33.320 -24.189 -17.032  0.00  0.00    +0.162 C 
BRANCH  31  34
ATOM     32  F   UNL     1      33.114 -22.412 -15.511  0.00  0.00    -0.196 F 
ATOM     33  F   UNL     1      33.064 -24.428 -14.710  0.00  0.00    -0.196 F 
ATOM     34  C   UNL     1      32.643 -23.669 -15.765  0.00  0.00    +0.316 C 
BRANCH  34  36
ATOM     35  N   UNL     1      30.592 -22.714 -16.671  0.00  0.00    -0.243 NA
ATOM     36  C   UNL     1      31.140 -23.687 -15.911  0.00  0.00    +0.121 C 
ATOM     37  C   UNL     1      30.409 -24.678 -15.274  0.00  0.00    +0.020 C 
ATOM     38  C   UNL     1      29.028 -24.669 -15.429  0.00  0.00    +0.003 C 
ATOM     39  C   UNL     1      29.247 -22.738 -16.799  0.00  0.00    +0.099 C 
ATOM     40  C   UNL     1      28.428 -23.683 -16.205  0.00  0.00    +0.021 C 
ENDBRANCH  34  36
ENDBRANCH  31  34
ENDBRANCH   3  31
TORSDOF 10
ENDMDL
MODEL 8
REMARK VINA RESULT:     -10.0      4.316     11.051
REMARK  Name = 131704304
REMARK  10 active torsions:
REMARK  status: ('A' for Active; 'I' for Inactive)
REMARK    1  A    between atoms: N_2  and  C_12
REMARK    2  A    between atoms: N_3  and  C_31
REMARK    3  A    between atoms: C_5  and  O_10
REMARK    4  A    between atoms: C_12  and  C_13
REMARK    5  A    between atoms: C_13  and  N_14
REMARK    6  A    between atoms: N_14  and  C_17
REMARK    7  A    between atoms: C_17  and  C_19
REMARK    8  A    between atoms: C_23  and  N_27
REMARK    9  A    between atoms: C_31  and  C_34
REMARK   10  A    between atoms: C_34  and  C_36
REMARK                            x       y       z     vdW  Elec       q    Type
REMARK                         _______ _______ _______ _____ _____    ______ ____
ROOT
ATOM      1 CL   UNL     1      32.362 -14.029 -21.699  0.00  0.00    -0.064 Cl
ATOM      2  N   UNL     1      33.143 -12.218 -23.489  0.00  0.00    -0.273 N 
ATOM      3  N   UNL     1      32.189  -8.637 -23.900  0.00  0.00    -0.313 N 
ATOM      4  N   UNL     1      31.487 -10.214 -22.324  0.00  0.00    -0.227 NA
ATOM      5  C   UNL     1      33.302 -10.828 -23.943  0.00  0.00    +0.246 C 
ATOM      6  C   UNL     1      32.342 -12.443 -22.372  0.00  0.00    +0.128 C 
ATOM      7  C   UNL     1      32.257  -9.887 -23.329  0.00  0.00    +0.153 C 
ATOM      8  C   UNL     1      31.587 -11.484 -21.826  0.00  0.00    +0.126 C 
ATOM      9  H   UNL     1      32.787  -8.423 -24.652  0.00  0.00    +0.148 HD
ENDROOT
BRANCH   5  10
ATOM     10  O   UNL     1      34.575 -10.316 -23.574  0.00  0.00    -0.362 OA
ATOM     11  H   UNL     1      35.219 -10.517 -24.271  0.00  0.00    +0.213 HD
ENDBRANCH   5  10
BRANCH   2  12
ATOM     12  C   UNL     1      33.943 -13.212 -24.161  0.00  0.00    +0.071 C 
BRANCH  12  13
ATOM     13  C   UNL     1      33.101 -13.921 -25.213  0.00  0.00    -0.060 C 
BRANCH  13  14
ATOM     14  N   UNL     1      33.318 -15.362 -25.151  0.00  0.00    +0.385 N 
ATOM     15  H   UNL     1      32.540 -15.794 -24.653  0.00  0.00    -0.084 HD
ATOM     16  H   UNL     1      33.378 -15.721 -26.104  0.00  0.00    -0.084 HD
BRANCH  14  17
ATOM     17  C   UNL     1      34.557 -15.675 -24.460  0.00  0.00    -0.084 C 
BRANCH  17  19
ATOM     18  N   UNL     1      34.749 -19.124 -22.735  0.00  0.00    +0.375 N 
ATOM     19  C   UNL     1      34.330 -16.753 -23.398  0.00  0.00    -0.041 C 
ATOM     20  C   UNL     1      34.928 -18.122 -23.801  0.00  0.00    -0.067 C 
ATOM     21  C   UNL     1      34.920 -16.283 -22.059  0.00  0.00    -0.008 C 
ATOM     22  C   UNL     1      34.763 -17.361 -20.992  0.00  0.00    -0.043 C 
ATOM     23  C   UNL     1      35.311 -18.720 -21.442  0.00  0.00    -0.135 C 
ATOM     24  C   UNL     1      34.282 -18.688 -25.070  0.00  0.00    -0.024 C 
ATOM     25  H   UNL     1      35.206 -19.989 -23.028  0.00  0.00    -0.087 HD
ATOM     26  H   UNL     1      33.745 -19.240 -22.601  0.00  0.00    -0.087 HD
BRANCH  23  27
ATOM     27  N   UNL     1      36.773 -18.738 -21.455  0.00  0.00    +0.370 N 
ATOM     28  H   UNL     1      37.113 -18.189 -22.244  0.00  0.00    -0.092 HD
ATOM     29  H   UNL     1      37.101 -19.700 -21.544  0.00  0.00    -0.092 HD
ATOM     30  H   UNL     1      37.126 -18.338 -20.586  0.00  0.00    -0.092 HD
ENDBRANCH  23  27
ENDBRANCH  17  19
ENDBRANCH  14  17
ENDBRANCH  13  14
ENDBRANCH  12  13
ENDBRANCH   2  12
BRANCH   3  31
ATOM     31  C   UNL     1      31.277  -7.642 -23.438  0.00  0.00    +0.162 C 
BRANCH  31  34
ATOM     32  F   UNL     1      33.203  -6.685 -22.494  0.00  0.00    -0.196 F 
ATOM     33  F   UNL     1      31.315  -5.667 -22.169  0.00  0.00    -0.196 F 
ATOM     34  C   UNL     1      32.029  -6.353 -23.109  0.00  0.00    +0.316 C 
BRANCH  34  36
ATOM     35  N   UNL     1      33.258  -5.933 -25.171  0.00  0.00    -0.243 NA
ATOM     36  C   UNL     1      32.260  -5.530 -24.355  0.00  0.00    +0.121 C 
ATOM     37  C   UNL     1      31.456  -4.428 -24.597  0.00  0.00    +0.020 C 
ATOM     38  C   UNL     1      31.691  -3.693 -25.753  0.00  0.00    +0.003 C 
ATOM     39  C   UNL     1      33.457  -5.194 -26.285  0.00  0.00    +0.099 C 
ATOM     40  C   UNL     1      32.710  -4.077 -26.619  0.00  0.00    +0.021 C 
ENDBRANCH  34  36
ENDBRANCH  31  34
ENDBRANCH   3  31
TORSDOF 10
ENDMDL
MODEL 9
REMARK VINA RESULT:      -9.9      7.341     12.143
REMARK  Name = 131704304
REMARK  10 active torsions:
REMARK  status: ('A' for Active; 'I' for Inactive)
REMARK    1  A    between atoms: N_2  and  C_12
REMARK    2  A    between atoms: N_3  and  C_31
REMARK    3  A    between atoms: C_5  and  O_10
REMARK    4  A    between atoms: C_12  and  C_13
REMARK    5  A    between atoms: C_13  and  N_14
REMARK    6  A    between atoms: N_14  and  C_17
REMARK    7  A    between atoms: C_17  and  C_19
REMARK    8  A    between atoms: C_23  and  N_27
REMARK    9  A    between atoms: C_31  and  C_34
REMARK   10  A    between atoms: C_34  and  C_36
REMARK                            x       y       z     vdW  Elec       q    Type
REMARK                         _______ _______ _______ _____ _____    ______ ____
ROOT
ATOM      1 CL   UNL     1      38.109 -24.971 -12.790  0.00  0.00    -0.064 Cl
ATOM      2  N   UNL     1      36.008 -24.062 -14.150  0.00  0.00    -0.273 N 
ATOM      3  N   UNL     1      35.824 -22.050 -17.284  0.00  0.00    -0.313 N 
ATOM      4  N   UNL     1      37.681 -22.835 -16.101  0.00  0.00    -0.227 NA
ATOM      5  C   UNL     1      35.384 -23.531 -15.372  0.00  0.00    +0.246 C 
ATOM      6  C   UNL     1      37.398 -24.122 -14.110  0.00  0.00    +0.128 C 
ATOM      7  C   UNL     1      36.384 -22.783 -16.263  0.00  0.00    +0.153 C 
ATOM      8  C   UNL     1      38.167 -23.557 -15.047  0.00  0.00    +0.126 C 
ATOM      9  H   UNL     1      34.843 -22.038 -17.380  0.00  0.00    +0.148 HD
ENDROOT
BRANCH   5  10
ATOM     10  O   UNL     1      34.842 -24.580 -16.163  0.00  0.00    -0.362 OA
ATOM     11  H   UNL     1      35.474 -24.820 -16.858  0.00  0.00    +0.213 HD
ENDBRANCH   5  10
BRANCH   2  12
ATOM     12  C   UNL     1      35.116 -24.603 -13.153  0.00  0.00    +0.071 C 
BRANCH  12  13
ATOM     13  C   UNL     1      33.735 -23.980 -13.310  0.00  0.00    -0.060 C 
BRANCH  13  14
ATOM     14  N   UNL     1      32.773 -24.981 -13.756  0.00  0.00    +0.385 N 
ATOM     15  H   UNL     1      32.940 -25.187 -14.741  0.00  0.00    -0.084 HD
ATOM     16  H   UNL     1      32.893 -25.821 -13.189  0.00  0.00    -0.084 HD
BRANCH  14  17
ATOM     17  C   UNL     1      31.411 -24.505 -13.595  0.00  0.00    -0.084 C 
BRANCH  17  19
ATOM     18  N   UNL     1      28.610 -24.354 -16.250  0.00  0.00    +0.375 N 
ATOM     19  C   UNL     1      30.746 -24.286 -14.957  0.00  0.00    -0.041 C 
ATOM     20  C   UNL     1      29.237 -24.632 -14.945  0.00  0.00    -0.067 C 
ATOM     21  C   UNL     1      30.960 -22.831 -15.402  0.00  0.00    -0.008 C 
ATOM     22  C   UNL     1      30.258 -22.564 -16.729  0.00  0.00    -0.043 C 
ATOM     23  C   UNL     1      28.781 -22.970 -16.706  0.00  0.00    -0.135 C 
ATOM     24  C   UNL     1      28.981 -26.107 -14.623  0.00  0.00    -0.024 C 
ATOM     25  H   UNL     1      27.611 -24.546 -16.173  0.00  0.00    -0.087 HD
ATOM     26  H   UNL     1      29.071 -24.952 -16.935  0.00  0.00    -0.087 HD
BRANCH  23  27
ATOM     27  N   UNL     1      27.973 -22.036 -15.922  0.00  0.00    +0.370 N 
ATOM     28  H   UNL     1      26.985 -22.249 -16.053  0.00  0.00    -0.092 HD
ATOM     29  H   UNL     1      28.159 -21.083 -16.232  0.00  0.00    -0.092 HD
ATOM     30  H   UNL     1      28.212 -22.126 -14.935  0.00  0.00    -0.092 HD
ENDBRANCH  23  27
ENDBRANCH  17  19
ENDBRANCH  14  17
ENDBRANCH  13  14
ENDBRANCH  12  13
ENDBRANCH   2  12
BRANCH   3  31
ATOM     31  C   UNL     1      36.617 -21.307 -18.207  0.00  0.00    +0.162 C 
BRANCH  31  34
ATOM     32  F   UNL     1      35.319 -22.664 -19.617  0.00  0.00    -0.196 F 
ATOM     33  F   UNL     1      37.243 -21.994 -20.363  0.00  0.00    -0.196 F 
ATOM     34  C   UNL     1      36.159 -21.587 -19.638  0.00  0.00    +0.316 C 
BRANCH  34  36
ATOM     35  N   UNL     1      36.316 -19.352 -20.596  0.00  0.00    -0.243 NA
ATOM     36  C   UNL     1      35.500 -20.370 -20.241  0.00  0.00    +0.121 C 
ATOM     37  C   UNL     1      34.124 -20.353 -20.400  0.00  0.00    +0.020 C 
ATOM     38  C   UNL     1      33.547 -19.218 -20.961  0.00  0.00    +0.003 C 
ATOM     39  C   UNL     1      35.719 -18.266 -21.138  0.00  0.00    +0.099 C 
ATOM     40  C   UNL     1      34.354 -18.151 -21.339  0.00  0.00    +0.021 C 
ENDBRANCH  34  36
ENDBRANCH  31  34
ENDBRANCH   3  31
TORSDOF 10
ENDMDL
