MODEL 1
REMARK VINA RESULT:      -4.1      0.000      0.000
REMARK  Name = 79014
REMARK  4 active torsions:
REMARK  status: ('A' for Active; 'I' for Inactive)
REMARK    1  A    between atoms: C_1  and  O_2
REMARK    2  A    between atoms: C_1  and  C_5
REMARK    3  A    between atoms: C_1  and  C_6
REMARK    4  A    between atoms: C_6  and  O_7
REMARK                            x       y       z     vdW  Elec       q    Type
REMARK                         _______ _______ _______ _____ _____    ______ ____
ROOT
ATOM      1  C   UNL     1      38.904 -24.927 -14.588  0.00  0.00    +0.205 C 
ENDROOT
BRANCH   1   2
ATOM      2  O   UNL     1      38.693 -23.902 -15.540  0.00  0.00    -0.375 OA
ATOM      3  H   UNL     1      38.730 -24.277 -16.434  0.00  0.00    +0.211 HD
ENDBRANCH   1   2
BRANCH   1   5
ATOM      4  O   UNL     1      38.143 -27.230 -14.686  0.00  0.00    -0.286 OA
ATOM      5  C   UNL     1      37.897 -26.034 -14.820  0.00  0.00    +0.239 C 
ENDBRANCH   1   5
BRANCH   1   6
ATOM      6  C   UNL     1      40.320 -25.459 -14.747  0.00  0.00    +0.174 C 
BRANCH   6   7
ATOM      7  O   UNL     1      40.490 -25.988 -16.054  0.00  0.00    -0.379 OA
ATOM      8  H   UNL     1      40.396 -26.953 -16.026  0.00  0.00    +0.211 HD
ENDBRANCH   6   7
ENDBRANCH   1   6
TORSDOF 4
ENDMDL
MODEL 2
REMARK VINA RESULT:      -4.1     12.288     13.231
REMARK  Name = 79014
REMARK  4 active torsions:
REMARK  status: ('A' for Active; 'I' for Inactive)
REMARK    1  A    between atoms: C_1  and  O_2
REMARK    2  A    between atoms: C_1  and  C_5
REMARK    3  A    between atoms: C_1  and  C_6
REMARK    4  A    between atoms: C_6  and  O_7
REMARK                            x       y       z     vdW  Elec       q    Type
REMARK                         _______ _______ _______ _____ _____    ______ ____
ROOT
ATOM      1  C   UNL     1      26.817 -21.830 -16.620  0.00  0.00    +0.205 C 
ENDROOT
BRANCH   1   2
ATOM      2  O   UNL     1      25.737 -22.165 -15.768  0.00  0.00    -0.375 OA
ATOM      3  H   UNL     1      26.080 -22.530 -14.938  0.00  0.00    +0.211 HD
ENDBRANCH   1   2
BRANCH   1   5
ATOM      4  O   UNL     1      27.648 -23.890 -17.598  0.00  0.00    -0.286 OA
ATOM      5  C   UNL     1      27.744 -23.022 -16.736  0.00  0.00    +0.239 C 
ENDBRANCH   1   5
BRANCH   1   6
ATOM      6  C   UNL     1      26.265 -21.454 -17.986  0.00  0.00    +0.174 C 
BRANCH   6   7
ATOM      7  O   UNL     1      25.960 -20.067 -18.015  0.00  0.00    -0.379 OA
ATOM      8  H   UNL     1      25.620 -19.830 -18.892  0.00  0.00    +0.211 HD
ENDBRANCH   6   7
ENDBRANCH   1   6
TORSDOF 4
ENDMDL
MODEL 3
REMARK VINA RESULT:      -4.0      4.068      4.816
REMARK  Name = 79014
REMARK  4 active torsions:
REMARK  status: ('A' for Active; 'I' for Inactive)
REMARK    1  A    between atoms: C_1  and  O_2
REMARK    2  A    between atoms: C_1  and  C_5
REMARK    3  A    between atoms: C_1  and  C_6
REMARK    4  A    between atoms: C_6  and  O_7
REMARK                            x       y       z     vdW  Elec       q    Type
REMARK                         _______ _______ _______ _____ _____    ______ ____
ROOT
ATOM      1  C   UNL     1      36.769 -25.032 -12.250  0.00  0.00    +0.205 C 
ENDROOT
BRANCH   1   2
ATOM      2  O   UNL     1      37.095 -26.359 -11.884  0.00  0.00    -0.375 OA
ATOM      3  H   UNL     1      37.619 -26.770 -12.589  0.00  0.00    +0.211 HD
ENDBRANCH   1   2
BRANCH   1   5
ATOM      4  O   UNL     1      35.314 -24.981 -10.309  0.00  0.00    -0.286 OA
ATOM      5  C   UNL     1      35.580 -24.569 -11.434  0.00  0.00    +0.239 C 
ENDBRANCH   1   5
BRANCH   1   6
ATOM      6  C   UNL     1      37.972 -24.140 -11.983  0.00  0.00    +0.174 C 
BRANCH   6   7
ATOM      7  O   UNL     1      37.593 -23.061 -11.142  0.00  0.00    -0.379 OA
ATOM      8  H   UNL     1      38.283 -22.911 -10.478  0.00  0.00    +0.211 HD
ENDBRANCH   6   7
ENDBRANCH   1   6
TORSDOF 4
ENDMDL
MODEL 4
REMARK VINA RESULT:      -4.0      0.735      2.494
REMARK  Name = 79014
REMARK  4 active torsions:
REMARK  status: ('A' for Active; 'I' for Inactive)
REMARK    1  A    between atoms: C_1  and  O_2
REMARK    2  A    between atoms: C_1  and  C_5
REMARK    3  A    between atoms: C_1  and  C_6
REMARK    4  A    between atoms: C_6  and  O_7
REMARK                            x       y       z     vdW  Elec       q    Type
REMARK                         _______ _______ _______ _____ _____    ______ ____
ROOT
ATOM      1  C   UNL     1      38.606 -25.706 -14.575  0.00  0.00    +0.205 C 
ENDROOT
BRANCH   1   2
ATOM      2  O   UNL     1      38.012 -26.607 -15.491  0.00  0.00    -0.375 OA
ATOM      3  H   UNL     1      37.190 -26.957 -15.114  0.00  0.00    +0.211 HD
ENDBRANCH   1   2
BRANCH   1   5
ATOM      4  O   UNL     1      40.663 -26.022 -15.823  0.00  0.00    -0.286 OA
ATOM      5  C   UNL     1      40.107 -25.716 -14.772  0.00  0.00    +0.239 C 
ENDBRANCH   1   5
BRANCH   1   6
ATOM      6  C   UNL     1      38.049 -24.314 -14.827  0.00  0.00    +0.174 C 
BRANCH   6   7
ATOM      7  O   UNL     1      38.845 -23.646 -15.795  0.00  0.00    -0.379 OA
ATOM      8  H   UNL     1      39.157 -22.803 -15.430  0.00  0.00    +0.211 HD
ENDBRANCH   6   7
ENDBRANCH   1   6
TORSDOF 4
ENDMDL
MODEL 5
REMARK VINA RESULT:      -3.9     10.404     11.498
REMARK  Name = 79014
REMARK  4 active torsions:
REMARK  status: ('A' for Active; 'I' for Inactive)
REMARK    1  A    between atoms: C_1  and  O_2
REMARK    2  A    between atoms: C_1  and  C_5
REMARK    3  A    between atoms: C_1  and  C_6
REMARK    4  A    between atoms: C_6  and  O_7
REMARK                            x       y       z     vdW  Elec       q    Type
REMARK                         _______ _______ _______ _____ _____    ______ ____
ROOT
ATOM      1  C   UNL     1      28.194 -23.564 -16.286  0.00  0.00    +0.205 C 
ENDROOT
BRANCH   1   2
ATOM      2  O   UNL     1      27.772 -24.140 -17.507  0.00  0.00    -0.375 OA
ATOM      3  H   UNL     1      28.497 -24.660 -17.888  0.00  0.00    +0.211 HD
ENDBRANCH   1   2
BRANCH   1   5
ATOM      4  O   UNL     1      30.067 -22.278 -17.138  0.00  0.00    -0.286 OA
ATOM      5  C   UNL     1      29.651 -23.167 -16.401  0.00  0.00    +0.239 C 
ENDBRANCH   1   5
BRANCH   1   6
ATOM      6  C   UNL     1      27.334 -22.343 -15.997  0.00  0.00    +0.174 C 
BRANCH   6   7
ATOM      7  O   UNL     1      27.259 -21.524 -17.155  0.00  0.00    -0.379 OA
ATOM      8  H   UNL     1      26.863 -20.670 -16.921  0.00  0.00    +0.211 HD
ENDBRANCH   6   7
ENDBRANCH   1   6
TORSDOF 4
ENDMDL
MODEL 6
REMARK VINA RESULT:      -3.9      1.708      2.430
REMARK  Name = 79014
REMARK  4 active torsions:
REMARK  status: ('A' for Active; 'I' for Inactive)
REMARK    1  A    between atoms: C_1  and  O_2
REMARK    2  A    between atoms: C_1  and  C_5
REMARK    3  A    between atoms: C_1  and  C_6
REMARK    4  A    between atoms: C_6  and  O_7
REMARK                            x       y       z     vdW  Elec       q    Type
REMARK                         _______ _______ _______ _____ _____    ______ ____
ROOT
ATOM      1  C   UNL     1      37.434 -26.750 -14.019  0.00  0.00    +0.205 C 
ENDROOT
BRANCH   1   2
ATOM      2  O   UNL     1      36.678 -26.388 -12.880  0.00  0.00    -0.375 OA
ATOM      3  H   UNL     1      35.742 -26.591 -13.034  0.00  0.00    +0.211 HD
ENDBRANCH   1   2
BRANCH   1   5
ATOM      4  O   UNL     1      36.689 -27.329 -16.255  0.00  0.00    -0.286 OA
ATOM      5  C   UNL     1      36.562 -26.634 -15.252  0.00  0.00    +0.239 C 
ENDBRANCH   1   5
BRANCH   1   6
ATOM      6  C   UNL     1      38.632 -25.820 -14.129  0.00  0.00    +0.174 C 
BRANCH   6   7
ATOM      7  O   UNL     1      39.214 -25.936 -15.419  0.00  0.00    -0.379 OA
ATOM      8  H   UNL     1      38.527 -26.169 -16.063  0.00  0.00    +0.211 HD
ENDBRANCH   6   7
ENDBRANCH   1   6
TORSDOF 4
ENDMDL
MODEL 7
REMARK VINA RESULT:      -3.9      4.350      5.075
REMARK  Name = 79014
REMARK  4 active torsions:
REMARK  status: ('A' for Active; 'I' for Inactive)
REMARK    1  A    between atoms: C_1  and  O_2
REMARK    2  A    between atoms: C_1  and  C_5
REMARK    3  A    between atoms: C_1  and  C_6
REMARK    4  A    between atoms: C_6  and  O_7
REMARK                            x       y       z     vdW  Elec       q    Type
REMARK                         _______ _______ _______ _____ _____    ______ ____
ROOT
ATOM      1  C   UNL     1      36.873 -23.408 -11.926  0.00  0.00    +0.205 C 
ENDROOT
BRANCH   1   2
ATOM      2  O   UNL     1      37.387 -22.345 -11.147  0.00  0.00    -0.375 OA
ATOM      3  H   UNL     1      38.073 -22.683 -10.551  0.00  0.00    +0.211 HD
ENDBRANCH   1   2
BRANCH   1   5
ATOM      4  O   UNL     1      37.940 -25.587 -11.852  0.00  0.00    -0.286 OA
ATOM      5  C   UNL     1      37.979 -24.408 -12.192  0.00  0.00    +0.239 C 
ENDBRANCH   1   5
BRANCH   1   6
ATOM      6  C   UNL     1      35.735 -24.069 -11.165  0.00  0.00    +0.174 C 
BRANCH   6   7
ATOM      7  O   UNL     1      36.099 -24.230  -9.801  0.00  0.00    -0.379 OA
ATOM      8  H   UNL     1      36.974 -24.646  -9.748  0.00  0.00    +0.211 HD
ENDBRANCH   6   7
ENDBRANCH   1   6
TORSDOF 4
ENDMDL
MODEL 8
REMARK VINA RESULT:      -3.8     10.538     11.535
REMARK  Name = 79014
REMARK  4 active torsions:
REMARK  status: ('A' for Active; 'I' for Inactive)
REMARK    1  A    between atoms: C_1  and  O_2
REMARK    2  A    between atoms: C_1  and  C_5
REMARK    3  A    between atoms: C_1  and  C_6
REMARK    4  A    between atoms: C_6  and  O_7
REMARK                            x       y       z     vdW  Elec       q    Type
REMARK                         _______ _______ _______ _____ _____    ______ ____
ROOT
ATOM      1  C   UNL     1      41.117 -14.793 -15.066  0.00  0.00    +0.205 C 
ENDROOT
BRANCH   1   2
ATOM      2  O   UNL     1      40.131 -15.806 -15.109  0.00  0.00    -0.375 OA
ATOM      3  H   UNL     1      40.559 -16.676 -15.091  0.00  0.00    +0.211 HD
ENDBRANCH   1   2
BRANCH   1   5
ATOM      4  O   UNL     1      41.097 -15.001 -17.484  0.00  0.00    -0.286 OA
ATOM      5  C   UNL     1      41.554 -14.465 -16.478  0.00  0.00    +0.239 C 
ENDBRANCH   1   5
BRANCH   1   6
ATOM      6  C   UNL     1      40.526 -13.562 -14.397  0.00  0.00    +0.174 C 
BRANCH   6   7
ATOM      7  O   UNL     1      40.928 -13.516 -13.035  0.00  0.00    -0.379 OA
ATOM      8  H   UNL     1      41.525 -14.257 -12.850  0.00  0.00    +0.211 HD
ENDBRANCH   6   7
ENDBRANCH   1   6
TORSDOF 4
ENDMDL
MODEL 9
REMARK VINA RESULT:      -3.8     10.595     11.541
REMARK  Name = 79014
REMARK  4 active torsions:
REMARK  status: ('A' for Active; 'I' for Inactive)
REMARK    1  A    between atoms: C_1  and  O_2
REMARK    2  A    between atoms: C_1  and  C_5
REMARK    3  A    between atoms: C_1  and  C_6
REMARK    4  A    between atoms: C_6  and  O_7
REMARK                            x       y       z     vdW  Elec       q    Type
REMARK                         _______ _______ _______ _____ _____    ______ ____
ROOT
ATOM      1  C   UNL     1      28.728 -22.853 -16.160  0.00  0.00    +0.205 C 
ENDROOT
BRANCH   1   2
ATOM      2  O   UNL     1      29.648 -22.269 -17.064  0.00  0.00    -0.375 OA
ATOM      3  H   UNL     1      29.259 -21.467 -17.448  0.00  0.00    +0.211 HD
ENDBRANCH   1   2
BRANCH   1   5
ATOM      4  O   UNL     1      27.044 -21.495 -17.259  0.00  0.00    -0.286 OA
ATOM      5  C   UNL     1      27.398 -22.139 -16.276  0.00  0.00    +0.239 C 
ENDBRANCH   1   5
BRANCH   1   6
ATOM      6  C   UNL     1      28.570 -24.325 -16.506  0.00  0.00    +0.174 C 
BRANCH   6   7
ATOM      7  O   UNL     1      27.656 -24.470 -17.582  0.00  0.00    -0.379 OA
ATOM      8  H   UNL     1      26.748 -24.416 -17.245  0.00  0.00    +0.211 HD
ENDBRANCH   6   7
ENDBRANCH   1   6
TORSDOF 4
ENDMDL
