MODEL 1
REMARK VINA RESULT:      -9.7      0.000      0.000
REMARK  Name = 23582412
REMARK  7 active torsions:
REMARK  status: ('A' for Active; 'I' for Inactive)
REMARK    1  A    between atoms: N_1  and  C_11
REMARK    2  A    between atoms: C_4  and  C_26
REMARK    3  A    between atoms: C_11  and  C_12
REMARK    4  A    between atoms: C_13  and  C_25
REMARK    5  A    between atoms: C_15  and  S_18
REMARK    6  A    between atoms: C_26  and  C_28
REMARK    7  A    between atoms: C_28  and  O_29
REMARK                            x       y       z     vdW  Elec       q    Type
REMARK                         _______ _______ _______ _____ _____    ______ ____
ROOT
ATOM      1  N   UNL     1      33.511 -11.220 -24.260  0.00  0.00    -0.312 N 
ATOM      2  N   UNL     1      31.731 -11.695 -22.709  0.00  0.00    -0.227 NA
ATOM      3  C   UNL     1      34.376 -10.185 -24.504  0.00  0.00    +0.036 A 
ATOM      4  C   UNL     1      34.112  -9.183 -23.595  0.00  0.00    +0.004 A 
ATOM      5  C   UNL     1      32.695 -10.899 -23.208  0.00  0.00    +0.143 A 
ATOM      6  C   UNL     1      33.046  -9.626 -22.767  0.00  0.00    +0.032 A 
ATOM      7  C   UNL     1      35.380 -10.245 -25.589  0.00  0.00    +0.050 C 
ATOM      8  C   UNL     1      32.327  -9.096 -21.683  0.00  0.00    +0.004 C 
ATOM      9  C   UNL     1      31.317  -9.879 -21.127  0.00  0.00    +0.021 C 
ATOM     10  C   UNL     1      31.071 -11.135 -21.667  0.00  0.00    +0.101 C 
ENDROOT
BRANCH   1  11
ATOM     11  C   UNL     1      33.461 -12.463 -25.000  0.00  0.00    +0.134 C 
BRANCH  11  12
ATOM     12  C   UNL     1      33.779 -13.641 -24.118  0.00  0.00    +0.004 C 
ATOM     13  C   UNL     1      33.644 -14.947 -24.589  0.00  0.00    +0.071 C 
ATOM     14  C   UNL     1      34.214 -13.411 -22.813  0.00  0.00    -0.001 C 
ATOM     15  C   UNL     1      34.379 -15.793 -22.449  0.00  0.00    +0.106 C 
ATOM     16  C   UNL     1      33.944 -16.024 -23.754  0.00  0.00    +0.022 C 
ATOM     17  C   UNL     1      34.514 -14.487 -21.978  0.00  0.00    +0.018 C 
BRANCH  15  18
ATOM     18  S   UNL     1      34.755 -17.140 -21.404  0.00  0.00    +0.010 S 
ATOM     19  O   UNL     1      35.352 -16.611 -20.186  0.00  0.00    -0.169 OA
ATOM     20  O   UNL     1      33.590 -18.011 -21.318  0.00  0.00    -0.169 OA
ATOM     21  C   UNL     1      36.012 -18.043 -22.282  0.00  0.00    +0.182 C 
ENDBRANCH  15  18
BRANCH  13  25
ATOM     22  F   UNL     1      31.989 -14.618 -26.285  0.00  0.00    -0.166 F 
ATOM     23  F   UNL     1      34.049 -14.790 -26.941  0.00  0.00    -0.166 F 
ATOM     24  F   UNL     1      32.990 -16.547 -26.222  0.00  0.00    -0.166 F 
ATOM     25  C   UNL     1      33.178 -15.217 -25.982  0.00  0.00    +0.418 C 
ENDBRANCH  13  25
ENDBRANCH  11  12
ENDBRANCH   1  11
BRANCH   4  26
ATOM     26  C   UNL     1      34.811  -7.885 -23.500  0.00  0.00    +0.137 C 
BRANCH  26  28
ATOM     27  O   UNL     1      34.647  -6.404 -25.406  0.00  0.00    -0.250 OA
ATOM     28  C   UNL     1      34.155  -6.836 -24.372  0.00  0.00    +0.318 C 
BRANCH  28  29
ATOM     29  O   UNL     1      32.981  -6.388 -23.862  0.00  0.00    -0.480 OA
ATOM     30  H   UNL     1      32.390  -5.903 -24.402  0.00  0.00    +0.295 HD
ENDBRANCH  28  29
ENDBRANCH  26  28
ENDBRANCH   4  26
TORSDOF 7
ENDMDL
MODEL 2
REMARK VINA RESULT:      -9.5      3.320      7.867
REMARK  Name = 23582412
REMARK  7 active torsions:
REMARK  status: ('A' for Active; 'I' for Inactive)
REMARK    1  A    between atoms: N_1  and  C_11
REMARK    2  A    between atoms: C_4  and  C_26
REMARK    3  A    between atoms: C_11  and  C_12
REMARK    4  A    between atoms: C_13  and  C_25
REMARK    5  A    between atoms: C_15  and  S_18
REMARK    6  A    between atoms: C_26  and  C_28
REMARK    7  A    between atoms: C_28  and  O_29
REMARK                            x       y       z     vdW  Elec       q    Type
REMARK                         _______ _______ _______ _____ _____    ______ ____
ROOT
ATOM      1  N   UNL     1      32.855 -14.441 -22.547  0.00  0.00    -0.312 N 
ATOM      2  N   UNL     1      32.975 -14.771 -24.930  0.00  0.00    -0.227 NA
ATOM      3  C   UNL     1      33.460 -14.963 -21.433  0.00  0.00    +0.036 A 
ATOM      4  C   UNL     1      34.361 -15.922 -21.845  0.00  0.00    +0.004 A 
ATOM      5  C   UNL     1      33.353 -15.050 -23.669  0.00  0.00    +0.143 A 
ATOM      6  C   UNL     1      34.301 -15.985 -23.263  0.00  0.00    +0.032 A 
ATOM      7  C   UNL     1      33.121 -14.500 -20.070  0.00  0.00    +0.050 C 
ATOM      8  C   UNL     1      34.943 -16.731 -24.264  0.00  0.00    +0.004 C 
ATOM      9  C   UNL     1      34.589 -16.483 -25.589  0.00  0.00    +0.021 C 
ATOM     10  C   UNL     1      33.625 -15.518 -25.853  0.00  0.00    +0.101 C 
ENDROOT
BRANCH   1  11
ATOM     11  C   UNL     1      31.842 -13.407 -22.545  0.00  0.00    +0.134 C 
BRANCH  11  12
ATOM     12  C   UNL     1      32.433 -12.058 -22.856  0.00  0.00    +0.004 C 
ATOM     13  C   UNL     1      32.123 -10.942 -22.079  0.00  0.00    +0.071 C 
ATOM     14  C   UNL     1      33.301 -11.935 -23.941  0.00  0.00    -0.001 C 
ATOM     15  C   UNL     1      33.550  -9.578 -23.472  0.00  0.00    +0.106 C 
ATOM     16  C   UNL     1      32.682  -9.701 -22.387  0.00  0.00    +0.022 C 
ATOM     17  C   UNL     1      33.860 -10.694 -24.248  0.00  0.00    +0.018 C 
BRANCH  15  18
ATOM     18  S   UNL     1      34.250  -8.025 -23.857  0.00  0.00    +0.010 S 
ATOM     19  O   UNL     1      35.062  -7.605 -22.724  0.00  0.00    -0.169 OA
ATOM     20  O   UNL     1      34.842  -8.091 -25.186  0.00  0.00    -0.169 OA
ATOM     21  C   UNL     1      32.855  -6.927 -23.966  0.00  0.00    +0.182 C 
ENDBRANCH  15  18
BRANCH  13  25
ATOM     22  F   UNL     1      29.931 -11.439 -21.260  0.00  0.00    -0.166 F 
ATOM     23  F   UNL     1      31.601 -11.952 -19.975  0.00  0.00    -0.166 F 
ATOM     24  F   UNL     1      31.046  -9.868 -20.252  0.00  0.00    -0.166 F 
ATOM     25  C   UNL     1      31.194 -11.051 -20.915  0.00  0.00    +0.418 C 
ENDBRANCH  13  25
ENDBRANCH  11  12
ENDBRANCH   1  11
BRANCH   4  26
ATOM     26  C   UNL     1      35.229 -16.736 -20.970  0.00  0.00    +0.137 C 
BRANCH  26  28
ATOM     27  O   UNL     1      33.693 -18.590 -21.215  0.00  0.00    -0.250 OA
ATOM     28  C   UNL     1      34.831 -18.196 -20.993  0.00  0.00    +0.318 C 
BRANCH  28  29
ATOM     29  O   UNL     1      35.862 -19.027 -20.698  0.00  0.00    -0.480 OA
ATOM     30  H   UNL     1      35.691 -19.894 -20.387  0.00  0.00    +0.295 HD
ENDBRANCH  28  29
ENDBRANCH  26  28
ENDBRANCH   4  26
TORSDOF 7
ENDMDL
MODEL 3
REMARK VINA RESULT:      -9.3      1.497      2.873
REMARK  Name = 23582412
REMARK  7 active torsions:
REMARK  status: ('A' for Active; 'I' for Inactive)
REMARK    1  A    between atoms: N_1  and  C_11
REMARK    2  A    between atoms: C_4  and  C_26
REMARK    3  A    between atoms: C_11  and  C_12
REMARK    4  A    between atoms: C_13  and  C_25
REMARK    5  A    between atoms: C_15  and  S_18
REMARK    6  A    between atoms: C_26  and  C_28
REMARK    7  A    between atoms: C_28  and  O_29
REMARK                            x       y       z     vdW  Elec       q    Type
REMARK                         _______ _______ _______ _____ _____    ______ ____
ROOT
ATOM      1  N   UNL     1      32.386 -11.719 -23.450  0.00  0.00    -0.312 N 
ATOM      2  N   UNL     1      34.080 -11.571 -25.157  0.00  0.00    -0.227 NA
ATOM      3  C   UNL     1      31.944 -10.944 -22.410  0.00  0.00    +0.036 A 
ATOM      4  C   UNL     1      32.702  -9.793 -22.381  0.00  0.00    +0.004 A 
ATOM      5  C   UNL     1      33.418 -11.084 -24.090  0.00  0.00    +0.143 A 
ATOM      6  C   UNL     1      33.641  -9.872 -23.444  0.00  0.00    +0.032 A 
ATOM      7  C   UNL     1      30.834 -11.373 -21.532  0.00  0.00    +0.050 C 
ATOM      8  C   UNL     1      34.666  -9.052 -23.943  0.00  0.00    +0.004 C 
ATOM      9  C   UNL     1      35.385  -9.509 -25.047  0.00  0.00    +0.021 C 
ATOM     10  C   UNL     1      35.056 -10.741 -25.595  0.00  0.00    +0.101 C 
ENDROOT
BRANCH   1  11
ATOM     11  C   UNL     1      31.852 -13.013 -23.819  0.00  0.00    +0.134 C 
BRANCH  11  12
ATOM     12  C   UNL     1      32.703 -14.132 -23.281  0.00  0.00    +0.004 C 
ATOM     13  C   UNL     1      33.316 -15.044 -24.141  0.00  0.00    +0.071 C 
ATOM     14  C   UNL     1      32.873 -14.250 -21.902  0.00  0.00    -0.001 C 
ATOM     15  C   UNL     1      34.270 -16.192 -22.242  0.00  0.00    +0.106 C 
ATOM     16  C   UNL     1      34.100 -16.074 -23.621  0.00  0.00    +0.022 C 
ATOM     17  C   UNL     1      33.657 -15.281 -21.382  0.00  0.00    +0.018 C 
BRANCH  15  18
ATOM     18  S   UNL     1      35.251 -17.481 -21.590  0.00  0.00    +0.010 S 
ATOM     19  O   UNL     1      36.266 -17.816 -22.579  0.00  0.00    -0.169 OA
ATOM     20  O   UNL     1      35.651 -17.131 -20.234  0.00  0.00    -0.169 OA
ATOM     21  C   UNL     1      34.137 -18.862 -21.461  0.00  0.00    +0.182 C 
ENDBRANCH  15  18
BRANCH  13  25
ATOM     22  F   UNL     1      34.241 -14.429 -26.261  0.00  0.00    -0.166 F 
ATOM     23  F   UNL     1      32.900 -16.134 -26.229  0.00  0.00    -0.166 F 
ATOM     24  F   UNL     1      32.107 -14.126 -25.971  0.00  0.00    -0.166 F 
ATOM     25  C   UNL     1      33.146 -14.937 -25.621  0.00  0.00    +0.418 C 
ENDBRANCH  13  25
ENDBRANCH  11  12
ENDBRANCH   1  11
BRANCH   4  26
ATOM     26  C   UNL     1      32.563  -8.681 -21.419  0.00  0.00    +0.137 C 
BRANCH  26  28
ATOM     27  O   UNL     1      31.099  -7.616 -23.025  0.00  0.00    -0.250 OA
ATOM     28  C   UNL     1      31.775  -7.531 -22.007  0.00  0.00    +0.318 C 
BRANCH  28  29
ATOM     29  O   UNL     1      31.932  -6.376 -21.312  0.00  0.00    -0.480 OA
ATOM     30  H   UNL     1      32.715  -6.229 -20.819  0.00  0.00    +0.295 HD
ENDBRANCH  28  29
ENDBRANCH  26  28
ENDBRANCH   4  26
TORSDOF 7
ENDMDL
MODEL 4
REMARK VINA RESULT:      -8.8      4.811      8.903
REMARK  Name = 23582412
REMARK  7 active torsions:
REMARK  status: ('A' for Active; 'I' for Inactive)
REMARK    1  A    between atoms: N_1  and  C_11
REMARK    2  A    between atoms: C_4  and  C_26
REMARK    3  A    between atoms: C_11  and  C_12
REMARK    4  A    between atoms: C_13  and  C_25
REMARK    5  A    between atoms: C_15  and  S_18
REMARK    6  A    between atoms: C_26  and  C_28
REMARK    7  A    between atoms: C_28  and  O_29
REMARK                            x       y       z     vdW  Elec       q    Type
REMARK                         _______ _______ _______ _____ _____    ______ ____
ROOT
ATOM      1  N   UNL     1      33.459  -8.989 -22.935  0.00  0.00    -0.312 N 
ATOM      2  N   UNL     1      34.908  -9.377 -24.819  0.00  0.00    -0.227 NA
ATOM      3  C   UNL     1      32.517  -9.697 -22.234  0.00  0.00    +0.036 A 
ATOM      4  C   UNL     1      32.414 -10.949 -22.801  0.00  0.00    +0.004 A 
ATOM      5  C   UNL     1      33.963  -9.767 -23.943  0.00  0.00    +0.143 A 
ATOM      6  C   UNL     1      33.329 -11.005 -23.886  0.00  0.00    +0.032 A 
ATOM      7  C   UNL     1      31.795  -9.111 -21.084  0.00  0.00    +0.050 C 
ATOM      8  C   UNL     1      33.700 -11.966 -24.840  0.00  0.00    +0.004 C 
ATOM      9  C   UNL     1      34.675 -11.614 -25.772  0.00  0.00    +0.021 C 
ATOM     10  C   UNL     1      35.227 -10.342 -25.714  0.00  0.00    +0.101 C 
ENDROOT
BRANCH   1  11
ATOM     11  C   UNL     1      33.860  -7.626 -22.658  0.00  0.00    +0.134 C 
BRANCH  11  12
ATOM     12  C   UNL     1      33.614  -6.729 -23.842  0.00  0.00    +0.004 C 
ATOM     13  C   UNL     1      32.426  -6.008 -23.960  0.00  0.00    +0.071 C 
ATOM     14  C   UNL     1      34.595  -6.626 -24.828  0.00  0.00    -0.001 C 
ATOM     15  C   UNL     1      33.200  -5.080 -26.052  0.00  0.00    +0.106 C 
ATOM     16  C   UNL     1      32.219  -5.183 -25.066  0.00  0.00    +0.022 C 
ATOM     17  C   UNL     1      34.388  -5.801 -25.934  0.00  0.00    +0.018 C 
BRANCH  15  18
ATOM     18  S   UNL     1      32.941  -4.047 -27.436  0.00  0.00    +0.010 S 
ATOM     19  O   UNL     1      32.960  -4.881 -28.629  0.00  0.00    -0.169 OA
ATOM     20  O   UNL     1      31.795  -3.186 -27.175  0.00  0.00    -0.169 OA
ATOM     21  C   UNL     1      34.377  -2.998 -27.479  0.00  0.00    +0.182 C 
ENDBRANCH  15  18
BRANCH  13  25
ATOM     22  F   UNL     1      30.610  -7.242 -23.009  0.00  0.00    -0.166 F 
ATOM     23  F   UNL     1      31.845  -6.097 -21.642  0.00  0.00    -0.166 F 
ATOM     24  F   UNL     1      30.472  -5.072 -22.981  0.00  0.00    -0.166 F 
ATOM     25  C   UNL     1      31.361  -6.105 -22.918  0.00  0.00    +0.418 C 
ENDBRANCH  13  25
ENDBRANCH  11  12
ENDBRANCH   1  11
BRANCH   4  26
ATOM     26  C   UNL     1      31.516 -12.035 -22.358  0.00  0.00    +0.137 C 
BRANCH  26  28
ATOM     27  O   UNL     1      32.237 -12.809 -20.182  0.00  0.00    -0.250 OA
ATOM     28  C   UNL     1      32.209 -12.974 -21.395  0.00  0.00    +0.318 C 
BRANCH  28  29
ATOM     29  O   UNL     1      32.839 -13.999 -22.022  0.00  0.00    -0.480 OA
ATOM     30  H   UNL     1      32.370 -14.537 -22.628  0.00  0.00    +0.295 HD
ENDBRANCH  28  29
ENDBRANCH  26  28
ENDBRANCH   4  26
TORSDOF 7
ENDMDL
MODEL 5
REMARK VINA RESULT:      -8.8      4.596      8.504
REMARK  Name = 23582412
REMARK  7 active torsions:
REMARK  status: ('A' for Active; 'I' for Inactive)
REMARK    1  A    between atoms: N_1  and  C_11
REMARK    2  A    between atoms: C_4  and  C_26
REMARK    3  A    between atoms: C_11  and  C_12
REMARK    4  A    between atoms: C_13  and  C_25
REMARK    5  A    between atoms: C_15  and  S_18
REMARK    6  A    between atoms: C_26  and  C_28
REMARK    7  A    between atoms: C_28  and  O_29
REMARK                            x       y       z     vdW  Elec       q    Type
REMARK                         _______ _______ _______ _____ _____    ______ ____
ROOT
ATOM      1  N   UNL     1      33.579  -9.114 -22.966  0.00  0.00    -0.312 N 
ATOM      2  N   UNL     1      31.972  -9.283 -21.180  0.00  0.00    -0.227 NA
ATOM      3  C   UNL     1      34.044  -9.920 -23.973  0.00  0.00    +0.036 A 
ATOM      4  C   UNL     1      33.386 -11.129 -23.891  0.00  0.00    +0.004 A 
ATOM      5  C   UNL     1      32.632  -9.787 -22.240  0.00  0.00    +0.143 A 
ATOM      6  C   UNL     1      32.487 -11.055 -22.795  0.00  0.00    +0.032 A 
ATOM      7  C   UNL     1      35.080  -9.464 -24.924  0.00  0.00    +0.050 C 
ATOM      8  C   UNL     1      31.556 -11.920 -22.197  0.00  0.00    +0.004 C 
ATOM      9  C   UNL     1      30.845 -11.449 -21.094  0.00  0.00    +0.021 C 
ATOM     10  C   UNL     1      31.089 -10.158 -20.644  0.00  0.00    +0.101 C 
ENDROOT
BRANCH   1  11
ATOM     11  C   UNL     1      34.019  -7.761 -22.705  0.00  0.00    +0.134 C 
BRANCH  11  12
ATOM     12  C   UNL     1      33.717  -6.850 -23.865  0.00  0.00    +0.004 C 
ATOM     13  C   UNL     1      32.501  -6.171 -23.947  0.00  0.00    +0.071 C 
ATOM     14  C   UNL     1      34.674  -6.692 -24.867  0.00  0.00    -0.001 C 
ATOM     15  C   UNL     1      33.201  -5.174 -26.034  0.00  0.00    +0.106 C 
ATOM     16  C   UNL     1      32.243  -5.332 -25.032  0.00  0.00    +0.022 C 
ATOM     17  C   UNL     1      34.416  -5.854 -25.952  0.00  0.00    +0.018 C 
BRANCH  15  18
ATOM     18  S   UNL     1      32.878  -4.125 -27.391  0.00  0.00    +0.010 S 
ATOM     19  O   UNL     1      32.875  -4.939 -28.598  0.00  0.00    -0.169 OA
ATOM     20  O   UNL     1      31.725  -3.290 -27.080  0.00  0.00    -0.169 OA
ATOM     21  C   UNL     1      34.292  -3.048 -27.462  0.00  0.00    +0.182 C 
ENDBRANCH  15  18
BRANCH  13  25
ATOM     22  F   UNL     1      31.973  -6.364 -21.621  0.00  0.00    -0.166 F 
ATOM     23  F   UNL     1      30.542  -5.318 -22.872  0.00  0.00    -0.166 F 
ATOM     24  F   UNL     1      30.742  -7.478 -23.025  0.00  0.00    -0.166 F 
ATOM     25  C   UNL     1      31.461  -6.327 -22.887  0.00  0.00    +0.418 C 
ENDBRANCH  13  25
ENDBRANCH  11  12
ENDBRANCH   1  11
BRANCH   4  26
ATOM     26  C   UNL     1      33.582 -12.290 -24.783  0.00  0.00    +0.137 C 
BRANCH  26  28
ATOM     27  O   UNL     1      33.065 -14.587 -24.227  0.00  0.00    -0.250 OA
ATOM     28  C   UNL     1      33.718 -13.577 -24.000  0.00  0.00    +0.318 C 
BRANCH  28  29
ATOM     29  O   UNL     1      34.613 -13.482 -22.984  0.00  0.00    -0.480 OA
ATOM     30  H   UNL     1      35.372 -14.031 -22.976  0.00  0.00    +0.295 HD
ENDBRANCH  28  29
ENDBRANCH  26  28
ENDBRANCH   4  26
TORSDOF 7
ENDMDL
MODEL 6
REMARK VINA RESULT:      -8.7      3.485      7.509
REMARK  Name = 23582412
REMARK  7 active torsions:
REMARK  status: ('A' for Active; 'I' for Inactive)
REMARK    1  A    between atoms: N_1  and  C_11
REMARK    2  A    between atoms: C_4  and  C_26
REMARK    3  A    between atoms: C_11  and  C_12
REMARK    4  A    between atoms: C_13  and  C_25
REMARK    5  A    between atoms: C_15  and  S_18
REMARK    6  A    between atoms: C_26  and  C_28
REMARK    7  A    between atoms: C_28  and  O_29
REMARK                            x       y       z     vdW  Elec       q    Type
REMARK                         _______ _______ _______ _____ _____    ______ ____
ROOT
ATOM      1  N   UNL     1      32.713 -14.112 -23.086  0.00  0.00    -0.312 N 
ATOM      2  N   UNL     1      33.202 -14.509 -20.761  0.00  0.00    -0.227 NA
ATOM      3  C   UNL     1      33.168 -14.569 -24.296  0.00  0.00    +0.036 A 
ATOM      4  C   UNL     1      34.163 -15.493 -24.057  0.00  0.00    +0.004 A 
ATOM      5  C   UNL     1      33.401 -14.728 -22.074  0.00  0.00    +0.143 A 
ATOM      6  C   UNL     1      34.319 -15.602 -22.650  0.00  0.00    +0.032 A 
ATOM      7  C   UNL     1      32.611 -14.080 -25.575  0.00  0.00    +0.050 C 
ATOM      8  C   UNL     1      35.137 -16.344 -21.783  0.00  0.00    +0.004 C 
ATOM      9  C   UNL     1      34.972 -16.155 -20.411  0.00  0.00    +0.021 C 
ATOM     10  C   UNL     1      34.016 -15.249 -19.972  0.00  0.00    +0.101 C 
ENDROOT
BRANCH   1  11
ATOM     11  C   UNL     1      31.669 -13.127 -22.900  0.00  0.00    +0.134 C 
BRANCH  11  12
ATOM     12  C   UNL     1      32.225 -11.728 -22.906  0.00  0.00    +0.004 C 
ATOM     13  C   UNL     1      31.913 -10.828 -21.888  0.00  0.00    +0.071 C 
ATOM     14  C   UNL     1      33.063 -11.339 -23.950  0.00  0.00    -0.001 C 
ATOM     15  C   UNL     1      33.278  -9.146 -22.958  0.00  0.00    +0.106 C 
ATOM     16  C   UNL     1      32.440  -9.536 -21.914  0.00  0.00    +0.022 C 
ATOM     17  C   UNL     1      33.590 -10.047 -23.977  0.00  0.00    +0.018 C 
BRANCH  15  18
ATOM     18  S   UNL     1      33.938  -7.530 -22.991  0.00  0.00    +0.010 S 
ATOM     19  O   UNL     1      33.459  -6.825 -21.811  0.00  0.00    -0.169 OA
ATOM     20  O   UNL     1      35.368  -7.609 -23.256  0.00  0.00    -0.169 OA
ATOM     21  C   UNL     1      33.189  -6.777 -24.418  0.00  0.00    +0.182 C 
ENDBRANCH  15  18
BRANCH  13  25
ATOM     22  F   UNL     1      29.773 -11.617 -21.166  0.00  0.00    -0.166 F 
ATOM     23  F   UNL     1      31.497 -12.262 -20.020  0.00  0.00    -0.166 F 
ATOM     24  F   UNL     1      30.809 -10.205 -19.876  0.00  0.00    -0.166 F 
ATOM     25  C   UNL     1      31.016 -11.223 -20.761  0.00  0.00    +0.418 C 
ENDBRANCH  13  25
ENDBRANCH  11  12
ENDBRANCH   1  11
BRANCH   4  26
ATOM     26  C   UNL     1      34.928 -16.234 -25.081  0.00  0.00    +0.137 C 
BRANCH  26  28
ATOM     27  O   UNL     1      35.184 -18.582 -24.552  0.00  0.00    -0.250 OA
ATOM     28  C   UNL     1      34.546 -17.698 -25.110  0.00  0.00    +0.318 C 
BRANCH  28  29
ATOM     29  O   UNL     1      33.441 -17.938 -25.859  0.00  0.00    -0.480 OA
ATOM     30  H   UNL     1      33.113 -17.277 -26.437  0.00  0.00    +0.295 HD
ENDBRANCH  28  29
ENDBRANCH  26  28
ENDBRANCH   4  26
TORSDOF 7
ENDMDL
MODEL 7
REMARK VINA RESULT:      -8.2     13.107     15.605
REMARK  Name = 23582412
REMARK  7 active torsions:
REMARK  status: ('A' for Active; 'I' for Inactive)
REMARK    1  A    between atoms: N_1  and  C_11
REMARK    2  A    between atoms: C_4  and  C_26
REMARK    3  A    between atoms: C_11  and  C_12
REMARK    4  A    between atoms: C_13  and  C_25
REMARK    5  A    between atoms: C_15  and  S_18
REMARK    6  A    between atoms: C_26  and  C_28
REMARK    7  A    between atoms: C_28  and  O_29
REMARK                            x       y       z     vdW  Elec       q    Type
REMARK                         _______ _______ _______ _____ _____    ______ ____
ROOT
ATOM      1  N   UNL     1      33.847 -24.154 -14.432  0.00  0.00    -0.312 N 
ATOM      2  N   UNL     1      31.778 -25.237 -13.843  0.00  0.00    -0.227 NA
ATOM      3  C   UNL     1      34.303 -23.350 -15.446  0.00  0.00    +0.036 A 
ATOM      4  C   UNL     1      33.264 -23.143 -16.327  0.00  0.00    +0.004 A 
ATOM      5  C   UNL     1      32.531 -24.465 -14.650  0.00  0.00    +0.143 A 
ATOM      6  C   UNL     1      32.134 -23.846 -15.831  0.00  0.00    +0.032 A 
ATOM      7  C   UNL     1      35.695 -22.853 -15.482  0.00  0.00    +0.050 C 
ATOM      8  C   UNL     1      30.806 -24.036 -16.246  0.00  0.00    +0.004 C 
ATOM      9  C   UNL     1      29.982 -24.827 -15.447  0.00  0.00    +0.021 C 
ATOM     10  C   UNL     1      30.509 -25.385 -14.290  0.00  0.00    +0.101 C 
ENDROOT
BRANCH   1  11
ATOM     11  C   UNL     1      34.633 -24.608 -13.305  0.00  0.00    +0.134 C 
BRANCH  11  12
ATOM     12  C   UNL     1      36.068 -24.841 -13.693  0.00  0.00    +0.004 C 
ATOM     13  C   UNL     1      37.109 -24.225 -12.998  0.00  0.00    +0.071 C 
ATOM     14  C   UNL     1      36.350 -25.688 -14.765  0.00  0.00    -0.001 C 
ATOM     15  C   UNL     1      38.714 -25.302 -14.447  0.00  0.00    +0.106 C 
ATOM     16  C   UNL     1      38.432 -24.455 -13.375  0.00  0.00    +0.022 C 
ATOM     17  C   UNL     1      37.673 -25.918 -15.142  0.00  0.00    +0.018 C 
BRANCH  15  18
ATOM     18  S   UNL     1      40.369 -25.590 -14.920  0.00  0.00    +0.010 S 
ATOM     19  O   UNL     1      40.365 -26.107 -16.281  0.00  0.00    -0.169 OA
ATOM     20  O   UNL     1      41.165 -24.414 -14.596  0.00  0.00    -0.169 OA
ATOM     21  C   UNL     1      40.915 -26.896 -13.841  0.00  0.00    +0.182 C 
ENDBRANCH  15  18
BRANCH  13  25
ATOM     22  F   UNL     1      36.807 -23.949 -10.641  0.00  0.00    -0.166 F 
ATOM     23  F   UNL     1      37.750 -22.314 -11.709  0.00  0.00    -0.166 F 
ATOM     24  F   UNL     1      35.622 -22.688 -11.957  0.00  0.00    -0.166 F 
ATOM     25  C   UNL     1      36.830 -23.313 -11.849  0.00  0.00    +0.418 C 
ENDBRANCH  13  25
ENDBRANCH  11  12
ENDBRANCH   1  11
BRANCH   4  26
ATOM     26  C   UNL     1      33.317 -22.336 -17.564  0.00  0.00    +0.137 C 
BRANCH  26  28
ATOM     27  O   UNL     1      33.793 -24.087 -19.165  0.00  0.00    -0.250 OA
ATOM     28  C   UNL     1      34.119 -23.027 -18.645  0.00  0.00    +0.318 C 
BRANCH  28  29
ATOM     29  O   UNL     1      35.267 -22.371 -18.948  0.00  0.00    -0.480 OA
ATOM     30  H   UNL     1      35.988 -22.387 -18.351  0.00  0.00    +0.295 HD
ENDBRANCH  28  29
ENDBRANCH  26  28
ENDBRANCH   4  26
TORSDOF 7
ENDMDL
MODEL 8
REMARK VINA RESULT:      -8.2     13.148     15.676
REMARK  Name = 23582412
REMARK  7 active torsions:
REMARK  status: ('A' for Active; 'I' for Inactive)
REMARK    1  A    between atoms: N_1  and  C_11
REMARK    2  A    between atoms: C_4  and  C_26
REMARK    3  A    between atoms: C_11  and  C_12
REMARK    4  A    between atoms: C_13  and  C_25
REMARK    5  A    between atoms: C_15  and  S_18
REMARK    6  A    between atoms: C_26  and  C_28
REMARK    7  A    between atoms: C_28  and  O_29
REMARK                            x       y       z     vdW  Elec       q    Type
REMARK                         _______ _______ _______ _____ _____    ______ ____
ROOT
ATOM      1  N   UNL     1      33.841 -24.236 -14.455  0.00  0.00    -0.312 N 
ATOM      2  N   UNL     1      35.573 -23.162 -15.739  0.00  0.00    -0.227 NA
ATOM      3  C   UNL     1      32.503 -24.499 -14.602  0.00  0.00    +0.036 A 
ATOM      4  C   UNL     1      32.099 -23.993 -15.820  0.00  0.00    +0.004 A 
ATOM      5  C   UNL     1      34.302 -23.569 -15.559  0.00  0.00    +0.143 A 
ATOM      6  C   UNL     1      33.234 -23.401 -16.436  0.00  0.00    +0.032 A 
ATOM      7  C   UNL     1      31.728 -25.210 -13.563  0.00  0.00    +0.050 C 
ATOM      8  C   UNL     1      33.488 -22.733 -17.645  0.00  0.00    +0.004 C 
ATOM      9  C   UNL     1      34.788 -22.289 -17.882  0.00  0.00    +0.021 C 
ATOM     10  C   UNL     1      35.761 -22.526 -16.919  0.00  0.00    +0.101 C 
ENDROOT
BRANCH   1  11
ATOM     11  C   UNL     1      34.646 -24.602 -13.310  0.00  0.00    +0.134 C 
BRANCH  11  12
ATOM     12  C   UNL     1      36.082 -24.834 -13.699  0.00  0.00    +0.004 C 
ATOM     13  C   UNL     1      37.122 -24.204 -13.015  0.00  0.00    +0.071 C 
ATOM     14  C   UNL     1      36.364 -25.694 -14.761  0.00  0.00    -0.001 C 
ATOM     15  C   UNL     1      38.727 -25.294 -14.455  0.00  0.00    +0.106 C 
ATOM     16  C   UNL     1      38.445 -24.434 -13.393  0.00  0.00    +0.022 C 
ATOM     17  C   UNL     1      37.687 -25.924 -15.139  0.00  0.00    +0.018 C 
BRANCH  15  18
ATOM     18  S   UNL     1      40.383 -25.582 -14.928  0.00  0.00    +0.010 S 
ATOM     19  O   UNL     1      40.381 -26.058 -16.304  0.00  0.00    -0.169 OA
ATOM     20  O   UNL     1      41.186 -24.422 -14.566  0.00  0.00    -0.169 OA
ATOM     21  C   UNL     1      40.912 -26.924 -13.886  0.00  0.00    +0.182 C 
ENDBRANCH  15  18
BRANCH  13  25
ATOM     22  F   UNL     1      37.746 -22.261 -11.767  0.00  0.00    -0.166 F 
ATOM     23  F   UNL     1      35.624 -22.670 -11.955  0.00  0.00    -0.166 F 
ATOM     24  F   UNL     1      36.859 -23.915 -10.670  0.00  0.00    -0.166 F 
ATOM     25  C   UNL     1      36.843 -23.279 -11.877  0.00  0.00    +0.418 C 
ENDBRANCH  13  25
ENDBRANCH  11  12
ENDBRANCH   1  11
BRANCH   4  26
ATOM     26  C   UNL     1      30.734 -24.055 -16.380  0.00  0.00    +0.137 C 
BRANCH  26  28
ATOM     27  O   UNL     1      29.812 -22.445 -14.827  0.00  0.00    -0.250 OA
ATOM     28  C   UNL     1      29.912 -22.850 -15.978  0.00  0.00    +0.318 C 
BRANCH  28  29
ATOM     29  O   UNL     1      29.257 -22.288 -17.025  0.00  0.00    -0.480 OA
ATOM     30  H   UNL     1      28.442 -21.847 -16.886  0.00  0.00    +0.295 HD
ENDBRANCH  28  29
ENDBRANCH  26  28
ENDBRANCH   4  26
TORSDOF 7
ENDMDL
MODEL 9
REMARK VINA RESULT:      -8.1      2.860      7.055
REMARK  Name = 23582412
REMARK  7 active torsions:
REMARK  status: ('A' for Active; 'I' for Inactive)
REMARK    1  A    between atoms: N_1  and  C_11
REMARK    2  A    between atoms: C_4  and  C_26
REMARK    3  A    between atoms: C_11  and  C_12
REMARK    4  A    between atoms: C_13  and  C_25
REMARK    5  A    between atoms: C_15  and  S_18
REMARK    6  A    between atoms: C_26  and  C_28
REMARK    7  A    between atoms: C_28  and  O_29
REMARK                            x       y       z     vdW  Elec       q    Type
REMARK                         _______ _______ _______ _____ _____    ______ ____
ROOT
ATOM      1  N   UNL     1      32.808 -14.206 -23.834  0.00  0.00    -0.312 N 
ATOM      2  N   UNL     1      32.747 -13.909 -21.445  0.00  0.00    -0.227 NA
ATOM      3  C   UNL     1      33.478 -15.003 -24.727  0.00  0.00    +0.036 A 
ATOM      4  C   UNL     1      34.322 -15.827 -24.014  0.00  0.00    +0.004 A 
ATOM      5  C   UNL     1      33.209 -14.506 -22.559  0.00  0.00    +0.143 A 
ATOM      6  C   UNL     1      34.159 -15.520 -22.637  0.00  0.00    +0.032 A 
ATOM      7  C   UNL     1      33.252 -14.904 -26.185  0.00  0.00    +0.050 C 
ATOM      8  C   UNL     1      34.710 -15.984 -21.431  0.00  0.00    +0.004 C 
ATOM      9  C   UNL     1      34.266 -15.399 -20.246  0.00  0.00    +0.021 C 
ATOM     10  C   UNL     1      33.310 -14.394 -20.314  0.00  0.00    +0.101 C 
ENDROOT
BRANCH   1  11
ATOM     11  C   UNL     1      31.828 -13.199 -24.181  0.00  0.00    +0.134 C 
BRANCH  11  12
ATOM     12  C   UNL     1      32.093 -11.904 -23.462  0.00  0.00    +0.004 C 
ATOM     13  C   UNL     1      33.091 -11.032 -23.898  0.00  0.00    +0.071 C 
ATOM     14  C   UNL     1      31.323 -11.581 -22.345  0.00  0.00    -0.001 C 
ATOM     15  C   UNL     1      32.550  -9.514 -22.099  0.00  0.00    +0.106 C 
ATOM     16  C   UNL     1      33.319  -9.836 -23.216  0.00  0.00    +0.022 C 
ATOM     17  C   UNL     1      31.552 -10.385 -21.663  0.00  0.00    +0.018 C 
BRANCH  15  18
ATOM     18  S   UNL     1      32.835  -8.017 -21.245  0.00  0.00    +0.010 S 
ATOM     19  O   UNL     1      32.613  -8.260 -19.827  0.00  0.00    -0.169 OA
ATOM     20  O   UNL     1      34.101  -7.453 -21.692  0.00  0.00    -0.169 OA
ATOM     21  C   UNL     1      31.551  -6.929 -21.822  0.00  0.00    +0.182 C 
ENDBRANCH  15  18
BRANCH  13  25
ATOM     22  F   UNL     1      34.774 -12.413 -24.892  0.00  0.00    -0.166 F 
ATOM     23  F   UNL     1      33.199 -11.688 -26.196  0.00  0.00    -0.166 F 
ATOM     24  F   UNL     1      34.723 -10.318 -25.472  0.00  0.00    -0.166 F 
ATOM     25  C   UNL     1      33.928 -11.358 -25.091  0.00  0.00    +0.418 C 
ENDBRANCH  13  25
ENDBRANCH  11  12
ENDBRANCH   1  11
BRANCH   4  26
ATOM     26  C   UNL     1      35.232 -16.844 -24.581  0.00  0.00    +0.137 C 
BRANCH  26  28
ATOM     27  O   UNL     1      33.744 -18.475 -25.571  0.00  0.00    -0.250 OA
ATOM     28  C   UNL     1      34.555 -18.192 -24.698  0.00  0.00    +0.318 C 
BRANCH  28  29
ATOM     29  O   UNL     1      34.907 -19.045 -23.704  0.00  0.00    -0.480 OA
ATOM     30  H   UNL     1      34.631 -19.940 -23.735  0.00  0.00    +0.295 HD
ENDBRANCH  28  29
ENDBRANCH  26  28
ENDBRANCH   4  26
TORSDOF 7
ENDMDL
