MODEL 1
REMARK VINA RESULT:      -6.6      0.000      0.000
REMARK  Name = 439260
REMARK  6 active torsions:
REMARK  status: ('A' for Active; 'I' for Inactive)
REMARK    1  A    between atoms: C_1  and  C_11
REMARK    2  A    between atoms: C_4  and  O_7
REMARK    3  A    between atoms: C_6  and  O_9
REMARK    4  A    between atoms: C_11  and  O_12
REMARK    5  A    between atoms: C_11  and  C_14
REMARK    6  A    between atoms: C_14  and  N_15
REMARK                            x       y       z     vdW  Elec       q    Type
REMARK                         _______ _______ _______ _____ _____    ______ ____
ROOT
ATOM      1  C   UNL     1      35.007 -19.427 -21.022  0.00  0.00    +0.005 C 
ATOM      2  C   UNL     1      35.640 -20.439 -20.301  0.00  0.00    +0.038 C 
ATOM      3  C   UNL     1      33.614 -19.352 -21.047  0.00  0.00    +0.001 C 
ATOM      4  C   UNL     1      34.879 -21.378 -19.603  0.00  0.00    +0.167 C 
ATOM      5  C   UNL     1      32.853 -20.291 -20.348  0.00  0.00    +0.040 C 
ATOM      6  C   UNL     1      33.485 -21.304 -19.627  0.00  0.00    +0.167 C 
ENDROOT
BRANCH   4   7
ATOM      7  O   UNL     1      35.508 -22.361 -18.901  0.00  0.00    -0.503 OA
ATOM      8  H   UNL     1      35.662 -22.256 -17.983  0.00  0.00    +0.292 HD
ENDBRANCH   4   7
BRANCH   6   9
ATOM      9  O   UNL     1      32.733 -22.214 -18.948  0.00  0.00    -0.503 OA
ATOM     10  H   UNL     1      32.416 -22.979 -19.386  0.00  0.00    +0.292 HD
ENDBRANCH   6   9
BRANCH   1  11
ATOM     11  C   UNL     1      35.819 -18.424 -21.769  0.00  0.00    +0.111 C 
BRANCH  11  12
ATOM     12  O   UNL     1      37.207 -18.765 -21.651  0.00  0.00    -0.382 OA
ATOM     13  H   UNL     1      37.746 -18.073 -22.064  0.00  0.00    +0.211 HD
ENDBRANCH  11  12
BRANCH  11  14
ATOM     14  C   UNL     1      35.433 -18.355 -23.260  0.00  0.00    -0.052 C 
BRANCH  14  15
ATOM     15  N   UNL     1      35.524 -16.991 -23.776  0.00  0.00    +0.382 N 
ATOM     16  H   UNL     1      35.407 -16.329 -23.010  0.00  0.00    -0.089 HD
ATOM     17  H   UNL     1      34.790 -16.841 -24.470  0.00  0.00    -0.089 HD
ATOM     18  H   UNL     1      36.436 -16.851 -24.211  0.00  0.00    -0.089 HD
ENDBRANCH  14  15
ENDBRANCH  11  14
ENDBRANCH   1  11
TORSDOF 6
ENDMDL
MODEL 2
REMARK VINA RESULT:      -6.4      0.995      2.044
REMARK  Name = 439260
REMARK  6 active torsions:
REMARK  status: ('A' for Active; 'I' for Inactive)
REMARK    1  A    between atoms: C_1  and  C_11
REMARK    2  A    between atoms: C_4  and  O_7
REMARK    3  A    between atoms: C_6  and  O_9
REMARK    4  A    between atoms: C_11  and  O_12
REMARK    5  A    between atoms: C_11  and  C_14
REMARK    6  A    between atoms: C_14  and  N_15
REMARK                            x       y       z     vdW  Elec       q    Type
REMARK                         _______ _______ _______ _____ _____    ______ ____
ROOT
ATOM      1  C   UNL     1      34.792 -19.424 -21.031  0.00  0.00    +0.005 C 
ATOM      2  C   UNL     1      33.660 -20.097 -20.570  0.00  0.00    +0.038 C 
ATOM      3  C   UNL     1      36.063 -19.847 -20.642  0.00  0.00    +0.001 C 
ATOM      4  C   UNL     1      33.800 -21.195 -19.721  0.00  0.00    +0.167 C 
ATOM      5  C   UNL     1      36.203 -20.945 -19.792  0.00  0.00    +0.040 C 
ATOM      6  C   UNL     1      35.071 -21.618 -19.332  0.00  0.00    +0.167 C 
ENDROOT
BRANCH   4   7
ATOM      7  O   UNL     1      32.687 -21.844 -19.278  0.00  0.00    -0.503 OA
ATOM      8  H   UNL     1      32.323 -22.545 -19.782  0.00  0.00    +0.292 HD
ENDBRANCH   4   7
BRANCH   6   9
ATOM      9  O   UNL     1      35.219 -22.690 -18.503  0.00  0.00    -0.503 OA
ATOM     10  H   UNL     1      36.044 -23.130 -18.451  0.00  0.00    +0.292 HD
ENDBRANCH   6   9
BRANCH   1  11
ATOM     11  C   UNL     1      34.644 -18.250 -21.938  0.00  0.00    +0.111 C 
BRANCH  11  12
ATOM     12  O   UNL     1      35.165 -17.085 -21.284  0.00  0.00    -0.382 OA
ATOM     13  H   UNL     1      34.469 -16.680 -20.742  0.00  0.00    +0.211 HD
ENDBRANCH  11  12
BRANCH  11  14
ATOM     14  C   UNL     1      35.375 -18.454 -23.280  0.00  0.00    -0.052 C 
BRANCH  14  15
ATOM     15  N   UNL     1      35.424 -17.218 -24.059  0.00  0.00    +0.382 N 
ATOM     16  H   UNL     1      35.884 -17.396 -24.951  0.00  0.00    -0.089 HD
ATOM     17  H   UNL     1      35.948 -16.511 -23.542  0.00  0.00    -0.089 HD
ATOM     18  H   UNL     1      34.476 -16.883 -24.226  0.00  0.00    -0.089 HD
ENDBRANCH  14  15
ENDBRANCH  11  14
ENDBRANCH   1  11
TORSDOF 6
ENDMDL
MODEL 3
REMARK VINA RESULT:      -6.4      2.976      5.381
REMARK  Name = 439260
REMARK  6 active torsions:
REMARK  status: ('A' for Active; 'I' for Inactive)
REMARK    1  A    between atoms: C_1  and  C_11
REMARK    2  A    between atoms: C_4  and  O_7
REMARK    3  A    between atoms: C_6  and  O_9
REMARK    4  A    between atoms: C_11  and  O_12
REMARK    5  A    between atoms: C_11  and  C_14
REMARK    6  A    between atoms: C_14  and  N_15
REMARK                            x       y       z     vdW  Elec       q    Type
REMARK                         _______ _______ _______ _____ _____    ______ ____
ROOT
ATOM      1  C   UNL     1      34.713 -18.852 -22.536  0.00  0.00    +0.005 C 
ATOM      2  C   UNL     1      34.889 -17.476 -22.387  0.00  0.00    +0.038 C 
ATOM      3  C   UNL     1      34.558 -19.402 -23.809  0.00  0.00    +0.001 C 
ATOM      4  C   UNL     1      34.911 -16.650 -23.512  0.00  0.00    +0.167 C 
ATOM      5  C   UNL     1      34.580 -18.576 -24.934  0.00  0.00    +0.040 C 
ATOM      6  C   UNL     1      34.757 -17.201 -24.785  0.00  0.00    +0.167 C 
ENDROOT
BRANCH   4   7
ATOM      7  O   UNL     1      35.085 -15.309 -23.353  0.00  0.00    -0.503 OA
ATOM      8  H   UNL     1      35.023 -14.926 -22.501  0.00  0.00    +0.292 HD
ENDBRANCH   4   7
BRANCH   6   9
ATOM      9  O   UNL     1      34.778 -16.404 -25.889  0.00  0.00    -0.503 OA
ATOM     10  H   UNL     1      35.332 -16.621 -26.613  0.00  0.00    +0.292 HD
ENDBRANCH   6   9
BRANCH   1  11
ATOM     11  C   UNL     1      34.688 -19.735 -21.336  0.00  0.00    +0.111 C 
BRANCH  11  12
ATOM     12  O   UNL     1      35.683 -19.288 -20.405  0.00  0.00    -0.382 OA
ATOM     13  H   UNL     1      36.530 -19.180 -20.865  0.00  0.00    +0.211 HD
ENDBRANCH  11  12
BRANCH  11  14
ATOM     14  C   UNL     1      33.309 -19.744 -20.646  0.00  0.00    -0.052 C 
BRANCH  14  15
ATOM     15  N   UNL     1      32.971 -21.070 -20.135  0.00  0.00    +0.382 N 
ATOM     16  H   UNL     1      32.232 -21.477 -20.706  0.00  0.00    -0.089 HD
ATOM     17  H   UNL     1      32.650 -20.991 -19.169  0.00  0.00    -0.089 HD
ATOM     18  H   UNL     1      33.796 -21.669 -20.170  0.00  0.00    -0.089 HD
ENDBRANCH  14  15
ENDBRANCH  11  14
ENDBRANCH   1  11
TORSDOF 6
ENDMDL
MODEL 4
REMARK VINA RESULT:      -6.2      3.473      5.905
REMARK  Name = 439260
REMARK  6 active torsions:
REMARK  status: ('A' for Active; 'I' for Inactive)
REMARK    1  A    between atoms: C_1  and  C_11
REMARK    2  A    between atoms: C_4  and  O_7
REMARK    3  A    between atoms: C_6  and  O_9
REMARK    4  A    between atoms: C_11  and  O_12
REMARK    5  A    between atoms: C_11  and  C_14
REMARK    6  A    between atoms: C_14  and  N_15
REMARK                            x       y       z     vdW  Elec       q    Type
REMARK                         _______ _______ _______ _____ _____    ______ ____
ROOT
ATOM      1  C   UNL     1      35.100 -17.338 -22.747  0.00  0.00    +0.005 C 
ATOM      2  C   UNL     1      34.704 -16.003 -22.830  0.00  0.00    +0.038 C 
ATOM      3  C   UNL     1      35.022 -18.161 -23.871  0.00  0.00    +0.001 C 
ATOM      4  C   UNL     1      34.231 -15.490 -24.039  0.00  0.00    +0.167 C 
ATOM      5  C   UNL     1      34.549 -17.648 -25.080  0.00  0.00    +0.040 C 
ATOM      6  C   UNL     1      34.153 -16.313 -25.163  0.00  0.00    +0.167 C 
ENDROOT
BRANCH   4   7
ATOM      7  O   UNL     1      33.849 -14.184 -24.108  0.00  0.00    -0.503 OA
ATOM      8  H   UNL     1      33.359 -13.802 -23.407  0.00  0.00    +0.292 HD
ENDBRANCH   4   7
BRANCH   6   9
ATOM      9  O   UNL     1      33.695 -15.822 -26.348  0.00  0.00    -0.503 OA
ATOM     10  H   UNL     1      32.806 -15.536 -26.424  0.00  0.00    +0.292 HD
ENDBRANCH   6   9
BRANCH   1  11
ATOM     11  C   UNL     1      35.604 -17.887 -21.456  0.00  0.00    +0.111 C 
BRANCH  11  12
ATOM     12  O   UNL     1      35.324 -16.949 -20.408  0.00  0.00    -0.382 OA
ATOM     13  H   UNL     1      35.351 -16.048 -20.765  0.00  0.00    +0.211 HD
ENDBRANCH  11  12
BRANCH  11  14
ATOM     14  C   UNL     1      34.965 -19.247 -21.111  0.00  0.00    -0.052 C 
BRANCH  14  15
ATOM     15  N   UNL     1      35.816 -20.030 -20.217  0.00  0.00    +0.382 N 
ATOM     16  H   UNL     1      36.795 -19.863 -20.447  0.00  0.00    -0.089 HD
ATOM     17  H   UNL     1      35.605 -21.022 -20.330  0.00  0.00    -0.089 HD
ATOM     18  H   UNL     1      35.642 -19.753 -19.252  0.00  0.00    -0.089 HD
ENDBRANCH  14  15
ENDBRANCH  11  14
ENDBRANCH   1  11
TORSDOF 6
ENDMDL
MODEL 5
REMARK VINA RESULT:      -6.2      8.157      9.021
REMARK  Name = 439260
REMARK  6 active torsions:
REMARK  status: ('A' for Active; 'I' for Inactive)
REMARK    1  A    between atoms: C_1  and  C_11
REMARK    2  A    between atoms: C_4  and  O_7
REMARK    3  A    between atoms: C_6  and  O_9
REMARK    4  A    between atoms: C_11  and  O_12
REMARK    5  A    between atoms: C_11  and  C_14
REMARK    6  A    between atoms: C_14  and  N_15
REMARK                            x       y       z     vdW  Elec       q    Type
REMARK                         _______ _______ _______ _____ _____    ______ ____
ROOT
ATOM      1  C   UNL     1      29.348 -23.600 -15.819  0.00  0.00    +0.005 C 
ATOM      2  C   UNL     1      30.366 -22.792 -15.312  0.00  0.00    +0.038 C 
ATOM      3  C   UNL     1      29.275 -24.944 -15.452  0.00  0.00    +0.001 C 
ATOM      4  C   UNL     1      31.312 -23.329 -14.437  0.00  0.00    +0.167 C 
ATOM      5  C   UNL     1      30.221 -25.481 -14.577  0.00  0.00    +0.040 C 
ATOM      6  C   UNL     1      31.239 -24.673 -14.071  0.00  0.00    +0.167 C 
ENDROOT
BRANCH   4   7
ATOM      7  O   UNL     1      32.301 -22.530 -13.949  0.00  0.00    -0.503 OA
ATOM      8  H   UNL     1      33.066 -22.913 -13.565  0.00  0.00    +0.292 HD
ENDBRANCH   4   7
BRANCH   6   9
ATOM      9  O   UNL     1      32.156 -25.208 -13.217  0.00  0.00    -0.503 OA
ATOM     10  H   UNL     1      31.956 -25.290 -12.306  0.00  0.00    +0.292 HD
ENDBRANCH   6   9
BRANCH   1  11
ATOM     11  C   UNL     1      28.338 -23.028 -16.754  0.00  0.00    +0.111 C 
BRANCH  11  12
ATOM     12  O   UNL     1      27.757 -24.090 -17.522  0.00  0.00    -0.382 OA
ATOM     13  H   UNL     1      28.375 -24.837 -17.559  0.00  0.00    +0.211 HD
ENDBRANCH  11  12
BRANCH  11  14
ATOM     14  C   UNL     1      27.223 -22.264 -16.012  0.00  0.00    -0.052 C 
BRANCH  14  15
ATOM     15  N   UNL     1      26.288 -21.638 -16.944  0.00  0.00    +0.382 N 
ATOM     16  H   UNL     1      25.344 -21.973 -16.756  0.00  0.00    -0.089 HD
ATOM     17  H   UNL     1      26.550 -21.878 -17.901  0.00  0.00    -0.089 HD
ATOM     18  H   UNL     1      26.318 -20.625 -16.828  0.00  0.00    -0.089 HD
ENDBRANCH  14  15
ENDBRANCH  11  14
ENDBRANCH   1  11
TORSDOF 6
ENDMDL
MODEL 6
REMARK VINA RESULT:      -6.2      3.111      4.644
REMARK  Name = 439260
REMARK  6 active torsions:
REMARK  status: ('A' for Active; 'I' for Inactive)
REMARK    1  A    between atoms: C_1  and  C_11
REMARK    2  A    between atoms: C_4  and  O_7
REMARK    3  A    between atoms: C_6  and  O_9
REMARK    4  A    between atoms: C_11  and  O_12
REMARK    5  A    between atoms: C_11  and  C_14
REMARK    6  A    between atoms: C_14  and  N_15
REMARK                            x       y       z     vdW  Elec       q    Type
REMARK                         _______ _______ _______ _____ _____    ______ ____
ROOT
ATOM      1  C   UNL     1      34.680 -16.878 -23.879  0.00  0.00    +0.005 C 
ATOM      2  C   UNL     1      34.699 -16.217 -22.650  0.00  0.00    +0.038 C 
ATOM      3  C   UNL     1      35.031 -18.226 -23.951  0.00  0.00    +0.001 C 
ATOM      4  C   UNL     1      35.069 -16.905 -21.494  0.00  0.00    +0.167 C 
ATOM      5  C   UNL     1      35.401 -18.914 -22.795  0.00  0.00    +0.040 C 
ATOM      6  C   UNL     1      35.420 -18.253 -21.567  0.00  0.00    +0.167 C 
ENDROOT
BRANCH   4   7
ATOM      7  O   UNL     1      35.083 -16.249 -20.301  0.00  0.00    -0.503 OA
ATOM      8  H   UNL     1      34.324 -15.778 -20.016  0.00  0.00    +0.292 HD
ENDBRANCH   4   7
BRANCH   6   9
ATOM      9  O   UNL     1      35.782 -18.934 -20.444  0.00  0.00    -0.503 OA
ATOM     10  H   UNL     1      35.871 -19.867 -20.470  0.00  0.00    +0.292 HD
ENDBRANCH   6   9
BRANCH   1  11
ATOM     11  C   UNL     1      34.285 -16.144 -25.115  0.00  0.00    +0.111 C 
BRANCH  11  12
ATOM     12  O   UNL     1      33.567 -17.036 -25.979  0.00  0.00    -0.382 OA
ATOM     13  H   UNL     1      34.076 -17.853 -26.095  0.00  0.00    +0.211 HD
ENDBRANCH  11  12
BRANCH  11  14
ATOM     14  C   UNL     1      33.410 -14.912 -24.808  0.00  0.00    -0.052 C 
BRANCH  14  15
ATOM     15  N   UNL     1      32.563 -14.559 -25.944  0.00  0.00    +0.382 N 
ATOM     16  H   UNL     1      32.536 -13.545 -26.046  0.00  0.00    -0.089 HD
ATOM     17  H   UNL     1      31.617 -14.909 -25.785  0.00  0.00    -0.089 HD
ATOM     18  H   UNL     1      32.940 -14.976 -26.795  0.00  0.00    -0.089 HD
ENDBRANCH  14  15
ENDBRANCH  11  14
ENDBRANCH   1  11
TORSDOF 6
ENDMDL
MODEL 7
REMARK VINA RESULT:      -6.0      3.126      5.328
REMARK  Name = 439260
REMARK  6 active torsions:
REMARK  status: ('A' for Active; 'I' for Inactive)
REMARK    1  A    between atoms: C_1  and  C_11
REMARK    2  A    between atoms: C_4  and  O_7
REMARK    3  A    between atoms: C_6  and  O_9
REMARK    4  A    between atoms: C_11  and  O_12
REMARK    5  A    between atoms: C_11  and  C_14
REMARK    6  A    between atoms: C_14  and  N_15
REMARK                            x       y       z     vdW  Elec       q    Type
REMARK                         _______ _______ _______ _____ _____    ______ ____
ROOT
ATOM      1  C   UNL     1      34.516 -18.349 -21.776  0.00  0.00    +0.005 C 
ATOM      2  C   UNL     1      34.814 -18.162 -23.126  0.00  0.00    +0.038 C 
ATOM      3  C   UNL     1      34.344 -17.245 -20.940  0.00  0.00    +0.001 C 
ATOM      4  C   UNL     1      34.940 -16.871 -23.640  0.00  0.00    +0.167 C 
ATOM      5  C   UNL     1      34.470 -15.954 -21.454  0.00  0.00    +0.040 C 
ATOM      6  C   UNL     1      34.768 -15.767 -22.804  0.00  0.00    +0.167 C 
ENDROOT
BRANCH   4   7
ATOM      7  O   UNL     1      35.230 -16.702 -24.960  0.00  0.00    -0.503 OA
ATOM      8  H   UNL     1      36.034 -17.032 -25.309  0.00  0.00    +0.292 HD
ENDBRANCH   4   7
BRANCH   6   9
ATOM      9  O   UNL     1      34.888 -14.503 -23.295  0.00  0.00    -0.503 OA
ATOM     10  H   UNL     1      35.147 -14.369 -24.185  0.00  0.00    +0.292 HD
ENDBRANCH   6   9
BRANCH   1  11
ATOM     11  C   UNL     1      34.382 -19.728 -21.225  0.00  0.00    +0.111 C 
BRANCH  11  12
ATOM     12  O   UNL     1      35.362 -19.917 -20.196  0.00  0.00    -0.382 OA
ATOM     13  H   UNL     1      36.109 -19.316 -20.346  0.00  0.00    +0.211 HD
ENDBRANCH  11  12
BRANCH  11  14
ATOM     14  C   UNL     1      32.977 -19.992 -20.649  0.00  0.00    -0.052 C 
BRANCH  14  15
ATOM     15  N   UNL     1      32.973 -21.142 -19.747  0.00  0.00    +0.382 N 
ATOM     16  H   UNL     1      33.358 -21.953 -20.229  0.00  0.00    -0.089 HD
ATOM     17  H   UNL     1      32.015 -21.343 -19.457  0.00  0.00    -0.089 HD
ATOM     18  H   UNL     1      33.540 -20.934 -18.926  0.00  0.00    -0.089 HD
ENDBRANCH  14  15
ENDBRANCH  11  14
ENDBRANCH   1  11
TORSDOF 6
ENDMDL
MODEL 8
REMARK VINA RESULT:      -6.0      3.813      6.207
REMARK  Name = 439260
REMARK  6 active torsions:
REMARK  status: ('A' for Active; 'I' for Inactive)
REMARK    1  A    between atoms: C_1  and  C_11
REMARK    2  A    between atoms: C_4  and  O_7
REMARK    3  A    between atoms: C_6  and  O_9
REMARK    4  A    between atoms: C_11  and  O_12
REMARK    5  A    between atoms: C_11  and  C_14
REMARK    6  A    between atoms: C_14  and  N_15
REMARK                            x       y       z     vdW  Elec       q    Type
REMARK                         _______ _______ _______ _____ _____    ______ ____
ROOT
ATOM      1  C   UNL     1      34.835 -17.195 -23.571  0.00  0.00    +0.005 C 
ATOM      2  C   UNL     1      34.410 -17.029 -24.890  0.00  0.00    +0.038 C 
ATOM      3  C   UNL     1      34.678 -16.157 -22.652  0.00  0.00    +0.001 C 
ATOM      4  C   UNL     1      33.826 -15.826 -25.288  0.00  0.00    +0.167 C 
ATOM      5  C   UNL     1      34.095 -14.954 -23.050  0.00  0.00    +0.040 C 
ATOM      6  C   UNL     1      33.670 -14.788 -24.368  0.00  0.00    +0.167 C 
ENDROOT
BRANCH   4   7
ATOM      7  O   UNL     1      33.414 -15.676 -26.578  0.00  0.00    -0.503 OA
ATOM      8  H   UNL     1      33.151 -14.834 -26.891  0.00  0.00    +0.292 HD
ENDBRANCH   4   7
BRANCH   6   9
ATOM      9  O   UNL     1      33.101 -13.610 -24.746  0.00  0.00    -0.503 OA
ATOM     10  H   UNL     1      33.403 -13.169 -25.515  0.00  0.00    +0.292 HD
ENDBRANCH   6   9
BRANCH   1  11
ATOM     11  C   UNL     1      35.459 -18.480 -23.145  0.00  0.00    +0.111 C 
BRANCH  11  12
ATOM     12  O   UNL     1      36.801 -18.225 -22.708  0.00  0.00    -0.382 OA
ATOM     13  H   UNL     1      36.823 -18.185 -21.739  0.00  0.00    +0.211 HD
ENDBRANCH  11  12
BRANCH  11  14
ATOM     14  C   UNL     1      34.671 -19.162 -22.009  0.00  0.00    -0.052 C 
BRANCH  14  15
ATOM     15  N   UNL     1      35.437 -19.188 -20.764  0.00  0.00    +0.382 N 
ATOM     16  H   UNL     1      34.814 -19.399 -19.986  0.00  0.00    -0.089 HD
ATOM     17  H   UNL     1      35.872 -18.277 -20.614  0.00  0.00    -0.089 HD
ATOM     18  H   UNL     1      36.160 -19.905 -20.824  0.00  0.00    -0.089 HD
ENDBRANCH  14  15
ENDBRANCH  11  14
ENDBRANCH   1  11
TORSDOF 6
ENDMDL
MODEL 9
REMARK VINA RESULT:      -6.0      3.212      4.948
REMARK  Name = 439260
REMARK  6 active torsions:
REMARK  status: ('A' for Active; 'I' for Inactive)
REMARK    1  A    between atoms: C_1  and  C_11
REMARK    2  A    between atoms: C_4  and  O_7
REMARK    3  A    between atoms: C_6  and  O_9
REMARK    4  A    between atoms: C_11  and  O_12
REMARK    5  A    between atoms: C_11  and  C_14
REMARK    6  A    between atoms: C_14  and  N_15
REMARK                            x       y       z     vdW  Elec       q    Type
REMARK                         _______ _______ _______ _____ _____    ______ ____
ROOT
ATOM      1  C   UNL     1      34.016 -21.514 -19.533  0.00  0.00    +0.005 C 
ATOM      2  C   UNL     1      35.344 -21.100 -19.647  0.00  0.00    +0.038 C 
ATOM      3  C   UNL     1      33.002 -20.786 -20.157  0.00  0.00    +0.001 C 
ATOM      4  C   UNL     1      35.657 -19.959 -20.387  0.00  0.00    +0.167 C 
ATOM      5  C   UNL     1      33.316 -19.645 -20.896  0.00  0.00    +0.040 C 
ATOM      6  C   UNL     1      34.643 -19.231 -21.010  0.00  0.00    +0.167 C 
ENDROOT
BRANCH   4   7
ATOM      7  O   UNL     1      36.957 -19.566 -20.492  0.00  0.00    -0.503 OA
ATOM      8  H   UNL     1      37.310 -19.334 -21.328  0.00  0.00    +0.292 HD
ENDBRANCH   4   7
BRANCH   6   9
ATOM      9  O   UNL     1      34.938 -18.117 -21.735  0.00  0.00    -0.503 OA
ATOM     10  H   UNL     1      34.408 -17.349 -21.649  0.00  0.00    +0.292 HD
ENDBRANCH   6   9
BRANCH   1  11
ATOM     11  C   UNL     1      33.680 -22.732 -18.743  0.00  0.00    +0.111 C 
BRANCH  11  12
ATOM     12  O   UNL     1      33.978 -23.895 -19.527  0.00  0.00    -0.382 OA
ATOM     13  H   UNL     1      34.669 -23.681 -20.174  0.00  0.00    +0.211 HD
ENDBRANCH  11  12
BRANCH  11  14
ATOM     14  C   UNL     1      34.458 -22.798 -17.413  0.00  0.00    -0.052 C 
BRANCH  14  15
ATOM     15  N   UNL     1      33.677 -23.451 -16.365  0.00  0.00    +0.382 N 
ATOM     16  H   UNL     1      33.225 -22.744 -15.787  0.00  0.00    -0.089 HD
ATOM     17  H   UNL     1      34.295 -24.020 -15.785  0.00  0.00    -0.089 HD
ATOM     18  H   UNL     1      32.967 -24.047 -16.790  0.00  0.00    -0.089 HD
ENDBRANCH  14  15
ENDBRANCH  11  14
ENDBRANCH   1  11
TORSDOF 6
ENDMDL
