MODEL 1
REMARK VINA RESULT:      -9.5      0.000      0.000
REMARK  Name = 25127713
REMARK  5 active torsions:
REMARK  status: ('A' for Active; 'I' for Inactive)
REMARK    1  A    between atoms: N_2  and  C_16
REMARK    2  A    between atoms: C_4  and  O_24
REMARK    3  A    between atoms: C_6  and  O_22
REMARK    4  A    between atoms: O_24  and  C_27
REMARK    5  A    between atoms: C_32  and  C_33
REMARK                            x       y       z     vdW  Elec       q    Type
REMARK                         _______ _______ _______ _____ _____    ______ ____
ROOT
ATOM      1  N   UNL     1      33.808 -18.065 -25.871  0.00  0.00    -0.248 NA
ATOM      2  N   UNL     1      34.401 -18.217 -21.777  0.00  0.00    -0.299 N 
ATOM      3  N   UNL     1      34.095 -19.319 -23.833  0.00  0.00    -0.233 NA
ATOM      4  C   UNL     1      34.137 -14.481 -23.769  0.00  0.00    +0.169 C 
ATOM      5  C   UNL     1      34.227 -15.692 -23.091  0.00  0.00    +0.027 C 
ATOM      6  C   UNL     1      33.937 -14.478 -25.145  0.00  0.00    +0.173 C 
ATOM      7  C   UNL     1      34.117 -16.902 -23.796  0.00  0.00    +0.119 C 
ATOM      8  C   UNL     1      33.914 -16.914 -25.186  0.00  0.00    +0.070 C 
ATOM      9  C   UNL     1      33.828 -15.687 -25.839  0.00  0.00    +0.055 C 
ATOM     10  C   UNL     1      34.198 -18.147 -23.178  0.00  0.00    +0.115 C 
ATOM     11  C   UNL     1      33.904 -19.206 -25.157  0.00  0.00    +0.251 C 
ATOM     12  H   UNL     1      34.022 -17.454 -21.283  0.00  0.00    +0.153 HD
ENDROOT
BRANCH   2  16
ATOM     13 CL   UNL     1      33.963 -22.335 -18.791  0.00  0.00    -0.079 Cl
ATOM     14 CL   UNL     1      37.157 -22.169 -18.335  0.00  0.00    -0.081 Cl
ATOM     15  F   UNL     1      32.968 -20.230 -20.539  0.00  0.00    -0.202 F 
ATOM     16  C   UNL     1      35.037 -19.161 -20.958  0.00  0.00    +0.078 C 
ATOM     17  C   UNL     1      34.295 -20.169 -20.343  0.00  0.00    +0.165 C 
ATOM     18  C   UNL     1      36.416 -19.092 -20.759  0.00  0.00    +0.018 C 
ATOM     19  C   UNL     1      34.931 -21.107 -19.529  0.00  0.00    +0.097 C 
ATOM     20  C   UNL     1      37.052 -20.029 -19.946  0.00  0.00    +0.014 C 
ATOM     21  C   UNL     1      36.310 -21.037 -19.331  0.00  0.00    +0.070 C 
ENDBRANCH   2  16
BRANCH   6  22
ATOM     22  O   UNL     1      33.845 -13.303 -25.829  0.00  0.00    -0.468 OA
ATOM     23  C   UNL     1      33.444 -13.379 -27.195  0.00  0.00    +0.253 C 
ENDBRANCH   6  22
BRANCH   4  24
ATOM     24  O   UNL     1      34.244 -13.304 -23.075  0.00  0.00    -0.476 OA
BRANCH  24  27
ATOM     25  O   UNL     1      31.276  -9.681 -19.262  0.00  0.00    -0.270 OA
ATOM     26  N   UNL     1      31.686 -10.473 -21.410  0.00  0.00    -0.276 N 
ATOM     27  C   UNL     1      33.039 -12.582 -22.850  0.00  0.00    +0.169 C 
ATOM     28  C   UNL     1      33.244 -11.107 -23.204  0.00  0.00    +0.065 C 
ATOM     29  C   UNL     1      32.636 -12.740 -21.383  0.00  0.00    +0.065 C 
ATOM     30  C   UNL     1      32.020 -10.279 -22.829  0.00  0.00    +0.097 C 
ATOM     31  C   UNL     1      31.432 -11.868 -21.041  0.00  0.00    +0.097 C 
ATOM     32  C   UNL     1      31.559  -9.478 -20.444  0.00  0.00    +0.249 C 
BRANCH  32  33
ATOM     33  C   UNL     1      31.782  -8.080 -20.862  0.00  0.00    +0.058 C 
ATOM     34  C   UNL     1      32.760  -7.382 -20.281  0.00  0.00    +0.005 C 
ENDBRANCH  32  33
ENDBRANCH  24  27
ENDBRANCH   4  24
TORSDOF 5
ENDMDL
MODEL 2
REMARK VINA RESULT:      -9.4      6.646     11.610
REMARK  Name = 25127713
REMARK  5 active torsions:
REMARK  status: ('A' for Active; 'I' for Inactive)
REMARK    1  A    between atoms: N_2  and  C_16
REMARK    2  A    between atoms: C_4  and  O_24
REMARK    3  A    between atoms: C_6  and  O_22
REMARK    4  A    between atoms: O_24  and  C_27
REMARK    5  A    between atoms: C_32  and  C_33
REMARK                            x       y       z     vdW  Elec       q    Type
REMARK                         _______ _______ _______ _____ _____    ______ ____
ROOT
ATOM      1  N   UNL     1      32.122  -6.950 -19.768  0.00  0.00    -0.248 NA
ATOM      2  N   UNL     1      32.240  -7.136 -23.901  0.00  0.00    -0.299 N 
ATOM      3  N   UNL     1      32.308  -5.875 -21.916  0.00  0.00    -0.233 NA
ATOM      4  C   UNL     1      31.785 -10.676 -21.607  0.00  0.00    +0.169 C 
ATOM      5  C   UNL     1      31.933  -9.531 -22.383  0.00  0.00    +0.027 C 
ATOM      6  C   UNL     1      31.751 -10.565 -20.221  0.00  0.00    +0.173 C 
ATOM      7  C   UNL     1      32.047  -8.273 -21.767  0.00  0.00    +0.119 C 
ATOM      8  C   UNL     1      32.014  -8.147 -20.368  0.00  0.00    +0.070 C 
ATOM      9  C   UNL     1      31.865  -9.310 -19.616  0.00  0.00    +0.055 C 
ATOM     10  C   UNL     1      32.198  -7.090 -22.485  0.00  0.00    +0.115 C 
ATOM     11  C   UNL     1      32.263  -5.878 -20.574  0.00  0.00    +0.251 C 
ATOM     12  H   UNL     1      31.720  -7.877 -24.289  0.00  0.00    +0.153 HD
ENDROOT
BRANCH   2  16
ATOM     13 CL   UNL     1      31.909  -3.236 -27.180  0.00  0.00    -0.079 Cl
ATOM     14 CL   UNL     1      35.006  -3.782 -27.921  0.00  0.00    -0.081 Cl
ATOM     15  F   UNL     1      30.895  -5.081 -25.168  0.00  0.00    -0.202 F 
ATOM     16  C   UNL     1      32.879  -6.332 -24.856  0.00  0.00    +0.078 C 
ATOM     17  C   UNL     1      32.182  -5.299 -25.484  0.00  0.00    +0.165 C 
ATOM     18  C   UNL     1      34.216  -6.565 -25.178  0.00  0.00    +0.018 C 
ATOM     19  C   UNL     1      32.821  -4.502 -26.433  0.00  0.00    +0.097 C 
ATOM     20  C   UNL     1      34.855  -5.768 -26.127  0.00  0.00    +0.014 C 
ATOM     21  C   UNL     1      34.158  -4.736 -26.754  0.00  0.00    +0.070 C 
ENDBRANCH   2  16
BRANCH   6  22
ATOM     22  O   UNL     1      31.606 -11.673 -19.442  0.00  0.00    -0.468 OA
ATOM     23  C   UNL     1      31.339 -11.460 -18.057  0.00  0.00    +0.253 C 
ENDBRANCH   6  22
BRANCH   4  24
ATOM     24  O   UNL     1      31.673 -11.898 -22.214  0.00  0.00    -0.476 OA
BRANCH  24  27
ATOM     25  O   UNL     1      34.426 -17.258 -22.620  0.00  0.00    -0.270 OA
ATOM     26  N   UNL     1      34.200 -15.036 -23.265  0.00  0.00    -0.276 N 
ATOM     27  C   UNL     1      32.887 -12.566 -22.538  0.00  0.00    +0.169 C 
ATOM     28  C   UNL     1      32.805 -13.132 -23.958  0.00  0.00    +0.065 C 
ATOM     29  C   UNL     1      33.124 -13.681 -21.519  0.00  0.00    +0.065 C 
ATOM     30  C   UNL     1      34.029 -13.984 -24.279  0.00  0.00    +0.097 C 
ATOM     31  C   UNL     1      34.333 -14.531 -21.896  0.00  0.00    +0.097 C 
ATOM     32  C   UNL     1      34.281 -16.406 -23.498  0.00  0.00    +0.249 C 
BRANCH  32  33
ATOM     33  C   UNL     1      34.184 -16.875 -24.895  0.00  0.00    +0.058 C 
ATOM     34  C   UNL     1      34.485 -18.145 -25.170  0.00  0.00    +0.005 C 
ENDBRANCH  32  33
ENDBRANCH  24  27
ENDBRANCH   4  24
TORSDOF 5
ENDMDL
MODEL 3
REMARK VINA RESULT:      -8.6      6.257     10.503
REMARK  Name = 25127713
REMARK  5 active torsions:
REMARK  status: ('A' for Active; 'I' for Inactive)
REMARK    1  A    between atoms: N_2  and  C_16
REMARK    2  A    between atoms: C_4  and  O_24
REMARK    3  A    between atoms: C_6  and  O_22
REMARK    4  A    between atoms: O_24  and  C_27
REMARK    5  A    between atoms: C_32  and  C_33
REMARK                            x       y       z     vdW  Elec       q    Type
REMARK                         _______ _______ _______ _____ _____    ______ ____
ROOT
ATOM      1  N   UNL     1      32.356 -23.758 -13.379  0.00  0.00    -0.248 NA
ATOM      2  N   UNL     1      36.065 -23.844 -15.214  0.00  0.00    -0.299 N 
ATOM      3  N   UNL     1      34.738 -24.110 -13.290  0.00  0.00    -0.233 NA
ATOM      4  C   UNL     1      32.595 -22.841 -17.439  0.00  0.00    +0.169 C 
ATOM      5  C   UNL     1      33.749 -23.166 -16.733  0.00  0.00    +0.027 C 
ATOM      6  C   UNL     1      31.369 -22.824 -16.780  0.00  0.00    +0.173 C 
ATOM      7  C   UNL     1      33.672 -23.476 -15.365  0.00  0.00    +0.119 C 
ATOM      8  C   UNL     1      32.441 -23.463 -14.688  0.00  0.00    +0.070 C 
ATOM      9  C   UNL     1      31.302 -23.134 -15.418  0.00  0.00    +0.055 C 
ATOM     10  C   UNL     1      34.787 -23.810 -14.601  0.00  0.00    +0.115 C 
ATOM     11  C   UNL     1      33.509 -24.065 -12.751  0.00  0.00    +0.251 C 
ATOM     12  H   UNL     1      36.161 -23.214 -15.965  0.00  0.00    +0.153 HD
ENDROOT
BRANCH   2  16
ATOM     13 CL   UNL     1      41.165 -24.090 -15.247  0.00  0.00    -0.079 Cl
ATOM     14 CL   UNL     1      40.885 -27.102 -14.112  0.00  0.00    -0.081 Cl
ATOM     15  F   UNL     1      38.586 -22.805 -15.665  0.00  0.00    -0.202 F 
ATOM     16  C   UNL     1      37.218 -24.602 -14.959  0.00  0.00    +0.078 C 
ATOM     17  C   UNL     1      38.481 -24.058 -15.194  0.00  0.00    +0.165 C 
ATOM     18  C   UNL     1      37.100 -25.903 -14.469  0.00  0.00    +0.018 C 
ATOM     19  C   UNL     1      39.625 -24.814 -14.939  0.00  0.00    +0.097 C 
ATOM     20  C   UNL     1      38.243 -26.659 -14.214  0.00  0.00    +0.014 C 
ATOM     21  C   UNL     1      39.506 -26.114 -14.449  0.00  0.00    +0.070 C 
ENDBRANCH   2  16
BRANCH   6  22
ATOM     22  O   UNL     1      30.227 -22.507 -17.452  0.00  0.00    -0.468 OA
ATOM     23  C   UNL     1      28.993 -22.760 -16.784  0.00  0.00    +0.253 C 
ENDBRANCH   6  22
BRANCH   4  24
ATOM     24  O   UNL     1      32.677 -22.539 -18.772  0.00  0.00    -0.476 OA
BRANCH  24  27
ATOM     25  O   UNL     1      36.143 -19.770 -22.870  0.00  0.00    -0.270 OA
ATOM     26  N   UNL     1      34.556 -19.702 -21.172  0.00  0.00    -0.276 N 
ATOM     27  C   UNL     1      33.338 -21.326 -19.115  0.00  0.00    +0.169 C 
ATOM     28  C   UNL     1      32.495 -20.542 -20.124  0.00  0.00    +0.065 C 
ATOM     29  C   UNL     1      34.713 -21.661 -19.695  0.00  0.00    +0.065 C 
ATOM     30  C   UNL     1      33.247 -19.314 -20.627  0.00  0.00    +0.097 C 
ATOM     31  C   UNL     1      35.414 -20.412 -20.219  0.00  0.00    +0.097 C 
ATOM     32  C   UNL     1      35.037 -19.427 -22.449  0.00  0.00    +0.249 C 
BRANCH  32  33
ATOM     33  C   UNL     1      34.160 -18.675 -23.368  0.00  0.00    +0.058 C 
ATOM     34  C   UNL     1      34.526 -18.543 -24.645  0.00  0.00    +0.005 C 
ENDBRANCH  32  33
ENDBRANCH  24  27
ENDBRANCH   4  24
TORSDOF 5
ENDMDL
MODEL 4
REMARK VINA RESULT:      -8.4      7.882     12.763
REMARK  Name = 25127713
REMARK  5 active torsions:
REMARK  status: ('A' for Active; 'I' for Inactive)
REMARK    1  A    between atoms: N_2  and  C_16
REMARK    2  A    between atoms: C_4  and  O_24
REMARK    3  A    between atoms: C_6  and  O_22
REMARK    4  A    between atoms: O_24  and  C_27
REMARK    5  A    between atoms: C_32  and  C_33
REMARK                            x       y       z     vdW  Elec       q    Type
REMARK                         _______ _______ _______ _____ _____    ______ ____
ROOT
ATOM      1  N   UNL     1      30.556  -4.196 -23.447  0.00  0.00    -0.248 NA
ATOM      2  N   UNL     1      33.361  -5.193 -26.323  0.00  0.00    -0.299 N 
ATOM      3  N   UNL     1      31.690  -3.742 -25.524  0.00  0.00    -0.233 NA
ATOM      4  C   UNL     1      32.809  -7.663 -22.918  0.00  0.00    +0.169 C 
ATOM      5  C   UNL     1      33.010  -6.872 -24.044  0.00  0.00    +0.027 C 
ATOM      6  C   UNL     1      31.855  -7.289 -21.977  0.00  0.00    +0.173 C 
ATOM      7  C   UNL     1      32.252  -5.702 -24.226  0.00  0.00    +0.119 C 
ATOM      8  C   UNL     1      31.286  -5.313 -23.284  0.00  0.00    +0.070 C 
ATOM      9  C   UNL     1      31.105  -6.123 -22.166  0.00  0.00    +0.055 C 
ATOM     10  C   UNL     1      32.405  -4.866 -25.329  0.00  0.00    +0.115 C 
ATOM     11  C   UNL     1      30.798  -3.471 -24.558  0.00  0.00    +0.251 C 
ATOM     12  H   UNL     1      33.514  -6.161 -26.422  0.00  0.00    +0.153 HD
ENDROOT
BRANCH   2  16
ATOM     13 CL   UNL     1      37.834  -4.472 -28.676  0.00  0.00    -0.079 Cl
ATOM     14 CL   UNL     1      36.548  -1.821 -30.000  0.00  0.00    -0.081 Cl
ATOM     15  F   UNL     1      35.971  -5.869 -26.929  0.00  0.00    -0.202 F 
ATOM     16  C   UNL     1      34.131  -4.406 -27.192  0.00  0.00    +0.078 C 
ATOM     17  C   UNL     1      35.446  -4.765 -27.484  0.00  0.00    +0.165 C 
ATOM     18  C   UNL     1      33.578  -3.260 -27.765  0.00  0.00    +0.018 C 
ATOM     19  C   UNL     1      36.209  -3.980 -28.348  0.00  0.00    +0.097 C 
ATOM     20  C   UNL     1      34.340  -2.475 -28.629  0.00  0.00    +0.014 C 
ATOM     21  C   UNL     1      35.656  -2.835 -28.921  0.00  0.00    +0.070 C 
ENDBRANCH   2  16
BRANCH   6  22
ATOM     22  O   UNL     1      31.641  -8.050 -20.868  0.00  0.00    -0.468 OA
ATOM     23  C   UNL     1      32.422  -7.745 -19.714  0.00  0.00    +0.253 C 
ENDBRANCH   6  22
BRANCH   4  24
ATOM     24  O   UNL     1      33.549  -8.802 -22.748  0.00  0.00    -0.476 OA
BRANCH  24  27
ATOM     25  O   UNL     1      34.550 -14.680 -23.713  0.00  0.00    -0.270 OA
ATOM     26  N   UNL     1      33.101 -12.878 -23.475  0.00  0.00    -0.276 N 
ATOM     27  C   UNL     1      33.043  -9.991 -23.344  0.00  0.00    +0.169 C 
ATOM     28  C   UNL     1      32.364 -10.857 -22.281  0.00  0.00    +0.065 C 
ATOM     29  C   UNL     1      34.200 -10.743 -24.004  0.00  0.00    +0.065 C 
ATOM     30  C   UNL     1      31.947 -12.206 -22.858  0.00  0.00    +0.097 C 
ATOM     31  C   UNL     1      33.749 -12.100 -24.535  0.00  0.00    +0.097 C 
ATOM     32  C   UNL     1      33.578 -14.149 -23.172  0.00  0.00    +0.249 C 
BRANCH  32  33
ATOM     33  C   UNL     1      32.874 -14.919 -22.127  0.00  0.00    +0.058 C 
ATOM     34  C   UNL     1      33.445 -15.047 -20.927  0.00  0.00    +0.005 C 
ENDBRANCH  32  33
ENDBRANCH  24  27
ENDBRANCH   4  24
TORSDOF 5
ENDMDL
MODEL 5
REMARK VINA RESULT:      -8.3      8.001     12.708
REMARK  Name = 25127713
REMARK  5 active torsions:
REMARK  status: ('A' for Active; 'I' for Inactive)
REMARK    1  A    between atoms: N_2  and  C_16
REMARK    2  A    between atoms: C_4  and  O_24
REMARK    3  A    between atoms: C_6  and  O_22
REMARK    4  A    between atoms: O_24  and  C_27
REMARK    5  A    between atoms: C_32  and  C_33
REMARK                            x       y       z     vdW  Elec       q    Type
REMARK                         _______ _______ _______ _____ _____    ______ ____
ROOT
ATOM      1  N   UNL     1      31.199  -5.262 -22.790  0.00  0.00    -0.248 NA
ATOM      2  N   UNL     1      33.389  -5.737 -26.270  0.00  0.00    -0.299 N 
ATOM      3  N   UNL     1      31.973  -4.434 -24.916  0.00  0.00    -0.233 NA
ATOM      4  C   UNL     1      33.304  -8.816 -23.353  0.00  0.00    +0.169 C 
ATOM      5  C   UNL     1      33.349  -7.823 -24.326  0.00  0.00    +0.027 C 
ATOM      6  C   UNL     1      32.554  -8.613 -22.199  0.00  0.00    +0.173 C 
ATOM      7  C   UNL     1      32.641  -6.623 -24.140  0.00  0.00    +0.119 C 
ATOM      8  C   UNL     1      31.880  -6.405 -22.979  0.00  0.00    +0.070 C 
ATOM      9  C   UNL     1      31.853  -7.416 -22.022  0.00  0.00    +0.055 C 
ATOM     10  C   UNL     1      32.644  -5.590 -25.073  0.00  0.00    +0.115 C 
ATOM     11  C   UNL     1      31.282  -4.338 -23.769  0.00  0.00    +0.251 C 
ATOM     12  H   UNL     1      33.466  -6.669 -26.577  0.00  0.00    +0.153 HD
ENDROOT
BRANCH   2  16
ATOM     13 CL   UNL     1      32.973  -2.041 -29.769  0.00  0.00    -0.079 Cl
ATOM     14 CL   UNL     1      36.198  -1.854 -29.748  0.00  0.00    -0.081 Cl
ATOM     15  F   UNL     1      31.955  -4.059 -27.933  0.00  0.00    -0.202 F 
ATOM     16  C   UNL     1      34.038  -4.811 -27.101  0.00  0.00    +0.078 C 
ATOM     17  C   UNL     1      33.294  -3.974 -27.933  0.00  0.00    +0.165 C 
ATOM     18  C   UNL     1      35.430  -4.728 -27.094  0.00  0.00    +0.018 C 
ATOM     19  C   UNL     1      33.943  -3.055 -28.758  0.00  0.00    +0.097 C 
ATOM     20  C   UNL     1      36.079  -3.809 -27.918  0.00  0.00    +0.014 C 
ATOM     21  C   UNL     1      35.335  -2.972 -28.750  0.00  0.00    +0.070 C 
ENDBRANCH   2  16
BRANCH   6  22
ATOM     22  O   UNL     1      32.496  -9.572 -21.233  0.00  0.00    -0.468 OA
ATOM     23  C   UNL     1      32.204  -9.139 -19.907  0.00  0.00    +0.253 C 
ENDBRANCH   6  22
BRANCH   4  24
ATOM     24  O   UNL     1      33.996  -9.983 -23.541  0.00  0.00    -0.476 OA
BRANCH  24  27
ATOM     25  O   UNL     1      34.339 -15.339 -26.310  0.00  0.00    -0.270 OA
ATOM     26  N   UNL     1      33.265 -13.859 -24.874  0.00  0.00    -0.276 N 
ATOM     27  C   UNL     1      33.255 -11.095 -24.028  0.00  0.00    +0.169 C 
ATOM     28  C   UNL     1      33.320 -12.245 -23.019  0.00  0.00    +0.065 C 
ATOM     29  C   UNL     1      33.833 -11.521 -25.378  0.00  0.00    +0.065 C 
ATOM     30  C   UNL     1      32.665 -13.503 -23.580  0.00  0.00    +0.097 C 
ATOM     31  C   UNL     1      33.177 -12.801 -25.885  0.00  0.00    +0.097 C 
ATOM     32  C   UNL     1      33.846 -15.078 -25.211  0.00  0.00    +0.249 C 
BRANCH  32  33
ATOM     33  C   UNL     1      33.880 -16.134 -24.179  0.00  0.00    +0.058 C 
ATOM     34  C   UNL     1      34.933 -16.203 -23.362  0.00  0.00    +0.005 C 
ENDBRANCH  32  33
ENDBRANCH  24  27
ENDBRANCH   4  24
TORSDOF 5
ENDMDL
MODEL 6
REMARK VINA RESULT:      -8.2      4.229      7.456
REMARK  Name = 25127713
REMARK  5 active torsions:
REMARK  status: ('A' for Active; 'I' for Inactive)
REMARK    1  A    between atoms: N_2  and  C_16
REMARK    2  A    between atoms: C_4  and  O_24
REMARK    3  A    between atoms: C_6  and  O_22
REMARK    4  A    between atoms: O_24  and  C_27
REMARK    5  A    between atoms: C_32  and  C_33
REMARK                            x       y       z     vdW  Elec       q    Type
REMARK                         _______ _______ _______ _____ _____    ______ ____
ROOT
ATOM      1  N   UNL     1      37.441 -21.706 -17.799  0.00  0.00    -0.248 NA
ATOM      2  N   UNL     1      33.444 -22.783 -17.741  0.00  0.00    -0.299 N 
ATOM      3  N   UNL     1      35.611 -22.946 -16.838  0.00  0.00    -0.233 NA
ATOM      4  C   UNL     1      34.893 -20.073 -20.665  0.00  0.00    +0.169 C 
ATOM      5  C   UNL     1      34.392 -20.960 -19.718  0.00  0.00    +0.027 C 
ATOM      6  C   UNL     1      36.244 -19.740 -20.647  0.00  0.00    +0.173 C 
ATOM      7  C   UNL     1      35.247 -21.512 -18.750  0.00  0.00    +0.119 C 
ATOM      8  C   UNL     1      36.613 -21.185 -18.720  0.00  0.00    +0.070 C 
ATOM      9  C   UNL     1      37.088 -20.294 -19.680  0.00  0.00    +0.055 C 
ATOM     10  C   UNL     1      34.810 -22.404 -17.774  0.00  0.00    +0.115 C 
ATOM     11  C   UNL     1      36.895 -22.559 -16.907  0.00  0.00    +0.251 C 
ATOM     12  H   UNL     1      33.010 -22.778 -18.625  0.00  0.00    +0.153 HD
ENDROOT
BRANCH   2  16
ATOM     13 CL   UNL     1      28.776 -22.585 -15.683  0.00  0.00    -0.079 Cl
ATOM     14 CL   UNL     1      29.909 -24.428 -13.285  0.00  0.00    -0.081 Cl
ATOM     15  F   UNL     1      30.800 -21.983 -17.688  0.00  0.00    -0.202 F 
ATOM     16  C   UNL     1      32.593 -23.163 -16.693  0.00  0.00    +0.078 C 
ATOM     17  C   UNL     1      31.261 -22.748 -16.686  0.00  0.00    +0.165 C 
ATOM     18  C   UNL     1      33.080 -23.959 -15.656  0.00  0.00    +0.018 C 
ATOM     19  C   UNL     1      30.417 -23.127 -15.642  0.00  0.00    +0.097 C 
ATOM     20  C   UNL     1      32.236 -24.338 -14.612  0.00  0.00    +0.014 C 
ATOM     21  C   UNL     1      30.905 -23.923 -14.606  0.00  0.00    +0.070 C 
ENDBRANCH   2  16
BRANCH   6  22
ATOM     22  O   UNL     1      36.756 -18.874 -21.566  0.00  0.00    -0.468 OA
ATOM     23  C   UNL     1      38.167 -18.902 -21.765  0.00  0.00    +0.253 C 
ENDBRANCH   6  22
BRANCH   4  24
ATOM     24  O   UNL     1      34.054 -19.539 -21.607  0.00  0.00    -0.476 OA
BRANCH  24  27
ATOM     25  O   UNL     1      33.061 -16.141 -26.500  0.00  0.00    -0.270 OA
ATOM     26  N   UNL     1      34.175 -16.547 -24.500  0.00  0.00    -0.276 N 
ATOM     27  C   UNL     1      34.618 -18.589 -22.503  0.00  0.00    +0.169 C 
ATOM     28  C   UNL     1      34.158 -17.179 -22.123  0.00  0.00    +0.065 C 
ATOM     29  C   UNL     1      34.187 -18.938 -23.929  0.00  0.00    +0.065 C 
ATOM     30  C   UNL     1      34.622 -16.156 -23.155  0.00  0.00    +0.097 C 
ATOM     31  C   UNL     1      34.638 -17.872 -24.922  0.00  0.00    +0.097 C 
ATOM     32  C   UNL     1      33.416 -15.778 -25.378  0.00  0.00    +0.249 C 
BRANCH  32  33
ATOM     33  C   UNL     1      33.003 -14.432 -24.933  0.00  0.00    +0.058 C 
ATOM     34  C   UNL     1      33.374 -13.373 -25.656  0.00  0.00    +0.005 C 
ENDBRANCH  32  33
ENDBRANCH  24  27
ENDBRANCH   4  24
TORSDOF 5
ENDMDL
MODEL 7
REMARK VINA RESULT:      -7.9      7.922     11.282
REMARK  Name = 25127713
REMARK  5 active torsions:
REMARK  status: ('A' for Active; 'I' for Inactive)
REMARK    1  A    between atoms: N_2  and  C_16
REMARK    2  A    between atoms: C_4  and  O_24
REMARK    3  A    between atoms: C_6  and  O_22
REMARK    4  A    between atoms: O_24  and  C_27
REMARK    5  A    between atoms: C_32  and  C_33
REMARK                            x       y       z     vdW  Elec       q    Type
REMARK                         _______ _______ _______ _____ _____    ______ ____
ROOT
ATOM      1  N   UNL     1      30.499 -24.894 -13.556  0.00  0.00    -0.248 NA
ATOM      2  N   UNL     1      34.319 -23.648 -14.549  0.00  0.00    -0.299 N 
ATOM      3  N   UNL     1      32.869 -24.839 -13.129  0.00  0.00    -0.233 NA
ATOM      4  C   UNL     1      31.001 -22.497 -16.929  0.00  0.00    +0.169 C 
ATOM      5  C   UNL     1      32.106 -22.859 -16.166  0.00  0.00    +0.027 C 
ATOM      6  C   UNL     1      29.736 -22.939 -16.557  0.00  0.00    +0.173 C 
ATOM      7  C   UNL     1      31.941 -23.667 -15.029  0.00  0.00    +0.119 C 
ATOM      8  C   UNL     1      30.669 -24.121 -14.642  0.00  0.00    +0.070 C 
ATOM      9  C   UNL     1      29.580 -23.743 -15.424  0.00  0.00    +0.055 C 
ATOM     10  C   UNL     1      33.004 -24.066 -14.223  0.00  0.00    +0.115 C 
ATOM     11  C   UNL     1      31.609 -25.212 -12.858  0.00  0.00    +0.251 C 
ATOM     12  H   UNL     1      34.356 -22.776 -15.005  0.00  0.00    +0.153 HD
ENDROOT
BRANCH   2  16
ATOM     13 CL   UNL     1      38.579 -23.876 -11.743  0.00  0.00    -0.079 Cl
ATOM     14 CL   UNL     1      39.616 -26.174 -13.763  0.00  0.00    -0.081 Cl
ATOM     15  F   UNL     1      35.937 -22.875 -12.446  0.00  0.00    -0.202 F 
ATOM     16  C   UNL     1      35.577 -24.235 -14.348  0.00  0.00    +0.078 C 
ATOM     17  C   UNL     1      36.377 -23.830 -13.280  0.00  0.00    +0.165 C 
ATOM     18  C   UNL     1      36.027 -25.228 -15.218  0.00  0.00    +0.018 C 
ATOM     19  C   UNL     1      37.628 -24.416 -13.083  0.00  0.00    +0.097 C 
ATOM     20  C   UNL     1      37.277 -25.814 -15.022  0.00  0.00    +0.014 C 
ATOM     21  C   UNL     1      38.077 -25.409 -13.954  0.00  0.00    +0.070 C 
ENDBRANCH   2  16
BRANCH   6  22
ATOM     22  O   UNL     1      28.640 -22.595 -17.290  0.00  0.00    -0.468 OA
ATOM     23  C   UNL     1      27.416 -22.420 -16.580  0.00  0.00    +0.253 C 
ENDBRANCH   6  22
BRANCH   4  24
ATOM     24  O   UNL     1      31.169 -21.707 -18.036  0.00  0.00    -0.476 OA
BRANCH  24  27
ATOM     25  O   UNL     1      36.647 -19.839 -19.760  0.00  0.00    -0.270 OA
ATOM     26  N   UNL     1      35.092 -21.533 -19.420  0.00  0.00    -0.276 N 
ATOM     27  C   UNL     1      32.294 -21.990 -18.860  0.00  0.00    +0.169 C 
ATOM     28  C   UNL     1      33.398 -22.645 -18.026  0.00  0.00    +0.065 C 
ATOM     29  C   UNL     1      32.786 -20.686 -19.489  0.00  0.00    +0.065 C 
ATOM     30  C   UNL     1      34.672 -22.820 -18.845  0.00  0.00    +0.097 C 
ATOM     31  C   UNL     1      34.080 -20.898 -20.268  0.00  0.00    +0.097 C 
ATOM     32  C   UNL     1      36.332 -20.920 -19.261  0.00  0.00    +0.249 C 
BRANCH  32  33
ATOM     33  C   UNL     1      37.341 -21.610 -18.433  0.00  0.00    +0.058 C 
ATOM     34  C   UNL     1      37.185 -21.625 -17.107  0.00  0.00    +0.005 C 
ENDBRANCH  32  33
ENDBRANCH  24  27
ENDBRANCH   4  24
TORSDOF 5
ENDMDL
MODEL 8
REMARK VINA RESULT:      -7.6      5.969     11.103
REMARK  Name = 25127713
REMARK  5 active torsions:
REMARK  status: ('A' for Active; 'I' for Inactive)
REMARK    1  A    between atoms: N_2  and  C_16
REMARK    2  A    between atoms: C_4  and  O_24
REMARK    3  A    between atoms: C_6  and  O_22
REMARK    4  A    between atoms: O_24  and  C_27
REMARK    5  A    between atoms: C_32  and  C_33
REMARK                            x       y       z     vdW  Elec       q    Type
REMARK                         _______ _______ _______ _____ _____    ______ ____
ROOT
ATOM      1  N   UNL     1      32.087  -8.747 -19.406  0.00  0.00    -0.248 NA
ATOM      2  N   UNL     1      31.587  -7.865 -23.419  0.00  0.00    -0.299 N 
ATOM      3  N   UNL     1      31.883  -7.149 -21.198  0.00  0.00    -0.233 NA
ATOM      4  C   UNL     1      31.691 -11.898 -22.107  0.00  0.00    +0.169 C 
ATOM      5  C   UNL     1      31.653 -10.585 -22.564  0.00  0.00    +0.027 C 
ATOM      6  C   UNL     1      31.861 -12.147 -20.748  0.00  0.00    +0.173 C 
ATOM      7  C   UNL     1      31.786  -9.520 -21.657  0.00  0.00    +0.119 C 
ATOM      8  C   UNL     1      31.958  -9.758 -20.283  0.00  0.00    +0.070 C 
ATOM      9  C   UNL     1      31.993 -11.082 -19.853  0.00  0.00    +0.055 C 
ATOM     10  C   UNL     1      31.758  -8.185 -22.049  0.00  0.00    +0.115 C 
ATOM     11  C   UNL     1      32.043  -7.497 -19.911  0.00  0.00    +0.251 C 
ATOM     12  H   UNL     1      31.058  -8.529 -23.918  0.00  0.00    +0.153 HD
ENDROOT
BRANCH   2  16
ATOM     13 CL   UNL     1      35.345  -5.783 -26.179  0.00  0.00    -0.079 Cl
ATOM     14 CL   UNL     1      33.373  -3.282 -26.715  0.00  0.00    -0.081 Cl
ATOM     15  F   UNL     1      34.122  -7.840 -24.520  0.00  0.00    -0.202 F 
ATOM     16  C   UNL     1      32.027  -6.788 -24.202  0.00  0.00    +0.078 C 
ATOM     17  C   UNL     1      33.310  -6.796 -24.748  0.00  0.00    +0.165 C 
ATOM     18  C   UNL     1      31.178  -5.706 -24.435  0.00  0.00    +0.018 C 
ATOM     19  C   UNL     1      33.745  -5.722 -25.526  0.00  0.00    +0.097 C 
ATOM     20  C   UNL     1      31.611  -4.633 -25.213  0.00  0.00    +0.014 C 
ATOM     21  C   UNL     1      32.895  -4.641 -25.759  0.00  0.00    +0.070 C 
ENDBRANCH   2  16
BRANCH   6  22
ATOM     22  O   UNL     1      31.900 -13.425 -20.279  0.00  0.00    -0.468 OA
ATOM     23  C   UNL     1      33.166 -13.916 -19.843  0.00  0.00    +0.253 C 
ENDBRANCH   6  22
BRANCH   4  24
ATOM     24  O   UNL     1      31.559 -12.931 -22.996  0.00  0.00    -0.476 OA
BRANCH  24  27
ATOM     25  O   UNL     1      35.488 -17.517 -23.079  0.00  0.00    -0.270 OA
ATOM     26  N   UNL     1      34.444 -15.717 -24.115  0.00  0.00    -0.276 N 
ATOM     27  C   UNL     1      32.756 -13.433 -23.578  0.00  0.00    +0.169 C 
ATOM     28  C   UNL     1      32.416 -14.443 -24.677  0.00  0.00    +0.065 C 
ATOM     29  C   UNL     1      33.603 -14.083 -22.482  0.00  0.00    +0.065 C 
ATOM     30  C   UNL     1      33.677 -15.111 -25.215  0.00  0.00    +0.097 C 
ATOM     31  C   UNL     1      34.833 -14.770 -23.066  0.00  0.00    +0.097 C 
ATOM     32  C   UNL     1      34.844 -17.046 -24.018  0.00  0.00    +0.249 C 
BRANCH  32  33
ATOM     33  C   UNL     1      34.469 -17.961 -25.114  0.00  0.00    +0.058 C 
ATOM     34  C   UNL     1      34.636 -19.274 -24.943  0.00  0.00    +0.005 C 
ENDBRANCH  32  33
ENDBRANCH  24  27
ENDBRANCH   4  24
TORSDOF 5
ENDMDL
MODEL 9
REMARK VINA RESULT:      -7.4      5.141      8.250
REMARK  Name = 25127713
REMARK  5 active torsions:
REMARK  status: ('A' for Active; 'I' for Inactive)
REMARK    1  A    between atoms: N_2  and  C_16
REMARK    2  A    between atoms: C_4  and  O_24
REMARK    3  A    between atoms: C_6  and  O_22
REMARK    4  A    between atoms: O_24  and  C_27
REMARK    5  A    between atoms: C_32  and  C_33
REMARK                            x       y       z     vdW  Elec       q    Type
REMARK                         _______ _______ _______ _____ _____    ______ ____
ROOT
ATOM      1  N   UNL     1      31.065 -10.174 -20.388  0.00  0.00    -0.248 NA
ATOM      2  N   UNL     1      33.649 -11.798 -23.184  0.00  0.00    -0.299 N 
ATOM      3  N   UNL     1      32.085 -12.081 -21.449  0.00  0.00    -0.233 NA
ATOM      4  C   UNL     1      33.219  -7.591 -22.851  0.00  0.00    +0.169 C 
ATOM      5  C   UNL     1      33.379  -8.966 -22.981  0.00  0.00    +0.027 C 
ATOM      6  C   UNL     1      32.339  -7.089 -21.897  0.00  0.00    +0.173 C 
ATOM      7  C   UNL     1      32.655  -9.840 -22.153  0.00  0.00    +0.119 C 
ATOM      8  C   UNL     1      31.763  -9.347 -21.186  0.00  0.00    +0.070 C 
ATOM      9  C   UNL     1      31.622  -7.966 -21.077  0.00  0.00    +0.055 C 
ATOM     10  C   UNL     1      32.768 -11.226 -22.232  0.00  0.00    +0.115 C 
ATOM     11  C   UNL     1      31.264 -11.496 -20.563  0.00  0.00    +0.251 C 
ATOM     12  H   UNL     1      34.429 -11.234 -23.392  0.00  0.00    +0.153 HD
ENDROOT
BRANCH   2  16
ATOM     13 CL   UNL     1      34.836 -16.763 -23.273  0.00  0.00    -0.079 Cl
ATOM     14 CL   UNL     1      33.504 -16.883 -26.214  0.00  0.00    -0.081 Cl
ATOM     15  F   UNL     1      34.721 -14.102 -22.098  0.00  0.00    -0.202 F 
ATOM     16  C   UNL     1      33.623 -13.011 -23.888  0.00  0.00    +0.078 C 
ATOM     17  C   UNL     1      34.170 -14.162 -23.321  0.00  0.00    +0.165 C 
ATOM     18  C   UNL     1      33.049 -13.066 -25.158  0.00  0.00    +0.018 C 
ATOM     19  C   UNL     1      34.144 -15.367 -24.023  0.00  0.00    +0.097 C 
ATOM     20  C   UNL     1      33.022 -14.270 -25.860  0.00  0.00    +0.014 C 
ATOM     21  C   UNL     1      33.569 -15.421 -25.293  0.00  0.00    +0.070 C 
ENDBRANCH   2  16
BRANCH   6  22
ATOM     22  O   UNL     1      32.167  -5.746 -21.752  0.00  0.00    -0.468 OA
ATOM     23  C   UNL     1      30.843  -5.287 -21.487  0.00  0.00    +0.253 C 
ENDBRANCH   6  22
BRANCH   4  24
ATOM     24  O   UNL     1      33.929  -6.745 -23.661  0.00  0.00    -0.476 OA
BRANCH  24  27
ATOM     25  O   UNL     1      32.043  -1.918 -26.763  0.00  0.00    -0.270 OA
ATOM     26  N   UNL     1      32.767  -4.126 -26.682  0.00  0.00    -0.276 N 
ATOM     27  C   UNL     1      33.281  -6.298 -24.846  0.00  0.00    +0.169 C 
ATOM     28  C   UNL     1      34.326  -5.847 -25.870  0.00  0.00    +0.065 C 
ATOM     29  C   UNL     1      32.335  -5.151 -24.490  0.00  0.00    +0.065 C 
ATOM     30  C   UNL     1      33.660  -5.220 -27.091  0.00  0.00    +0.097 C 
ATOM     31  C   UNL     1      31.720  -4.530 -25.740  0.00  0.00    +0.097 C 
ATOM     32  C   UNL     1      32.812  -2.808 -27.129  0.00  0.00    +0.249 C 
BRANCH  32  33
ATOM     33  C   UNL     1      33.855  -2.449 -28.110  0.00  0.00    +0.058 C 
ATOM     34  C   UNL     1      35.038  -2.020 -27.664  0.00  0.00    +0.005 C 
ENDBRANCH  32  33
ENDBRANCH  24  27
ENDBRANCH   4  24
TORSDOF 5
ENDMDL
