MODEL 1
REMARK VINA RESULT:      -6.6      0.000      0.000
REMARK  Name = 6919078
REMARK  4 active torsions:
REMARK  status: ('A' for Active; 'I' for Inactive)
REMARK    1  A    between atoms: C_1  and  C_7
REMARK    2  A    between atoms: C_1  and  C_12
REMARK    3  A    between atoms: C_7  and  N_8
REMARK    4  A    between atoms: C_12  and  C_15
REMARK                            x       y       z     vdW  Elec       q    Type
REMARK                         _______ _______ _______ _____ _____    ______ ____
ROOT
ATOM      1  C   UNL     1      30.117 -23.519 -15.388  0.00  0.00    -0.009 C 
ATOM      2  C   UNL     1      30.803 -23.221 -14.035  0.00  0.00    -0.002 C 
ATOM      3  C   UNL     1      30.967 -22.948 -16.546  0.00  0.00    -0.002 C 
ATOM      4  C   UNL     1      32.268 -23.656 -13.989  0.00  0.00    -0.000 C 
ATOM      5  C   UNL     1      32.432 -23.384 -16.495  0.00  0.00    -0.000 C 
ATOM      6  C   UNL     1      33.067 -23.067 -15.146  0.00  0.00    -0.000 C 
ENDROOT
BRANCH   1   7
ATOM      7  C   UNL     1      29.907 -25.036 -15.566  0.00  0.00    -0.085 C 
BRANCH   7   8
ATOM      8  N   UNL     1      28.966 -25.494 -14.530  0.00  0.00    +0.380 N 
ATOM      9  H   UNL     1      28.792 -24.737 -13.869  0.00  0.00    -0.089 HD
ATOM     10  H   UNL     1      29.366 -26.291 -14.035  0.00  0.00    -0.089 HD
ATOM     11  H   UNL     1      28.087 -25.772 -14.967  0.00  0.00    -0.089 HD
ENDBRANCH   7   8
ENDBRANCH   1   7
BRANCH   1  12
ATOM     12  C   UNL     1      28.731 -22.845 -15.404  0.00  0.00    +0.112 C 
BRANCH  12  15
ATOM     13  O   UNL     1      27.810 -23.973 -17.289  0.00  0.00    -0.246 OA
ATOM     14  O   UNL     1      27.784 -21.691 -17.194  0.00  0.00    -0.246 OA
ATOM     15  C   UNL     1      28.043 -22.851 -16.760  0.00  0.00    +0.365 C 
ENDBRANCH  12  15
ENDBRANCH   1  12
TORSDOF 4
ENDMDL
MODEL 2
REMARK VINA RESULT:      -6.4      8.214      9.429
REMARK  Name = 6919078
REMARK  4 active torsions:
REMARK  status: ('A' for Active; 'I' for Inactive)
REMARK    1  A    between atoms: C_1  and  C_7
REMARK    2  A    between atoms: C_1  and  C_12
REMARK    3  A    between atoms: C_7  and  N_8
REMARK    4  A    between atoms: C_12  and  C_15
REMARK                            x       y       z     vdW  Elec       q    Type
REMARK                         _______ _______ _______ _____ _____    ______ ____
ROOT
ATOM      1  C   UNL     1      34.949 -18.692 -21.791  0.00  0.00    -0.009 C 
ATOM      2  C   UNL     1      33.593 -18.827 -21.061  0.00  0.00    -0.002 C 
ATOM      3  C   UNL     1      36.069 -19.335 -20.943  0.00  0.00    -0.002 C 
ATOM      4  C   UNL     1      33.281 -20.257 -20.621  0.00  0.00    -0.000 C 
ATOM      5  C   UNL     1      35.752 -20.765 -20.502  0.00  0.00    -0.000 C 
ATOM      6  C   UNL     1      34.410 -20.849 -19.785  0.00  0.00    -0.000 C 
ENDROOT
BRANCH   1   7
ATOM      7  C   UNL     1      34.881 -19.347 -23.185  0.00  0.00    -0.085 C 
BRANCH   7   8
ATOM      8  N   UNL     1      35.008 -18.285 -24.198  0.00  0.00    +0.380 N 
ATOM      9  H   UNL     1      35.991 -18.039 -24.311  0.00  0.00    -0.089 HD
ATOM     10  H   UNL     1      34.484 -17.463 -23.897  0.00  0.00    -0.089 HD
ATOM     11  H   UNL     1      34.637 -18.618 -25.088  0.00  0.00    -0.089 HD
ENDBRANCH   7   8
ENDBRANCH   1   7
BRANCH   1  12
ATOM     12  C   UNL     1      35.265 -17.197 -21.987  0.00  0.00    +0.112 C 
BRANCH  12  15
ATOM     13  O   UNL     1      34.992 -16.004 -19.944  0.00  0.00    -0.246 OA
ATOM     14  O   UNL     1      33.406 -15.852 -21.579  0.00  0.00    -0.246 OA
ATOM     15  C   UNL     1      34.489 -16.262 -21.071  0.00  0.00    +0.365 C 
ENDBRANCH  12  15
ENDBRANCH   1  12
TORSDOF 4
ENDMDL
MODEL 3
REMARK VINA RESULT:      -6.0      7.598      9.038
REMARK  Name = 6919078
REMARK  4 active torsions:
REMARK  status: ('A' for Active; 'I' for Inactive)
REMARK    1  A    between atoms: C_1  and  C_7
REMARK    2  A    between atoms: C_1  and  C_12
REMARK    3  A    between atoms: C_7  and  N_8
REMARK    4  A    between atoms: C_12  and  C_15
REMARK                            x       y       z     vdW  Elec       q    Type
REMARK                         _______ _______ _______ _____ _____    ______ ____
ROOT
ATOM      1  C   UNL     1      37.651 -25.094 -14.026  0.00  0.00    -0.009 C 
ATOM      2  C   UNL     1      36.471 -24.207 -14.489  0.00  0.00    -0.002 C 
ATOM      3  C   UNL     1      38.200 -24.576 -12.678  0.00  0.00    -0.002 C 
ATOM      4  C   UNL     1      35.394 -24.024 -13.421  0.00  0.00    -0.000 C 
ATOM      5  C   UNL     1      37.119 -24.391 -11.612  0.00  0.00    -0.000 C 
ATOM      6  C   UNL     1      35.981 -23.509 -12.111  0.00  0.00    -0.000 C 
ENDROOT
BRANCH   1   7
ATOM      7  C   UNL     1      37.206 -26.564 -13.901  0.00  0.00    -0.085 C 
BRANCH   7   8
ATOM      8  N   UNL     1      36.458 -26.924 -15.117  0.00  0.00    +0.380 N 
ATOM      9  H   UNL     1      36.660 -26.247 -15.853  0.00  0.00    -0.089 HD
ATOM     10  H   UNL     1      35.458 -26.918 -14.916  0.00  0.00    -0.089 HD
ATOM     11  H   UNL     1      36.737 -27.855 -15.426  0.00  0.00    -0.089 HD
ENDBRANCH   7   8
ENDBRANCH   1   7
BRANCH   1  12
ATOM     12  C   UNL     1      38.771 -25.028 -15.082  0.00  0.00    +0.112 C 
BRANCH  12  15
ATOM     13  O   UNL     1      40.263 -26.807 -14.552  0.00  0.00    -0.246 OA
ATOM     14  O   UNL     1      40.940 -24.638 -14.325  0.00  0.00    -0.246 OA
ATOM     15  C   UNL     1      40.117 -25.555 -14.608  0.00  0.00    +0.365 C 
ENDBRANCH  12  15
ENDBRANCH   1  12
TORSDOF 4
ENDMDL
MODEL 4
REMARK VINA RESULT:      -6.0     16.921     17.745
REMARK  Name = 6919078
REMARK  4 active torsions:
REMARK  status: ('A' for Active; 'I' for Inactive)
REMARK    1  A    between atoms: C_1  and  C_7
REMARK    2  A    between atoms: C_1  and  C_12
REMARK    3  A    between atoms: C_7  and  N_8
REMARK    4  A    between atoms: C_12  and  C_15
REMARK                            x       y       z     vdW  Elec       q    Type
REMARK                         _______ _______ _______ _____ _____    ______ ____
ROOT
ATOM      1  C   UNL     1      32.339  -7.341 -22.673  0.00  0.00    -0.009 C 
ATOM      2  C   UNL     1      33.789  -7.831 -22.450  0.00  0.00    -0.002 C 
ATOM      3  C   UNL     1      32.344  -6.062 -23.541  0.00  0.00    -0.002 C 
ATOM      4  C   UNL     1      34.587  -7.975 -23.746  0.00  0.00    -0.000 C 
ATOM      5  C   UNL     1      33.145  -6.210 -24.836  0.00  0.00    -0.000 C 
ATOM      6  C   UNL     1      34.566  -6.690 -24.566  0.00  0.00    -0.000 C 
ENDROOT
BRANCH   1   7
ATOM      7  C   UNL     1      31.491  -8.444 -23.337  0.00  0.00    -0.085 C 
BRANCH   7   8
ATOM      8  N   UNL     1      31.799  -9.723 -22.675  0.00  0.00    +0.380 N 
ATOM      9  H   UNL     1      30.976 -10.051 -22.170  0.00  0.00    -0.089 HD
ATOM     10  H   UNL     1      32.569  -9.589 -22.019  0.00  0.00    -0.089 HD
ATOM     11  H   UNL     1      32.066 -10.414 -23.376  0.00  0.00    -0.089 HD
ENDBRANCH   7   8
ENDBRANCH   1   7
BRANCH   1  12
ATOM     12  C   UNL     1      31.705  -7.016 -21.307  0.00  0.00    +0.112 C 
BRANCH  12  15
ATOM     13  O   UNL     1      32.380  -8.814 -19.899  0.00  0.00    -0.246 OA
ATOM     14  O   UNL     1      33.094  -6.689 -19.465  0.00  0.00    -0.246 OA
ATOM     15  C   UNL     1      32.461  -7.574 -20.111  0.00  0.00    +0.365 C 
ENDBRANCH  12  15
ENDBRANCH   1  12
TORSDOF 4
ENDMDL
MODEL 5
REMARK VINA RESULT:      -5.9      8.951     10.088
REMARK  Name = 6919078
REMARK  4 active torsions:
REMARK  status: ('A' for Active; 'I' for Inactive)
REMARK    1  A    between atoms: C_1  and  C_7
REMARK    2  A    between atoms: C_1  and  C_12
REMARK    3  A    between atoms: C_7  and  N_8
REMARK    4  A    between atoms: C_12  and  C_15
REMARK                            x       y       z     vdW  Elec       q    Type
REMARK                         _______ _______ _______ _____ _____    ______ ____
ROOT
ATOM      1  C   UNL     1      35.210 -18.106 -22.077  0.00  0.00    -0.009 C 
ATOM      2  C   UNL     1      36.574 -18.772 -21.782  0.00  0.00    -0.002 C 
ATOM      3  C   UNL     1      34.079 -19.154 -21.976  0.00  0.00    -0.002 C 
ATOM      4  C   UNL     1      36.592 -19.566 -20.477  0.00  0.00    -0.000 C 
ATOM      5  C   UNL     1      34.102 -19.948 -20.669  0.00  0.00    -0.000 C 
ATOM      6  C   UNL     1      35.463 -20.590 -20.424  0.00  0.00    -0.000 C 
ENDROOT
BRANCH   1   7
ATOM      7  C   UNL     1      34.956 -16.939 -21.101  0.00  0.00    -0.085 C 
BRANCH   7   8
ATOM      8  N   UNL     1      34.641 -15.738 -21.893  0.00  0.00    +0.380 N 
ATOM      9  H   UNL     1      34.025 -15.992 -22.665  0.00  0.00    -0.089 HD
ATOM     10  H   UNL     1      35.504 -15.339 -22.263  0.00  0.00    -0.089 HD
ATOM     11  H   UNL     1      34.176 -15.051 -21.299  0.00  0.00    -0.089 HD
ENDBRANCH   7   8
ENDBRANCH   1   7
BRANCH   1  12
ATOM     12  C   UNL     1      35.233 -17.529 -23.505  0.00  0.00    +0.112 C 
BRANCH  12  15
ATOM     13  O   UNL     1      34.987 -19.672 -24.516  0.00  0.00    -0.246 OA
ATOM     14  O   UNL     1      33.909 -17.861 -25.394  0.00  0.00    -0.246 OA
ATOM     15  C   UNL     1      34.662 -18.454 -24.569  0.00  0.00    +0.365 C 
ENDBRANCH  12  15
ENDBRANCH   1  12
TORSDOF 4
ENDMDL
MODEL 6
REMARK VINA RESULT:      -5.8      6.624      8.112
REMARK  Name = 6919078
REMARK  4 active torsions:
REMARK  status: ('A' for Active; 'I' for Inactive)
REMARK    1  A    between atoms: C_1  and  C_7
REMARK    2  A    between atoms: C_1  and  C_12
REMARK    3  A    between atoms: C_7  and  N_8
REMARK    4  A    between atoms: C_12  and  C_15
REMARK                            x       y       z     vdW  Elec       q    Type
REMARK                         _______ _______ _______ _____ _____    ______ ____
ROOT
ATOM      1  C   UNL     1      37.033 -24.532 -14.153  0.00  0.00    -0.009 C 
ATOM      2  C   UNL     1      37.300 -23.307 -15.058  0.00  0.00    -0.002 C 
ATOM      3  C   UNL     1      35.653 -24.392 -13.471  0.00  0.00    -0.002 C 
ATOM      4  C   UNL     1      36.162 -23.015 -16.036  0.00  0.00    -0.000 C 
ATOM      5  C   UNL     1      34.518 -24.098 -14.453  0.00  0.00    -0.000 C 
ATOM      6  C   UNL     1      34.823 -22.881 -15.319  0.00  0.00    -0.000 C 
ENDROOT
BRANCH   1   7
ATOM      7  C   UNL     1      37.102 -25.836 -14.973  0.00  0.00    -0.085 C 
BRANCH   7   8
ATOM      8  N   UNL     1      37.999 -26.772 -14.274  0.00  0.00    +0.380 N 
ATOM      9  H   UNL     1      38.180 -26.428 -13.331  0.00  0.00    -0.089 HD
ATOM     10  H   UNL     1      38.879 -26.844 -14.784  0.00  0.00    -0.089 HD
ATOM     11  H   UNL     1      37.559 -27.690 -14.222  0.00  0.00    -0.089 HD
ENDBRANCH   7   8
ENDBRANCH   1   7
BRANCH   1  12
ATOM     12  C   UNL     1      38.124 -24.599 -13.068  0.00  0.00    +0.112 C 
BRANCH  12  15
ATOM     13  O   UNL     1      38.159 -22.502 -11.939  0.00  0.00    -0.246 OA
ATOM     14  O   UNL     1      37.356 -24.359 -10.881  0.00  0.00    -0.246 OA
ATOM     15  C   UNL     1      37.859 -23.724 -11.852  0.00  0.00    +0.365 C 
ENDBRANCH  12  15
ENDBRANCH   1  12
TORSDOF 4
ENDMDL
MODEL 7
REMARK VINA RESULT:      -5.8      8.528      9.653
REMARK  Name = 6919078
REMARK  4 active torsions:
REMARK  status: ('A' for Active; 'I' for Inactive)
REMARK    1  A    between atoms: C_1  and  C_7
REMARK    2  A    between atoms: C_1  and  C_12
REMARK    3  A    between atoms: C_7  and  N_8
REMARK    4  A    between atoms: C_12  and  C_15
REMARK                            x       y       z     vdW  Elec       q    Type
REMARK                         _______ _______ _______ _____ _____    ______ ____
ROOT
ATOM      1  C   UNL     1      34.968 -18.330 -22.106  0.00  0.00    -0.009 C 
ATOM      2  C   UNL     1      34.331 -17.503 -20.966  0.00  0.00    -0.002 C 
ATOM      3  C   UNL     1      34.687 -17.655 -23.467  0.00  0.00    -0.002 C 
ATOM      4  C   UNL     1      34.713 -16.023 -21.004  0.00  0.00    -0.000 C 
ATOM      5  C   UNL     1      35.069 -16.174 -23.500  0.00  0.00    -0.000 C 
ATOM      6  C   UNL     1      34.415 -15.399 -22.363  0.00  0.00    -0.000 C 
ENDROOT
BRANCH   1   7
ATOM      7  C   UNL     1      36.486 -18.484 -21.880  0.00  0.00    -0.085 C 
BRANCH   7   8
ATOM      8  N   UNL     1      36.693 -19.117 -20.566  0.00  0.00    +0.380 N 
ATOM      9  H   UNL     1      36.023 -19.876 -20.445  0.00  0.00    -0.089 HD
ATOM     10  H   UNL     1      36.559 -18.424 -19.830  0.00  0.00    -0.089 HD
ATOM     11  H   UNL     1      37.641 -19.489 -20.514  0.00  0.00    -0.089 HD
ENDBRANCH   7   8
ENDBRANCH   1   7
BRANCH   1  12
ATOM     12  C   UNL     1      34.347 -19.740 -22.108  0.00  0.00    +0.112 C 
BRANCH  12  15
ATOM     13  O   UNL     1      32.349 -19.940 -20.827  0.00  0.00    -0.246 OA
ATOM     14  O   UNL     1      34.357 -20.537 -19.919  0.00  0.00    -0.246 OA
ATOM     15  C   UNL     1      33.600 -20.103 -20.834  0.00  0.00    +0.365 C 
ENDBRANCH  12  15
ENDBRANCH   1  12
TORSDOF 4
ENDMDL
MODEL 8
REMARK VINA RESULT:      -5.6      8.271      9.609
REMARK  Name = 6919078
REMARK  4 active torsions:
REMARK  status: ('A' for Active; 'I' for Inactive)
REMARK    1  A    between atoms: C_1  and  C_7
REMARK    2  A    between atoms: C_1  and  C_12
REMARK    3  A    between atoms: C_7  and  N_8
REMARK    4  A    between atoms: C_12  and  C_15
REMARK                            x       y       z     vdW  Elec       q    Type
REMARK                         _______ _______ _______ _____ _____    ______ ____
ROOT
ATOM      1  C   UNL     1      34.693 -19.259 -21.497  0.00  0.00    -0.009 C 
ATOM      2  C   UNL     1      35.012 -19.354 -23.007  0.00  0.00    -0.002 C 
ATOM      3  C   UNL     1      35.184 -17.904 -20.939  0.00  0.00    -0.002 C 
ATOM      4  C   UNL     1      34.520 -18.148 -23.808  0.00  0.00    -0.000 C 
ATOM      5  C   UNL     1      34.691 -16.701 -21.744  0.00  0.00    -0.000 C 
ATOM      6  C   UNL     1      35.032 -16.836 -23.224  0.00  0.00    -0.000 C 
ENDROOT
BRANCH   1   7
ATOM      7  C   UNL     1      33.180 -19.429 -21.252  0.00  0.00    -0.085 C 
BRANCH   7   8
ATOM      8  N   UNL     1      32.997 -20.421 -20.178  0.00  0.00    +0.380 N 
ATOM      9  H   UNL     1      33.344 -20.037 -19.299  0.00  0.00    -0.089 HD
ATOM     10  H   UNL     1      33.515 -21.269 -20.407  0.00  0.00    -0.089 HD
ATOM     11  H   UNL     1      32.006 -20.642 -20.085  0.00  0.00    -0.089 HD
ENDBRANCH   7   8
ENDBRANCH   1   7
BRANCH   1  12
ATOM     12  C   UNL     1      35.421 -20.398 -20.759  0.00  0.00    +0.112 C 
BRANCH  12  15
ATOM     13  O   UNL     1      37.603 -19.449 -20.878  0.00  0.00    -0.246 OA
ATOM     14  O   UNL     1      36.819 -20.274 -18.898  0.00  0.00    -0.246 OA
ATOM     15  C   UNL     1      36.747 -19.997 -20.130  0.00  0.00    +0.365 C 
ENDBRANCH  12  15
ENDBRANCH   1  12
TORSDOF 4
ENDMDL
MODEL 9
REMARK VINA RESULT:      -5.6     16.517     17.360
REMARK  Name = 6919078
REMARK  4 active torsions:
REMARK  status: ('A' for Active; 'I' for Inactive)
REMARK    1  A    between atoms: C_1  and  C_7
REMARK    2  A    between atoms: C_1  and  C_12
REMARK    3  A    between atoms: C_7  and  N_8
REMARK    4  A    between atoms: C_12  and  C_15
REMARK                            x       y       z     vdW  Elec       q    Type
REMARK                         _______ _______ _______ _____ _____    ______ ____
ROOT
ATOM      1  C   UNL     1      32.414  -7.905 -22.735  0.00  0.00    -0.009 C 
ATOM      2  C   UNL     1      32.318  -9.444 -22.846  0.00  0.00    -0.002 C 
ATOM      3  C   UNL     1      33.897  -7.470 -22.719  0.00  0.00    -0.002 C 
ATOM      4  C   UNL     1      33.137 -10.021 -24.001  0.00  0.00    -0.000 C 
ATOM      5  C   UNL     1      34.713  -8.051 -23.875  0.00  0.00    -0.000 C 
ATOM      6  C   UNL     1      34.592  -9.569 -23.942  0.00  0.00    -0.000 C 
ENDROOT
BRANCH   1   7
ATOM      7  C   UNL     1      31.664  -7.231 -23.901  0.00  0.00    -0.085 C 
BRANCH   7   8
ATOM      8  N   UNL     1      31.598  -5.784 -23.630  0.00  0.00    +0.380 N 
ATOM      9  H   UNL     1      30.730  -5.407 -24.011  0.00  0.00    -0.089 HD
ATOM     10  H   UNL     1      32.392  -5.319 -24.070  0.00  0.00    -0.089 HD
ATOM     11  H   UNL     1      31.624  -5.625 -22.623  0.00  0.00    -0.089 HD
ENDBRANCH   7   8
ENDBRANCH   1   7
BRANCH   1  12
ATOM     12  C   UNL     1      31.746  -7.456 -21.422  0.00  0.00    +0.112 C 
BRANCH  12  15
ATOM     13  O   UNL     1      32.541  -9.039 -19.831  0.00  0.00    -0.246 OA
ATOM     14  O   UNL     1      33.051  -6.826 -19.597  0.00  0.00    -0.246 OA
ATOM     15  C   UNL     1      32.517  -7.823 -20.163  0.00  0.00    +0.365 C 
ENDBRANCH  12  15
ENDBRANCH   1  12
TORSDOF 4
ENDMDL
