MODEL 1
REMARK VINA RESULT:      -9.7      0.000      0.000
REMARK  Name = 92337
REMARK  4 active torsions:
REMARK  status: ('A' for Active; 'I' for Inactive)
REMARK    1  A    between atoms: C_2  and  C_14
REMARK    2  A    between atoms: C_3  and  C_8
REMARK    3  A    between atoms: C_14  and  C_17
REMARK    4  A    between atoms: C_17  and  O_18
REMARK                            x       y       z     vdW  Elec       q    Type
REMARK                         _______ _______ _______ _____ _____    ______ ____
ROOT
ATOM      1  F   UNL     1      34.923 -19.744 -23.761  0.00  0.00    -0.204 F 
ATOM      2  C   UNL     1      34.369 -16.161 -23.514  0.00  0.00    -0.010 C 
ATOM      3  C   UNL     1      34.725 -18.362 -21.836  0.00  0.00    +0.027 C 
ATOM      4  C   UNL     1      34.562 -17.430 -24.059  0.00  0.00    +0.026 C 
ATOM      5  C   UNL     1      34.355 -15.992 -22.129  0.00  0.00    -0.004 C 
ATOM      6  C   UNL     1      34.740 -18.531 -23.220  0.00  0.00    +0.140 C 
ATOM      7  C   UNL     1      34.533 -17.092 -21.290  0.00  0.00    +0.002 C 
ENDROOT
BRANCH   3   8
ATOM      8  C   UNL     1      34.909 -19.500 -20.962  0.00  0.00    +0.002 C 
ATOM      9  C   UNL     1      36.194 -19.885 -20.579  0.00  0.00    +0.000 C 
ATOM     10  C   UNL     1      33.801 -20.213 -20.504  0.00  0.00    +0.000 C 
ATOM     11  C   UNL     1      36.371 -20.984 -19.738  0.00  0.00    +0.000 C 
ATOM     12  C   UNL     1      33.979 -21.311 -19.663  0.00  0.00    +0.000 C 
ATOM     13  C   UNL     1      35.262 -21.697 -19.280  0.00  0.00    +0.000 C 
ENDBRANCH   3   8
BRANCH   2  14
ATOM     14  C   UNL     1      34.180 -14.985 -24.410  0.00  0.00    +0.121 C 
ATOM     15  C   UNL     1      33.415 -15.305 -25.710  0.00  0.00    +0.016 C 
BRANCH  14  17
ATOM     16  O   UNL     1      32.305 -13.836 -23.346  0.00  0.00    -0.250 OA
ATOM     17  C   UNL     1      33.472 -13.816 -23.714  0.00  0.00    +0.317 C 
BRANCH  17  18
ATOM     18  O   UNL     1      34.273 -12.730 -23.549  0.00  0.00    -0.480 OA
ATOM     19  H   UNL     1      34.082 -12.103 -22.879  0.00  0.00    +0.295 HD
ENDBRANCH  17  18
ENDBRANCH  14  17
ENDBRANCH   2  14
TORSDOF 4
ENDMDL
MODEL 2
REMARK VINA RESULT:      -9.4      1.211      1.659
REMARK  Name = 92337
REMARK  4 active torsions:
REMARK  status: ('A' for Active; 'I' for Inactive)
REMARK    1  A    between atoms: C_2  and  C_14
REMARK    2  A    between atoms: C_3  and  C_8
REMARK    3  A    between atoms: C_14  and  C_17
REMARK    4  A    between atoms: C_17  and  O_18
REMARK                            x       y       z     vdW  Elec       q    Type
REMARK                         _______ _______ _______ _____ _____    ______ ____
ROOT
ATOM      1  F   UNL     1      34.977 -16.514 -20.226  0.00  0.00    -0.204 F 
ATOM      2  C   UNL     1      34.372 -15.873 -23.751  0.00  0.00    -0.010 C 
ATOM      3  C   UNL     1      34.889 -18.029 -22.058  0.00  0.00    +0.027 C 
ATOM      4  C   UNL     1      34.550 -15.660 -22.385  0.00  0.00    +0.026 C 
ATOM      5  C   UNL     1      34.452 -17.165 -24.272  0.00  0.00    -0.004 C 
ATOM      6  C   UNL     1      34.808 -16.738 -21.538  0.00  0.00    +0.140 C 
ATOM      7  C   UNL     1      34.711 -18.243 -23.425  0.00  0.00    +0.002 C 
ENDROOT
BRANCH   3   8
ATOM      8  C   UNL     1      35.157 -19.150 -21.183  0.00  0.00    +0.002 C 
ATOM      9  C   UNL     1      36.467 -19.440 -20.802  0.00  0.00    +0.000 C 
ATOM     10  C   UNL     1      34.104 -19.942 -20.722  0.00  0.00    +0.000 C 
ATOM     11  C   UNL     1      36.725 -20.523 -19.960  0.00  0.00    +0.000 C 
ATOM     12  C   UNL     1      34.363 -21.023 -19.881  0.00  0.00    +0.000 C 
ATOM     13  C   UNL     1      35.672 -21.314 -19.500  0.00  0.00    +0.000 C 
ENDBRANCH   3   8
BRANCH   2  14
ATOM     14  C   UNL     1      34.095 -14.721 -24.657  0.00  0.00    +0.121 C 
ATOM     15  C   UNL     1      33.235 -15.083 -25.885  0.00  0.00    +0.016 C 
BRANCH  14  17
ATOM     16  O   UNL     1      32.281 -13.562 -23.502  0.00  0.00    -0.250 OA
ATOM     17  C   UNL     1      33.426 -13.546 -23.934  0.00  0.00    +0.317 C 
BRANCH  17  18
ATOM     18  O   UNL     1      34.234 -12.458 -23.824  0.00  0.00    -0.480 OA
ATOM     19  H   UNL     1      34.033 -11.675 -24.298  0.00  0.00    +0.295 HD
ENDBRANCH  17  18
ENDBRANCH  14  17
ENDBRANCH   2  14
TORSDOF 4
ENDMDL
MODEL 3
REMARK VINA RESULT:      -9.4      3.776      6.933
REMARK  Name = 92337
REMARK  4 active torsions:
REMARK  status: ('A' for Active; 'I' for Inactive)
REMARK    1  A    between atoms: C_2  and  C_14
REMARK    2  A    between atoms: C_3  and  C_8
REMARK    3  A    between atoms: C_14  and  C_17
REMARK    4  A    between atoms: C_17  and  O_18
REMARK                            x       y       z     vdW  Elec       q    Type
REMARK                         _______ _______ _______ _____ _____    ______ ____
ROOT
ATOM      1  F   UNL     1      37.220 -18.630 -21.483  0.00  0.00    -0.204 F 
ATOM      2  C   UNL     1      35.047 -21.057 -19.873  0.00  0.00    -0.010 C 
ATOM      3  C   UNL     1      34.845 -18.756 -21.437  0.00  0.00    +0.027 C 
ATOM      4  C   UNL     1      36.200 -20.400 -20.300  0.00  0.00    +0.026 C 
ATOM      5  C   UNL     1      33.792 -20.564 -20.230  0.00  0.00    -0.004 C 
ATOM      6  C   UNL     1      36.100 -19.249 -21.082  0.00  0.00    +0.140 C 
ATOM      7  C   UNL     1      33.690 -19.413 -21.011  0.00  0.00    +0.002 C 
ENDROOT
BRANCH   3   8
ATOM      8  C   UNL     1      34.736 -17.562 -22.248  0.00  0.00    +0.002 C 
ATOM      9  C   UNL     1      34.542 -16.321 -21.642  0.00  0.00    +0.000 C 
ATOM     10  C   UNL     1      34.824 -17.654 -23.638  0.00  0.00    +0.000 C 
ATOM     11  C   UNL     1      34.435 -15.171 -22.425  0.00  0.00    +0.000 C 
ATOM     12  C   UNL     1      34.717 -16.504 -24.420  0.00  0.00    +0.000 C 
ATOM     13  C   UNL     1      34.523 -15.263 -23.814  0.00  0.00    +0.000 C 
ENDBRANCH   3   8
BRANCH   2  14
ATOM     14  C   UNL     1      35.154 -22.288 -19.038  0.00  0.00    +0.121 C 
ATOM     15  C   UNL     1      35.712 -22.037 -17.622  0.00  0.00    +0.016 C 
BRANCH  14  17
ATOM     16  O   UNL     1      32.846 -22.597 -18.298  0.00  0.00    -0.250 OA
ATOM     17  C   UNL     1      33.819 -23.030 -18.902  0.00  0.00    +0.317 C 
BRANCH  17  18
ATOM     18  O   UNL     1      33.819 -24.243 -19.516  0.00  0.00    -0.480 OA
ATOM     19  H   UNL     1      33.760 -24.296 -20.450  0.00  0.00    +0.295 HD
ENDBRANCH  17  18
ENDBRANCH  14  17
ENDBRANCH   2  14
TORSDOF 4
ENDMDL
MODEL 4
REMARK VINA RESULT:      -9.0      4.169      7.357
REMARK  Name = 92337
REMARK  4 active torsions:
REMARK  status: ('A' for Active; 'I' for Inactive)
REMARK    1  A    between atoms: C_2  and  C_14
REMARK    2  A    between atoms: C_3  and  C_8
REMARK    3  A    between atoms: C_14  and  C_17
REMARK    4  A    between atoms: C_17  and  O_18
REMARK                            x       y       z     vdW  Elec       q    Type
REMARK                         _______ _______ _______ _____ _____    ______ ____
ROOT
ATOM      1  F   UNL     1      36.726 -20.508 -20.296  0.00  0.00    -0.204 F 
ATOM      2  C   UNL     1      33.855 -22.083 -18.722  0.00  0.00    -0.010 C 
ATOM      3  C   UNL     1      34.405 -20.081 -20.585  0.00  0.00    +0.027 C 
ATOM      4  C   UNL     1      35.175 -21.784 -19.055  0.00  0.00    +0.026 C 
ATOM      5  C   UNL     1      32.808 -21.382 -19.321  0.00  0.00    -0.004 C 
ATOM      6  C   UNL     1      35.451 -20.783 -19.987  0.00  0.00    +0.140 C 
ATOM      7  C   UNL     1      33.083 -20.380 -20.252  0.00  0.00    +0.002 C 
ENDROOT
BRANCH   3   8
ATOM      8  C   UNL     1      34.685 -19.042 -21.552  0.00  0.00    +0.002 C 
ATOM      9  C   UNL     1      34.770 -17.711 -21.142  0.00  0.00    +0.000 C 
ATOM     10  C   UNL     1      34.870 -19.371 -22.896  0.00  0.00    +0.000 C 
ATOM     11  C   UNL     1      35.038 -16.710 -22.076  0.00  0.00    +0.000 C 
ATOM     12  C   UNL     1      35.139 -18.370 -23.828  0.00  0.00    +0.000 C 
ATOM     13  C   UNL     1      35.223 -17.040 -23.419  0.00  0.00    +0.000 C 
ENDBRANCH   3   8
BRANCH   2  14
ATOM     14  C   UNL     1      33.560 -23.154 -17.727  0.00  0.00    +0.121 C 
ATOM     15  C   UNL     1      34.712 -23.422 -16.737  0.00  0.00    +0.016 C 
BRANCH  14  17
ATOM     16  O   UNL     1      31.218 -22.539 -17.407  0.00  0.00    -0.250 OA
ATOM     17  C   UNL     1      32.288 -22.878 -16.917  0.00  0.00    +0.317 C 
BRANCH  17  18
ATOM     18  O   UNL     1      32.462 -23.037 -15.579  0.00  0.00    -0.480 OA
ATOM     19  H   UNL     1      32.947 -22.400 -15.090  0.00  0.00    +0.295 HD
ENDBRANCH  17  18
ENDBRANCH  14  17
ENDBRANCH   2  14
TORSDOF 4
ENDMDL
MODEL 5
REMARK VINA RESULT:      -9.0      1.608      2.371
REMARK  Name = 92337
REMARK  4 active torsions:
REMARK  status: ('A' for Active; 'I' for Inactive)
REMARK    1  A    between atoms: C_2  and  C_14
REMARK    2  A    between atoms: C_3  and  C_8
REMARK    3  A    between atoms: C_14  and  C_17
REMARK    4  A    between atoms: C_17  and  O_18
REMARK                            x       y       z     vdW  Elec       q    Type
REMARK                         _______ _______ _______ _____ _____    ______ ____
ROOT
ATOM      1  F   UNL     1      35.322 -18.501 -24.435  0.00  0.00    -0.204 F 
ATOM      2  C   UNL     1      33.611 -15.318 -24.054  0.00  0.00    -0.010 C 
ATOM      3  C   UNL     1      34.531 -17.421 -22.469  0.00  0.00    +0.027 C 
ATOM      4  C   UNL     1      34.250 -16.408 -24.643  0.00  0.00    +0.026 C 
ATOM      5  C   UNL     1      33.432 -15.278 -22.671  0.00  0.00    -0.004 C 
ATOM      6  C   UNL     1      34.710 -17.460 -23.851  0.00  0.00    +0.140 C 
ATOM      7  C   UNL     1      33.892 -16.330 -21.878  0.00  0.00    +0.002 C 
ENDROOT
BRANCH   3   8
ATOM      8  C   UNL     1      35.007 -18.509 -21.643  0.00  0.00    +0.002 C 
ATOM      9  C   UNL     1      34.104 -19.436 -21.121  0.00  0.00    +0.000 C 
ATOM     10  C   UNL     1      36.369 -18.631 -21.366  0.00  0.00    +0.000 C 
ATOM     11  C   UNL     1      34.563 -20.484 -20.323  0.00  0.00    +0.000 C 
ATOM     12  C   UNL     1      36.827 -19.679 -20.569  0.00  0.00    +0.000 C 
ATOM     13  C   UNL     1      35.925 -20.605 -20.047  0.00  0.00    +0.000 C 
ENDBRANCH   3   8
BRANCH   2  14
ATOM     14  C   UNL     1      33.120 -14.193 -24.901  0.00  0.00    +0.121 C 
ATOM     15  C   UNL     1      33.896 -12.875 -24.704  0.00  0.00    +0.016 C 
BRANCH  14  17
ATOM     16  O   UNL     1      33.804 -13.954 -27.234  0.00  0.00    -0.250 OA
ATOM     17  C   UNL     1      33.123 -14.531 -26.397  0.00  0.00    +0.317 C 
BRANCH  17  18
ATOM     18  O   UNL     1      32.274 -15.544 -26.716  0.00  0.00    -0.480 OA
ATOM     19  H   UNL     1      32.559 -16.234 -27.282  0.00  0.00    +0.295 HD
ENDBRANCH  17  18
ENDBRANCH  14  17
ENDBRANCH   2  14
TORSDOF 4
ENDMDL
MODEL 6
REMARK VINA RESULT:      -9.0      4.134      7.345
REMARK  Name = 92337
REMARK  4 active torsions:
REMARK  status: ('A' for Active; 'I' for Inactive)
REMARK    1  A    between atoms: C_2  and  C_14
REMARK    2  A    between atoms: C_3  and  C_8
REMARK    3  A    between atoms: C_14  and  C_17
REMARK    4  A    between atoms: C_17  and  O_18
REMARK                            x       y       z     vdW  Elec       q    Type
REMARK                         _______ _______ _______ _____ _____    ______ ____
ROOT
ATOM      1  F   UNL     1      32.228 -19.871 -20.909  0.00  0.00    -0.204 F 
ATOM      2  C   UNL     1      34.301 -21.986 -18.803  0.00  0.00    -0.010 C 
ATOM      3  C   UNL     1      34.597 -19.994 -20.734  0.00  0.00    +0.027 C 
ATOM      4  C   UNL     1      33.174 -21.410 -19.390  0.00  0.00    +0.026 C 
ATOM      5  C   UNL     1      35.576 -21.566 -19.182  0.00  0.00    -0.004 C 
ATOM      6  C   UNL     1      33.322 -20.414 -20.355  0.00  0.00    +0.140 C 
ATOM      7  C   UNL     1      35.724 -20.570 -20.148  0.00  0.00    +0.002 C 
ENDROOT
BRANCH   3   8
ATOM      8  C   UNL     1      34.755 -18.962 -21.736  0.00  0.00    +0.002 C 
ATOM      9  C   UNL     1      34.785 -19.300 -23.088  0.00  0.00    +0.000 C 
ATOM     10  C   UNL     1      34.878 -17.627 -21.347  0.00  0.00    +0.000 C 
ATOM     11  C   UNL     1      34.940 -18.304 -24.053  0.00  0.00    +0.000 C 
ATOM     12  C   UNL     1      35.032 -16.632 -22.312  0.00  0.00    +0.000 C 
ATOM     13  C   UNL     1      35.063 -16.970 -23.664  0.00  0.00    +0.000 C 
ENDBRANCH   3   8
BRANCH   2  14
ATOM     14  C   UNL     1      34.143 -23.050 -17.770  0.00  0.00    +0.121 C 
ATOM     15  C   UNL     1      35.215 -23.010 -16.662  0.00  0.00    +0.016 C 
BRANCH  14  17
ATOM     16  O   UNL     1      31.707 -22.879 -17.704  0.00  0.00    -0.250 OA
ATOM     17  C   UNL     1      32.763 -23.029 -17.103  0.00  0.00    +0.317 C 
BRANCH  17  18
ATOM     18  O   UNL     1      32.821 -23.184 -15.753  0.00  0.00    -0.480 OA
ATOM     19  H   UNL     1      33.204 -22.515 -15.220  0.00  0.00    +0.295 HD
ENDBRANCH  17  18
ENDBRANCH  14  17
ENDBRANCH   2  14
TORSDOF 4
ENDMDL
MODEL 7
REMARK VINA RESULT:      -8.9      1.953      2.847
REMARK  Name = 92337
REMARK  4 active torsions:
REMARK  status: ('A' for Active; 'I' for Inactive)
REMARK    1  A    between atoms: C_2  and  C_14
REMARK    2  A    between atoms: C_3  and  C_8
REMARK    3  A    between atoms: C_14  and  C_17
REMARK    4  A    between atoms: C_17  and  O_18
REMARK                            x       y       z     vdW  Elec       q    Type
REMARK                         _______ _______ _______ _____ _____    ______ ____
ROOT
ATOM      1  F   UNL     1      33.899 -16.244 -20.564  0.00  0.00    -0.204 F 
ATOM      2  C   UNL     1      33.654 -15.363 -24.081  0.00  0.00    -0.010 C 
ATOM      3  C   UNL     1      34.604 -17.448 -22.490  0.00  0.00    +0.027 C 
ATOM      4  C   UNL     1      33.541 -15.289 -22.693  0.00  0.00    +0.026 C 
ATOM      5  C   UNL     1      34.242 -16.480 -24.674  0.00  0.00    -0.004 C 
ATOM      6  C   UNL     1      34.015 -16.332 -21.897  0.00  0.00    +0.140 C 
ATOM      7  C   UNL     1      34.717 -17.523 -23.879  0.00  0.00    +0.002 C 
ENDROOT
BRANCH   3   8
ATOM      8  C   UNL     1      35.098 -18.532 -21.669  0.00  0.00    +0.002 C 
ATOM      9  C   UNL     1      34.211 -19.478 -21.154  0.00  0.00    +0.000 C 
ATOM     10  C   UNL     1      36.462 -18.632 -21.392  0.00  0.00    +0.000 C 
ATOM     11  C   UNL     1      34.688 -20.522 -20.360  0.00  0.00    +0.000 C 
ATOM     12  C   UNL     1      36.937 -19.676 -20.599  0.00  0.00    +0.000 C 
ATOM     13  C   UNL     1      36.051 -20.620 -20.084  0.00  0.00    +0.000 C 
ENDBRANCH   3   8
BRANCH   2  14
ATOM     14  C   UNL     1      33.146 -14.248 -24.932  0.00  0.00    +0.121 C 
ATOM     15  C   UNL     1      33.911 -12.922 -24.748  0.00  0.00    +0.016 C 
BRANCH  14  17
ATOM     16  O   UNL     1      33.829 -14.032 -27.267  0.00  0.00    -0.250 OA
ATOM     17  C   UNL     1      33.142 -14.596 -26.425  0.00  0.00    +0.317 C 
BRANCH  17  18
ATOM     18  O   UNL     1      32.281 -15.600 -26.736  0.00  0.00    -0.480 OA
ATOM     19  H   UNL     1      31.356 -15.464 -26.667  0.00  0.00    +0.295 HD
ENDBRANCH  17  18
ENDBRANCH  14  17
ENDBRANCH   2  14
TORSDOF 4
ENDMDL
MODEL 8
REMARK VINA RESULT:      -8.9      1.338      1.941
REMARK  Name = 92337
REMARK  4 active torsions:
REMARK  status: ('A' for Active; 'I' for Inactive)
REMARK    1  A    between atoms: C_2  and  C_14
REMARK    2  A    between atoms: C_3  and  C_8
REMARK    3  A    between atoms: C_14  and  C_17
REMARK    4  A    between atoms: C_17  and  O_18
REMARK                            x       y       z     vdW  Elec       q    Type
REMARK                         _______ _______ _______ _____ _____    ______ ____
ROOT
ATOM      1  F   UNL     1      35.311 -17.557 -23.907  0.00  0.00    -0.204 F 
ATOM      2  C   UNL     1      33.167 -14.813 -22.868  0.00  0.00    -0.010 C 
ATOM      3  C   UNL     1      34.250 -17.158 -21.815  0.00  0.00    +0.027 C 
ATOM      4  C   UNL     1      33.985 -15.619 -23.658  0.00  0.00    +0.026 C 
ATOM      5  C   UNL     1      32.891 -15.178 -21.550  0.00  0.00    -0.004 C 
ATOM      6  C   UNL     1      34.527 -16.792 -23.132  0.00  0.00    +0.140 C 
ATOM      7  C   UNL     1      33.432 -16.351 -21.024  0.00  0.00    +0.002 C 
ENDROOT
BRANCH   3   8
ATOM      8  C   UNL     1      34.809 -18.374 -21.265  0.00  0.00    +0.002 C 
ATOM      9  C   UNL     1      36.192 -18.510 -21.136  0.00  0.00    +0.000 C 
ATOM     10  C   UNL     1      33.966 -19.411 -20.866  0.00  0.00    +0.000 C 
ATOM     11  C   UNL     1      36.730 -19.684 -20.607  0.00  0.00    +0.000 C 
ATOM     12  C   UNL     1      34.505 -20.583 -20.337  0.00  0.00    +0.000 C 
ATOM     13  C   UNL     1      35.886 -20.720 -20.207  0.00  0.00    +0.000 C 
ENDBRANCH   3   8
BRANCH   2  14
ATOM     14  C   UNL     1      32.589 -13.558 -23.430  0.00  0.00    +0.121 C 
ATOM     15  C   UNL     1      32.199 -12.516 -22.362  0.00  0.00    +0.016 C 
BRANCH  14  17
ATOM     16  O   UNL     1      33.457 -13.050 -25.655  0.00  0.00    -0.250 OA
ATOM     17  C   UNL     1      33.516 -12.880 -24.445  0.00  0.00    +0.317 C 
BRANCH  17  18
ATOM     18  O   UNL     1      34.436 -12.064 -23.864  0.00  0.00    -0.480 OA
ATOM     19  H   UNL     1      35.214 -11.828 -24.330  0.00  0.00    +0.295 HD
ENDBRANCH  17  18
ENDBRANCH  14  17
ENDBRANCH   2  14
TORSDOF 4
ENDMDL
MODEL 9
REMARK VINA RESULT:      -8.7      2.393      3.981
REMARK  Name = 92337
REMARK  4 active torsions:
REMARK  status: ('A' for Active; 'I' for Inactive)
REMARK    1  A    between atoms: C_2  and  C_14
REMARK    2  A    between atoms: C_3  and  C_8
REMARK    3  A    between atoms: C_14  and  C_17
REMARK    4  A    between atoms: C_17  and  O_18
REMARK                            x       y       z     vdW  Elec       q    Type
REMARK                         _______ _______ _______ _____ _____    ______ ____
ROOT
ATOM      1  F   UNL     1      32.669 -20.838 -19.888  0.00  0.00    -0.204 F 
ATOM      2  C   UNL     1      35.374 -19.304 -21.768  0.00  0.00    -0.010 C 
ATOM      3  C   UNL     1      35.023 -21.009 -19.589  0.00  0.00    +0.027 C 
ATOM      4  C   UNL     1      34.089 -19.657 -21.359  0.00  0.00    +0.026 C 
ATOM      5  C   UNL     1      36.485 -19.805 -21.089  0.00  0.00    -0.004 C 
ATOM      6  C   UNL     1      33.913 -20.509 -20.269  0.00  0.00    +0.140 C 
ATOM      7  C   UNL     1      36.309 -20.657 -19.999  0.00  0.00    +0.002 C 
ENDROOT
BRANCH   3   8
ATOM      8  C   UNL     1      34.845 -21.894 -18.458  0.00  0.00    +0.002 C 
ATOM      9  C   UNL     1      33.648 -22.591 -18.298  0.00  0.00    +0.000 C 
ATOM     10  C   UNL     1      35.872 -22.049 -17.526  0.00  0.00    +0.000 C 
ATOM     11  C   UNL     1      33.476 -23.443 -17.206  0.00  0.00    +0.000 C 
ATOM     12  C   UNL     1      35.701 -22.900 -16.435  0.00  0.00    +0.000 C 
ATOM     13  C   UNL     1      34.504 -23.597 -16.275  0.00  0.00    +0.000 C 
ENDBRANCH   3   8
BRANCH   2  14
ATOM     14  C   UNL     1      35.563 -18.393 -22.934  0.00  0.00    +0.121 C 
ATOM     15  C   UNL     1      34.646 -18.711 -24.132  0.00  0.00    +0.016 C 
BRANCH  14  17
ATOM     16  O   UNL     1      35.024 -16.516 -21.467  0.00  0.00    -0.250 OA
ATOM     17  C   UNL     1      35.378 -16.916 -22.569  0.00  0.00    +0.317 C 
BRANCH  17  18
ATOM     18  O   UNL     1      35.636 -16.074 -23.604  0.00  0.00    -0.480 OA
ATOM     19  H   UNL     1      35.973 -15.215 -23.438  0.00  0.00    +0.295 HD
ENDBRANCH  17  18
ENDBRANCH  14  17
ENDBRANCH   2  14
TORSDOF 4
ENDMDL
