MODEL 1
REMARK VINA RESULT:      -5.6      0.000      0.000
REMARK  Name = 14052
REMARK  11 active torsions:
REMARK  status: ('A' for Active; 'I' for Inactive)
REMARK    1  A    between atoms: C_1  and  N_2
REMARK    2  A    between atoms: C_1  and  C_11
REMARK    3  A    between atoms: N_2  and  CA_5
REMARK    4  A    between atoms: CA_5  and  C_6
REMARK    5  A    between atoms: CA_5  and  C_8
REMARK    6  A    between atoms: C_8  and  O_9
REMARK    7  A    between atoms: C_11  and  N_12
REMARK    8  A    between atoms: N_12  and  CA_15
REMARK    9  A    between atoms: CA_15  and  C_16
REMARK   10  A    between atoms: CA_15  and  C_18
REMARK   11  A    between atoms: C_18  and  O_19
REMARK                            x       y       z     vdW  Elec       q    Type
REMARK                         _______ _______ _______ _____ _____    ______ ____
ROOT
ATOM      1  C   UNL     1      34.234 -14.988 -22.894  0.00  0.00    -0.105 C 
ENDROOT
BRANCH   1   2
ATOM      2  N   UNL     1      33.791 -15.171 -24.267  0.00  0.00    +0.385 N 
ATOM      3  H1  UNL     1      34.604 -15.329 -24.862  0.00  0.00    -0.084 HD
ATOM      4  H2  UNL     1      33.163 -15.973 -24.304  0.00  0.00    -0.084 HD
BRANCH   2   5
ATOM      5  CA  UNL     1      33.072 -13.988 -24.741  0.00  0.00    -0.032 C 
BRANCH   5   6
ATOM      6  C   UNL     1      33.699 -12.696 -24.183  0.00  0.00    -0.019 C 
ATOM      7  C   UNL     1      33.941 -11.627 -25.243  0.00  0.00    -0.002 C 
ENDBRANCH   5   6
BRANCH   5   8
ATOM      8  C   UNL     1      33.079 -13.993 -26.273  0.00  0.00    +0.116 C 
BRANCH   8   9
ATOM      9  O   UNL     1      33.483 -15.272 -26.750  0.00  0.00    -0.384 OA
ATOM     10  H   UNL     1      34.104 -15.670 -26.120  0.00  0.00    +0.210 HD
ENDBRANCH   8   9
ENDBRANCH   5   8
ENDBRANCH   2   5
ENDBRANCH   1   2
BRANCH   1  11
ATOM     11  C   UNL     1      34.959 -16.237 -22.403  0.00  0.00    -0.105 C 
BRANCH  11  12
ATOM     12  N   UNL     1      35.572 -16.937 -23.526  0.00  0.00    +0.385 N 
ATOM     13  H1  UNL     1      35.210 -16.552 -24.398  0.00  0.00    -0.084 HD
ATOM     14  H2  UNL     1      36.584 -16.813 -23.475  0.00  0.00    -0.084 HD
BRANCH  12  15
ATOM     15  CA  UNL     1      35.275 -18.362 -23.475  0.00  0.00    -0.032 C 
BRANCH  15  16
ATOM     16  C   UNL     1      34.517 -18.725 -22.184  0.00  0.00    -0.019 C 
ATOM     17  C   UNL     1      35.233 -19.758 -21.324  0.00  0.00    -0.002 C 
ENDBRANCH  15  16
BRANCH  15  18
ATOM     18  C   UNL     1      34.466 -18.739 -24.719  0.00  0.00    +0.116 C 
BRANCH  18  19
ATOM     19  O   UNL     1      34.522 -17.682 -25.669  0.00  0.00    -0.384 OA
ATOM     20  H   UNL     1      33.971 -16.943 -25.364  0.00  0.00    +0.210 HD
ENDBRANCH  18  19
ENDBRANCH  15  18
ENDBRANCH  12  15
ENDBRANCH  11  12
ENDBRANCH   1  11
TORSDOF 11
ENDMDL
MODEL 2
REMARK VINA RESULT:      -5.5      0.159      5.242
REMARK  Name = 14052
REMARK  11 active torsions:
REMARK  status: ('A' for Active; 'I' for Inactive)
REMARK    1  A    between atoms: C_1  and  N_2
REMARK    2  A    between atoms: C_1  and  C_11
REMARK    3  A    between atoms: N_2  and  CA_5
REMARK    4  A    between atoms: CA_5  and  C_6
REMARK    5  A    between atoms: CA_5  and  C_8
REMARK    6  A    between atoms: C_8  and  O_9
REMARK    7  A    between atoms: C_11  and  N_12
REMARK    8  A    between atoms: N_12  and  CA_15
REMARK    9  A    between atoms: CA_15  and  C_16
REMARK   10  A    between atoms: CA_15  and  C_18
REMARK   11  A    between atoms: C_18  and  O_19
REMARK                            x       y       z     vdW  Elec       q    Type
REMARK                         _______ _______ _______ _____ _____    ______ ____
ROOT
ATOM      1  C   UNL     1      34.988 -16.155 -22.455  0.00  0.00    -0.105 C 
ENDROOT
BRANCH   1   2
ATOM      2  N   UNL     1      35.479 -16.854 -23.631  0.00  0.00    +0.385 N 
ATOM      3  H1  UNL     1      34.970 -16.526 -24.452  0.00  0.00    -0.084 HD
ATOM      4  H2  UNL     1      36.475 -16.665 -23.733  0.00  0.00    -0.084 HD
BRANCH   2   5
ATOM      5  CA  UNL     1      35.286 -18.298 -23.494  0.00  0.00    -0.032 C 
BRANCH   5   6
ATOM      6  C   UNL     1      34.546 -18.638 -22.186  0.00  0.00    -0.019 C 
ATOM      7  C   UNL     1      35.279 -19.650 -21.314  0.00  0.00    -0.002 C 
ENDBRANCH   5   6
BRANCH   5   8
ATOM      8  C   UNL     1      34.517 -18.808 -24.717  0.00  0.00    +0.116 C 
BRANCH   8   9
ATOM      9  O   UNL     1      34.181 -17.716 -25.565  0.00  0.00    -0.384 OA
ATOM     10  H   UNL     1      34.896 -17.572 -26.206  0.00  0.00    +0.210 HD
ENDBRANCH   8   9
ENDBRANCH   5   8
ENDBRANCH   2   5
ENDBRANCH   1   2
BRANCH   1  11
ATOM     11  C   UNL     1      34.100 -14.985 -22.869  0.00  0.00    -0.105 C 
BRANCH  11  12
ATOM     12  N   UNL     1      33.568 -15.207 -24.208  0.00  0.00    +0.385 N 
ATOM     13  H1  UNL     1      34.318 -15.531 -24.817  0.00  0.00    -0.084 HD
ATOM     14  H2  UNL     1      32.828 -15.908 -24.153  0.00  0.00    -0.084 HD
BRANCH  12  15
ATOM     15  CA  UNL     1      33.006 -13.980 -24.754  0.00  0.00    -0.032 C 
BRANCH  15  16
ATOM     16  C   UNL     1      33.796 -12.747 -24.276  0.00  0.00    -0.019 C 
ATOM     17  C   UNL     1      33.868 -11.629 -25.308  0.00  0.00    -0.002 C 
ENDBRANCH  15  16
BRANCH  15  18
ATOM     18  C   UNL     1      33.004 -14.080 -26.283  0.00  0.00    +0.116 C 
BRANCH  18  19
ATOM     19  O   UNL     1      33.654 -15.278 -26.688  0.00  0.00    -0.384 OA
ATOM     20  H   UNL     1      34.437 -15.059 -27.219  0.00  0.00    +0.210 HD
ENDBRANCH  18  19
ENDBRANCH  15  18
ENDBRANCH  12  15
ENDBRANCH  11  12
ENDBRANCH   1  11
TORSDOF 11
ENDMDL
MODEL 3
REMARK VINA RESULT:      -5.5      1.721      2.107
REMARK  Name = 14052
REMARK  11 active torsions:
REMARK  status: ('A' for Active; 'I' for Inactive)
REMARK    1  A    between atoms: C_1  and  N_2
REMARK    2  A    between atoms: C_1  and  C_11
REMARK    3  A    between atoms: N_2  and  CA_5
REMARK    4  A    between atoms: CA_5  and  C_6
REMARK    5  A    between atoms: CA_5  and  C_8
REMARK    6  A    between atoms: C_8  and  O_9
REMARK    7  A    between atoms: C_11  and  N_12
REMARK    8  A    between atoms: N_12  and  CA_15
REMARK    9  A    between atoms: CA_15  and  C_16
REMARK   10  A    between atoms: CA_15  and  C_18
REMARK   11  A    between atoms: C_18  and  O_19
REMARK                            x       y       z     vdW  Elec       q    Type
REMARK                         _______ _______ _______ _____ _____    ______ ____
ROOT
ATOM      1  C   UNL     1      34.769 -15.595 -21.872  0.00  0.00    -0.105 C 
ENDROOT
BRANCH   1   2
ATOM      2  N   UNL     1      34.902 -15.807 -23.305  0.00  0.00    +0.385 N 
ATOM      3  H1  UNL     1      35.709 -15.285 -23.646  0.00  0.00    -0.084 HD
ATOM      4  H2  UNL     1      35.025 -16.804 -23.478  0.00  0.00    -0.084 HD
BRANCH   2   5
ATOM      5  CA  UNL     1      33.704 -15.351 -24.009  0.00  0.00    -0.032 C 
BRANCH   5   6
ATOM      6  C   UNL     1      33.581 -13.816 -23.963  0.00  0.00    -0.019 C 
ATOM      7  C   UNL     1      32.417 -13.320 -23.114  0.00  0.00    -0.002 C 
ENDBRANCH   5   6
BRANCH   5   8
ATOM      8  C   UNL     1      33.761 -15.861 -25.453  0.00  0.00    +0.116 C 
BRANCH   8   9
ATOM      9  O   UNL     1      34.897 -16.700 -25.623  0.00  0.00    -0.384 OA
ATOM     10  H   UNL     1      35.632 -16.181 -25.985  0.00  0.00    +0.210 HD
ENDBRANCH   8   9
ENDBRANCH   5   8
ENDBRANCH   2   5
ENDBRANCH   1   2
BRANCH   1  11
ATOM     11  C   UNL     1      34.240 -16.858 -21.200  0.00  0.00    -0.105 C 
BRANCH  11  12
ATOM     12  N   UNL     1      35.309 -17.840 -21.063  0.00  0.00    +0.385 N 
ATOM     13  H1  UNL     1      36.100 -17.557 -21.641  0.00  0.00    -0.084 HD
ATOM     14  H2  UNL     1      35.585 -17.888 -20.082  0.00  0.00    -0.084 HD
BRANCH  12  15
ATOM     15  CA  UNL     1      34.860 -19.160 -21.484  0.00  0.00    -0.032 C 
BRANCH  15  16
ATOM     16  C   UNL     1      33.444 -19.459 -20.958  0.00  0.00    -0.019 C 
ATOM     17  C   UNL     1      33.368 -20.701 -20.080  0.00  0.00    -0.002 C 
ENDBRANCH  15  16
BRANCH  15  18
ATOM     18  C   UNL     1      34.910 -19.230 -23.014  0.00  0.00    +0.116 C 
BRANCH  18  19
ATOM     19  O   UNL     1      36.018 -18.478 -23.495  0.00  0.00    -0.384 OA
ATOM     20  H   UNL     1      35.729 -17.578 -23.712  0.00  0.00    +0.210 HD
ENDBRANCH  18  19
ENDBRANCH  15  18
ENDBRANCH  12  15
ENDBRANCH  11  12
ENDBRANCH   1  11
TORSDOF 11
ENDMDL
MODEL 4
REMARK VINA RESULT:      -5.4      1.717      5.420
REMARK  Name = 14052
REMARK  11 active torsions:
REMARK  status: ('A' for Active; 'I' for Inactive)
REMARK    1  A    between atoms: C_1  and  N_2
REMARK    2  A    between atoms: C_1  and  C_11
REMARK    3  A    between atoms: N_2  and  CA_5
REMARK    4  A    between atoms: CA_5  and  C_6
REMARK    5  A    between atoms: CA_5  and  C_8
REMARK    6  A    between atoms: C_8  and  O_9
REMARK    7  A    between atoms: C_11  and  N_12
REMARK    8  A    between atoms: N_12  and  CA_15
REMARK    9  A    between atoms: CA_15  and  C_16
REMARK   10  A    between atoms: CA_15  and  C_18
REMARK   11  A    between atoms: C_18  and  O_19
REMARK                            x       y       z     vdW  Elec       q    Type
REMARK                         _______ _______ _______ _____ _____    ______ ____
ROOT
ATOM      1  C   UNL     1      34.053 -16.862 -21.345  0.00  0.00    -0.105 C 
ENDROOT
BRANCH   1   2
ATOM      2  N   UNL     1      35.129 -17.769 -20.980  0.00  0.00    +0.385 N 
ATOM      3  H1  UNL     1      35.995 -17.455 -21.417  0.00  0.00    -0.084 HD
ATOM      4  H2  UNL     1      35.224 -17.773 -19.965  0.00  0.00    -0.084 HD
BRANCH   2   5
ATOM      5  CA  UNL     1      34.832 -19.130 -21.429  0.00  0.00    -0.032 C 
BRANCH   5   6
ATOM      6  C   UNL     1      33.426 -19.571 -20.978  0.00  0.00    -0.019 C 
ATOM      7  C   UNL     1      33.437 -20.730 -19.989  0.00  0.00    -0.002 C 
ENDBRANCH   5   6
BRANCH   5   8
ATOM      8  C   UNL     1      34.970 -19.183 -22.954  0.00  0.00    +0.116 C 
BRANCH   8   9
ATOM      9  O   UNL     1      36.095 -18.414 -23.364  0.00  0.00    -0.384 OA
ATOM     10  H   UNL     1      35.936 -18.057 -24.252  0.00  0.00    +0.210 HD
ENDBRANCH   8   9
ENDBRANCH   5   8
ENDBRANCH   2   5
ENDBRANCH   1   2
BRANCH   1  11
ATOM     11  C   UNL     1      34.627 -15.564 -21.906  0.00  0.00    -0.105 C 
BRANCH  11  12
ATOM     12  N   UNL     1      34.938 -15.721 -23.321  0.00  0.00    +0.385 N 
ATOM     13  H1  UNL     1      35.593 -14.992 -23.603  0.00  0.00    -0.084 HD
ATOM     14  H2  UNL     1      35.351 -16.643 -23.465  0.00  0.00    -0.084 HD
BRANCH  12  15
ATOM     15  CA  UNL     1      33.733 -15.619 -24.132  0.00  0.00    -0.032 C 
BRANCH  15  16
ATOM     16  C   UNL     1      33.462 -14.160 -24.544  0.00  0.00    -0.019 C 
ATOM     17  C   UNL     1      32.963 -14.011 -25.975  0.00  0.00    -0.002 C 
ENDBRANCH  15  16
BRANCH  15  18
ATOM     18  C   UNL     1      33.891 -16.522 -25.360  0.00  0.00    +0.116 C 
BRANCH  18  19
ATOM     19  O   UNL     1      35.272 -16.733 -25.629  0.00  0.00    -0.384 OA
ATOM     20  H   UNL     1      35.729 -16.971 -24.807  0.00  0.00    +0.210 HD
ENDBRANCH  18  19
ENDBRANCH  15  18
ENDBRANCH  12  15
ENDBRANCH  11  12
ENDBRANCH   1  11
TORSDOF 11
ENDMDL
MODEL 5
REMARK VINA RESULT:      -5.4      2.572      6.373
REMARK  Name = 14052
REMARK  11 active torsions:
REMARK  status: ('A' for Active; 'I' for Inactive)
REMARK    1  A    between atoms: C_1  and  N_2
REMARK    2  A    between atoms: C_1  and  C_11
REMARK    3  A    between atoms: N_2  and  CA_5
REMARK    4  A    between atoms: CA_5  and  C_6
REMARK    5  A    between atoms: CA_5  and  C_8
REMARK    6  A    between atoms: C_8  and  O_9
REMARK    7  A    between atoms: C_11  and  N_12
REMARK    8  A    between atoms: N_12  and  CA_15
REMARK    9  A    between atoms: CA_15  and  C_16
REMARK   10  A    between atoms: CA_15  and  C_18
REMARK   11  A    between atoms: C_18  and  O_19
REMARK                            x       y       z     vdW  Elec       q    Type
REMARK                         _______ _______ _______ _____ _____    ______ ____
ROOT
ATOM      1  C   UNL     1      35.840 -18.471 -21.504  0.00  0.00    -0.105 C 
ENDROOT
BRANCH   1   2
ATOM      2  N   UNL     1      34.761 -19.081 -20.744  0.00  0.00    +0.385 N 
ATOM      3  H1  UNL     1      34.719 -18.653 -19.820  0.00  0.00    -0.084 HD
ATOM      4  H2  UNL     1      33.885 -18.934 -21.244  0.00  0.00    -0.084 HD
BRANCH   2   5
ATOM      5  CA  UNL     1      34.982 -20.520 -20.597  0.00  0.00    -0.032 C 
BRANCH   5   6
ATOM      6  C   UNL     1      36.358 -20.810 -19.967  0.00  0.00    -0.019 C 
ATOM      7  C   UNL     1      36.281 -21.607 -18.670  0.00  0.00    -0.002 C 
ENDBRANCH   5   6
BRANCH   5   8
ATOM      8  C   UNL     1      33.848 -21.105 -19.747  0.00  0.00    +0.116 C 
BRANCH   8   9
ATOM      9  O   UNL     1      32.666 -20.333 -19.925  0.00  0.00    -0.384 OA
ATOM     10  H   UNL     1      32.717 -19.533 -19.379  0.00  0.00    +0.210 HD
ENDBRANCH   8   9
ENDBRANCH   5   8
ENDBRANCH   2   5
ENDBRANCH   1   2
BRANCH   1  11
ATOM     11  C   UNL     1      35.483 -18.432 -22.987  0.00  0.00    -0.105 C 
BRANCH  11  12
ATOM     12  N   UNL     1      35.666 -17.085 -23.514  0.00  0.00    +0.385 N 
ATOM     13  H1  UNL     1      36.367 -16.599 -22.955  0.00  0.00    -0.084 HD
ATOM     14  H2  UNL     1      35.971 -17.153 -24.485  0.00  0.00    -0.084 HD
BRANCH  12  15
ATOM     15  CA  UNL     1      34.418 -16.336 -23.469  0.00  0.00    -0.032 C 
BRANCH  15  16
ATOM     16  C   UNL     1      34.560 -15.070 -22.604  0.00  0.00    -0.019 C 
ATOM     17  C   UNL     1      34.105 -15.261 -21.163  0.00  0.00    -0.002 C 
ENDBRANCH  15  16
BRANCH  15  18
ATOM     18  C   UNL     1      34.005 -15.986 -24.903  0.00  0.00    +0.116 C 
BRANCH  18  19
ATOM     19  O   UNL     1      34.797 -16.723 -25.826  0.00  0.00    -0.384 OA
ATOM     20  H   UNL     1      35.018 -17.588 -25.444  0.00  0.00    +0.210 HD
ENDBRANCH  18  19
ENDBRANCH  15  18
ENDBRANCH  12  15
ENDBRANCH  11  12
ENDBRANCH   1  11
TORSDOF 11
ENDMDL
MODEL 6
REMARK VINA RESULT:      -5.4      2.578      5.941
REMARK  Name = 14052
REMARK  11 active torsions:
REMARK  status: ('A' for Active; 'I' for Inactive)
REMARK    1  A    between atoms: C_1  and  N_2
REMARK    2  A    between atoms: C_1  and  C_11
REMARK    3  A    between atoms: N_2  and  CA_5
REMARK    4  A    between atoms: CA_5  and  C_6
REMARK    5  A    between atoms: CA_5  and  C_8
REMARK    6  A    between atoms: C_8  and  O_9
REMARK    7  A    between atoms: C_11  and  N_12
REMARK    8  A    between atoms: N_12  and  CA_15
REMARK    9  A    between atoms: CA_15  and  C_16
REMARK   10  A    between atoms: CA_15  and  C_18
REMARK   11  A    between atoms: C_18  and  O_19
REMARK                            x       y       z     vdW  Elec       q    Type
REMARK                         _______ _______ _______ _____ _____    ______ ____
ROOT
ATOM      1  C   UNL     1      34.864 -18.802 -23.353  0.00  0.00    -0.105 C 
ENDROOT
BRANCH   1   2
ATOM      2  N   UNL     1      35.805 -18.698 -22.250  0.00  0.00    +0.385 N 
ATOM      3  H1  UNL     1      36.597 -19.316 -22.427  0.00  0.00    -0.084 HD
ATOM      4  H2  UNL     1      36.119 -17.731 -22.177  0.00  0.00    -0.084 HD
BRANCH   2   5
ATOM      5  CA  UNL     1      35.169 -19.083 -20.989  0.00  0.00    -0.032 C 
BRANCH   5   6
ATOM      6  C   UNL     1      33.638 -19.165 -21.141  0.00  0.00    -0.019 C 
ATOM      7  C   UNL     1      33.005 -20.296 -20.340  0.00  0.00    -0.002 C 
ENDBRANCH   5   6
BRANCH   5   8
ATOM      8  C   UNL     1      35.755 -20.424 -20.534  0.00  0.00    +0.116 C 
BRANCH   8   9
ATOM      9  O   UNL     1      36.641 -20.216 -19.440  0.00  0.00    -0.384 OA
ATOM     10  H   UNL     1      37.057 -21.057 -19.196  0.00  0.00    +0.210 HD
ENDBRANCH   8   9
ENDBRANCH   5   8
ENDBRANCH   2   5
ENDBRANCH   1   2
BRANCH   1  11
ATOM     11  C   UNL     1      34.988 -17.587 -24.267  0.00  0.00    -0.105 C 
BRANCH  11  12
ATOM     12  N   UNL     1      35.337 -16.405 -23.489  0.00  0.00    +0.385 N 
ATOM     13  H1  UNL     1      35.943 -16.680 -22.716  0.00  0.00    -0.084 HD
ATOM     14  H2  UNL     1      35.818 -15.743 -24.098  0.00  0.00    -0.084 HD
BRANCH  12  15
ATOM     15  CA  UNL     1      34.144 -15.763 -22.954  0.00  0.00    -0.032 C 
BRANCH  15  16
ATOM     16  C   UNL     1      34.362 -15.312 -21.498  0.00  0.00    -0.019 C 
ATOM     17  C   UNL     1      33.087 -15.298 -20.665  0.00  0.00    -0.002 C 
ENDBRANCH  15  16
BRANCH  15  18
ATOM     18  C   UNL     1      33.780 -14.579 -23.855  0.00  0.00    +0.116 C 
BRANCH  18  19
ATOM     19  O   UNL     1      34.348 -13.384 -23.333  0.00  0.00    -0.384 OA
ATOM     20  H   UNL     1      33.943 -12.616 -23.766  0.00  0.00    +0.210 HD
ENDBRANCH  18  19
ENDBRANCH  15  18
ENDBRANCH  12  15
ENDBRANCH  11  12
ENDBRANCH   1  11
TORSDOF 11
ENDMDL
MODEL 7
REMARK VINA RESULT:      -5.4      2.597      3.748
REMARK  Name = 14052
REMARK  11 active torsions:
REMARK  status: ('A' for Active; 'I' for Inactive)
REMARK    1  A    between atoms: C_1  and  N_2
REMARK    2  A    between atoms: C_1  and  C_11
REMARK    3  A    between atoms: N_2  and  CA_5
REMARK    4  A    between atoms: CA_5  and  C_6
REMARK    5  A    between atoms: CA_5  and  C_8
REMARK    6  A    between atoms: C_8  and  O_9
REMARK    7  A    between atoms: C_11  and  N_12
REMARK    8  A    between atoms: N_12  and  CA_15
REMARK    9  A    between atoms: CA_15  and  C_16
REMARK   10  A    between atoms: CA_15  and  C_18
REMARK   11  A    between atoms: C_18  and  O_19
REMARK                            x       y       z     vdW  Elec       q    Type
REMARK                         _______ _______ _______ _____ _____    ______ ____
ROOT
ATOM      1  C   UNL     1      34.965 -17.630 -24.218  0.00  0.00    -0.105 C 
ENDROOT
BRANCH   1   2
ATOM      2  N   UNL     1      35.305 -16.478 -23.399  0.00  0.00    +0.385 N 
ATOM      3  H1  UNL     1      35.820 -16.793 -22.576  0.00  0.00    -0.084 HD
ATOM      4  H2  UNL     1      35.875 -15.839 -23.951  0.00  0.00    -0.084 HD
BRANCH   2   5
ATOM      5  CA  UNL     1      34.096 -15.775 -22.967  0.00  0.00    -0.032 C 
BRANCH   5   6
ATOM      6  C   UNL     1      34.181 -15.383 -21.479  0.00  0.00    -0.019 C 
ATOM      7  C   UNL     1      32.854 -15.499 -20.740  0.00  0.00    -0.002 C 
ENDBRANCH   5   6
BRANCH   5   8
ATOM      8  C   UNL     1      33.904 -14.541 -23.856  0.00  0.00    +0.116 C 
BRANCH   8   9
ATOM      9  O   UNL     1      34.351 -13.378 -23.169  0.00  0.00    -0.384 OA
ATOM     10  H   UNL     1      33.999 -12.588 -23.608  0.00  0.00    +0.210 HD
ENDBRANCH   8   9
ENDBRANCH   5   8
ENDBRANCH   2   5
ENDBRANCH   1   2
BRANCH   1  11
ATOM     11  C   UNL     1      35.001 -18.903 -23.378  0.00  0.00    -0.105 C 
BRANCH  11  12
ATOM     12  N   UNL     1      35.821 -18.699 -22.191  0.00  0.00    +0.385 N 
ATOM     13  H1  UNL     1      36.687 -19.229 -22.286  0.00  0.00    -0.084 HD
ATOM     14  H2  UNL     1      36.023 -17.702 -22.100  0.00  0.00    -0.084 HD
BRANCH  12  15
ATOM     15  CA  UNL     1      35.121 -19.142 -20.993  0.00  0.00    -0.032 C 
BRANCH  15  16
ATOM     16  C   UNL     1      33.632 -19.403 -21.285  0.00  0.00    -0.019 C 
ATOM     17  C   UNL     1      32.956 -20.305 -20.260  0.00  0.00    -0.002 C 
ENDBRANCH  15  16
BRANCH  15  18
ATOM     18  C   UNL     1      35.812 -20.401 -20.459  0.00  0.00    +0.116 C 
BRANCH  18  19
ATOM     19  O   UNL     1      36.784 -20.041 -19.486  0.00  0.00    -0.384 OA
ATOM     20  H   UNL     1      36.553 -19.181 -19.100  0.00  0.00    +0.210 HD
ENDBRANCH  18  19
ENDBRANCH  15  18
ENDBRANCH  12  15
ENDBRANCH  11  12
ENDBRANCH   1  11
TORSDOF 11
ENDMDL
MODEL 8
REMARK VINA RESULT:      -5.4      2.695      3.808
REMARK  Name = 14052
REMARK  11 active torsions:
REMARK  status: ('A' for Active; 'I' for Inactive)
REMARK    1  A    between atoms: C_1  and  N_2
REMARK    2  A    between atoms: C_1  and  C_11
REMARK    3  A    between atoms: N_2  and  CA_5
REMARK    4  A    between atoms: CA_5  and  C_6
REMARK    5  A    between atoms: CA_5  and  C_8
REMARK    6  A    between atoms: C_8  and  O_9
REMARK    7  A    between atoms: C_11  and  N_12
REMARK    8  A    between atoms: N_12  and  CA_15
REMARK    9  A    between atoms: CA_15  and  C_16
REMARK   10  A    between atoms: CA_15  and  C_18
REMARK   11  A    between atoms: C_18  and  O_19
REMARK                            x       y       z     vdW  Elec       q    Type
REMARK                         _______ _______ _______ _____ _____    ______ ____
ROOT
ATOM      1  C   UNL     1      34.889 -17.887 -24.161  0.00  0.00    -0.105 C 
ENDROOT
BRANCH   1   2
ATOM      2  N   UNL     1      35.578 -16.772 -23.532  0.00  0.00    +0.385 N 
ATOM      3  H1  UNL     1      35.844 -17.036 -22.583  0.00  0.00    -0.084 HD
ATOM      4  H2  UNL     1      36.405 -16.544 -24.082  0.00  0.00    -0.084 HD
BRANCH   2   5
ATOM      5  CA  UNL     1      34.712 -15.594 -23.476  0.00  0.00    -0.032 C 
BRANCH   5   6
ATOM      6  C   UNL     1      33.744 -15.558 -24.675  0.00  0.00    -0.019 C 
ATOM      7  C   UNL     1      33.131 -14.185 -24.925  0.00  0.00    -0.002 C 
ENDBRANCH   5   6
BRANCH   5   8
ATOM      8  C   UNL     1      33.949 -15.608 -22.147  0.00  0.00    +0.116 C 
BRANCH   8   9
ATOM      9  O   UNL     1      34.840 -15.929 -21.084  0.00  0.00    -0.384 OA
ATOM     10  H   UNL     1      34.777 -16.875 -20.883  0.00  0.00    +0.210 HD
ENDBRANCH   8   9
ENDBRANCH   5   8
ENDBRANCH   2   5
ENDBRANCH   1   2
BRANCH   1  11
ATOM     11  C   UNL     1      34.881 -19.095 -23.229  0.00  0.00    -0.105 C 
BRANCH  11  12
ATOM     12  N   UNL     1      35.729 -18.842 -22.071  0.00  0.00    +0.385 N 
ATOM     13  H1  UNL     1      36.624 -19.313 -22.202  0.00  0.00    -0.084 HD
ATOM     14  H2  UNL     1      35.869 -17.835 -21.981  0.00  0.00    -0.084 HD
BRANCH  12  15
ATOM     15  CA  UNL     1      35.105 -19.336 -20.852  0.00  0.00    -0.032 C 
BRANCH  15  16
ATOM     16  C   UNL     1      33.587 -19.515 -21.038  0.00  0.00    -0.019 C 
ATOM     17  C   UNL     1      32.969 -20.527 -20.083  0.00  0.00    -0.002 C 
ENDBRANCH  15  16
BRANCH  15  18
ATOM     18  C   UNL     1      35.776 -20.655 -20.457  0.00  0.00    +0.116 C 
BRANCH  18  19
ATOM     19  O   UNL     1      36.540 -20.471 -19.271  0.00  0.00    -0.384 OA
ATOM     20  H   UNL     1      37.372 -20.966 -19.342  0.00  0.00    +0.210 HD
ENDBRANCH  18  19
ENDBRANCH  15  18
ENDBRANCH  12  15
ENDBRANCH  11  12
ENDBRANCH   1  11
TORSDOF 11
ENDMDL
MODEL 9
REMARK VINA RESULT:      -5.3     12.000     13.588
REMARK  Name = 14052
REMARK  11 active torsions:
REMARK  status: ('A' for Active; 'I' for Inactive)
REMARK    1  A    between atoms: C_1  and  N_2
REMARK    2  A    between atoms: C_1  and  C_11
REMARK    3  A    between atoms: N_2  and  CA_5
REMARK    4  A    between atoms: CA_5  and  C_6
REMARK    5  A    between atoms: CA_5  and  C_8
REMARK    6  A    between atoms: C_8  and  O_9
REMARK    7  A    between atoms: C_11  and  N_12
REMARK    8  A    between atoms: N_12  and  CA_15
REMARK    9  A    between atoms: CA_15  and  C_16
REMARK   10  A    between atoms: CA_15  and  C_18
REMARK   11  A    between atoms: C_18  and  O_19
REMARK                            x       y       z     vdW  Elec       q    Type
REMARK                         _______ _______ _______ _____ _____    ______ ____
ROOT
ATOM      1  C   UNL     1      35.740 -24.875 -15.087  0.00  0.00    -0.105 C 
ENDROOT
BRANCH   1   2
ATOM      2  N   UNL     1      34.579 -24.872 -14.211  0.00  0.00    +0.385 N 
ATOM      3  H1  UNL     1      34.056 -25.737 -14.345  0.00  0.00    -0.084 HD
ATOM      4  H2  UNL     1      34.898 -24.796 -13.246  0.00  0.00    -0.084 HD
BRANCH   2   5
ATOM      5  CA  UNL     1      33.709 -23.734 -14.510  0.00  0.00    -0.032 C 
BRANCH   5   6
ATOM      6  C   UNL     1      33.668 -23.446 -16.023  0.00  0.00    -0.019 C 
ATOM      7  C   UNL     1      32.260 -23.256 -16.572  0.00  0.00    -0.002 C 
ENDBRANCH   5   6
BRANCH   5   8
ATOM      8  C   UNL     1      32.308 -24.033 -13.963  0.00  0.00    +0.116 C 
BRANCH   8   9
ATOM      9  O   UNL     1      32.315 -25.278 -13.275  0.00  0.00    -0.384 OA
ATOM     10  H   UNL     1      31.733 -25.904 -13.733  0.00  0.00    +0.210 HD
ENDBRANCH   8   9
ENDBRANCH   5   8
ENDBRANCH   2   5
ENDBRANCH   1   2
BRANCH   1  11
ATOM     11  C   UNL     1      36.615 -26.091 -14.797  0.00  0.00    -0.105 C 
BRANCH  11  12
ATOM     12  N   UNL     1      37.950 -25.892 -15.348  0.00  0.00    +0.385 N 
ATOM     13  H1  UNL     1      38.347 -26.798 -15.598  0.00  0.00    -0.084 HD
ATOM     14  H2  UNL     1      37.878 -25.296 -16.173  0.00  0.00    -0.084 HD
BRANCH  12  15
ATOM     15  CA  UNL     1      38.821 -25.242 -14.379  0.00  0.00    -0.032 C 
BRANCH  15  16
ATOM     16  C   UNL     1      38.386 -25.563 -12.937  0.00  0.00    -0.019 C 
ATOM     17  C   UNL     1      38.223 -24.330 -12.058  0.00  0.00    -0.002 C 
ENDBRANCH  15  16
BRANCH  15  18
ATOM     18  C   UNL     1      40.263 -25.690 -14.637  0.00  0.00    +0.116 C 
BRANCH  18  19
ATOM     19  O   UNL     1      40.440 -25.972 -16.020  0.00  0.00    -0.384 OA
ATOM     20  H   UNL     1      41.387 -26.046 -16.217  0.00  0.00    +0.210 HD
ENDBRANCH  18  19
ENDBRANCH  15  18
ENDBRANCH  12  15
ENDBRANCH  11  12
ENDBRANCH   1  11
TORSDOF 11
ENDMDL
