MODEL 1
REMARK VINA RESULT:     -10.1      0.000      0.000
REMARK  Name = 11516136
REMARK  2 active torsions:
REMARK  status: ('A' for Active; 'I' for Inactive)
REMARK    1  A    between atoms: C_2  and  N_8
REMARK    2  A    between atoms: C_4  and  C_25
REMARK                            x       y       z     vdW  Elec       q    Type
REMARK                         _______ _______ _______ _____ _____    ______ ____
ROOT
ATOM      1  N   UNL     1      36.218 -18.568 -22.207  0.00  0.00    +0.389 N 
ATOM      2  C   UNL     1      35.433 -20.100 -20.658  0.00  0.00    -0.081 C 
ATOM      3  C   UNL     1      34.272 -19.149 -20.941  0.00  0.00    -0.035 C 
ATOM      4  C   UNL     1      34.820 -18.187 -21.994  0.00  0.00    +0.015 C 
ATOM      5  C   UNL     1      36.656 -19.264 -20.998  0.00  0.00    -0.102 C 
ATOM      6  H   UNL     1      36.790 -17.738 -22.361  0.00  0.00    -0.084 HD
ATOM      7  H   UNL     1      36.313 -19.168 -23.028  0.00  0.00    -0.084 HD
ENDROOT
BRANCH   2   8
ATOM      8  N   UNL     1      35.451 -20.606 -19.296  0.00  0.00    +0.389 N 
ATOM      9  N   UNL     1      35.980 -22.502 -17.225  0.00  0.00    -0.257 N 
ATOM     10  N   UNL     1      35.327 -24.418 -16.008  0.00  0.00    -0.203 NA
ATOM     11  N   UNL     1      37.185 -23.068 -15.275  0.00  0.00    -0.181 NA
ATOM     12  C   UNL     1      34.654 -21.835 -19.193  0.00  0.00    -0.055 C 
ATOM     13  C   UNL     1      36.829 -20.868 -18.861  0.00  0.00    -0.055 C 
ATOM     14  C   UNL     1      34.618 -22.346 -17.751  0.00  0.00    +0.079 C 
ATOM     15  C   UNL     1      36.866 -21.349 -17.408  0.00  0.00    +0.079 C 
ATOM     16  C   UNL     1      36.170 -23.356 -16.134  0.00  0.00    +0.090 C 
ATOM     17  C   UNL     1      35.540 -25.221 -14.945  0.00  0.00    +0.165 C 
ATOM     18  C   UNL     1      37.340 -23.914 -14.235  0.00  0.00    +0.108 C 
ATOM     19  C   UNL     1      36.539 -25.016 -14.017  0.00  0.00    +0.022 C 
ATOM     20  H   UNL     1      35.044 -19.896 -18.687  0.00  0.00    -0.080 HD
ENDBRANCH   2   8
BRANCH   4  25
ATOM     21  F   UNL     1      32.190 -14.649 -24.127  0.00  0.00    -0.202 F 
ATOM     22  F   UNL     1      33.751 -14.572 -25.650  0.00  0.00    -0.202 F 
ATOM     23  O   UNL     1      35.090 -16.500 -20.347  0.00  0.00    -0.277 OA
ATOM     24  N   UNL     1      34.416 -15.827 -22.452  0.00  0.00    -0.276 N 
ATOM     25  C   UNL     1      34.793 -16.769 -21.512  0.00  0.00    +0.206 C 
ATOM     26  C   UNL     1      34.033 -16.085 -23.840  0.00  0.00    +0.160 C 
ATOM     27  C   UNL     1      34.334 -14.406 -22.140  0.00  0.00    +0.099 C 
ATOM     28  C   UNL     1      33.523 -14.747 -24.335  0.00  0.00    +0.284 C 
ATOM     29  C   UNL     1      34.263 -13.724 -23.496  0.00  0.00    +0.090 C 
ENDBRANCH   4  25
TORSDOF 2
ENDMDL
MODEL 2
REMARK VINA RESULT:     -10.0      1.844      2.666
REMARK  Name = 11516136
REMARK  2 active torsions:
REMARK  status: ('A' for Active; 'I' for Inactive)
REMARK    1  A    between atoms: C_2  and  N_8
REMARK    2  A    between atoms: C_4  and  C_25
REMARK                            x       y       z     vdW  Elec       q    Type
REMARK                         _______ _______ _______ _____ _____    ______ ____
ROOT
ATOM      1  N   UNL     1      36.088 -17.255 -22.315  0.00  0.00    +0.389 N 
ATOM      2  C   UNL     1      35.343 -19.442 -22.159  0.00  0.00    -0.081 C 
ATOM      3  C   UNL     1      34.239 -18.667 -22.876  0.00  0.00    -0.035 C 
ATOM      4  C   UNL     1      34.789 -17.246 -22.992  0.00  0.00    +0.015 C 
ATOM      5  C   UNL     1      36.061 -18.365 -21.363  0.00  0.00    -0.102 C 
ATOM      6  H   UNL     1      36.233 -16.374 -21.822  0.00  0.00    -0.084 HD
ATOM      7  H   UNL     1      36.849 -17.366 -22.985  0.00  0.00    -0.084 HD
ENDROOT
BRANCH   2   8
ATOM      8  N   UNL     1      34.847 -20.528 -21.330  0.00  0.00    +0.389 N 
ATOM      9  N   UNL     1      34.037 -21.792 -18.900  0.00  0.00    -0.257 N 
ATOM     10  N   UNL     1      34.608 -22.954 -16.925  0.00  0.00    -0.203 NA
ATOM     11  N   UNL     1      32.306 -22.745 -17.607  0.00  0.00    -0.181 NA
ATOM     12  C   UNL     1      35.844 -20.899 -20.318  0.00  0.00    -0.055 C 
ATOM     13  C   UNL     1      33.591 -20.144 -20.675  0.00  0.00    -0.055 C 
ATOM     14  C   UNL     1      35.357 -22.080 -19.475  0.00  0.00    +0.079 C 
ATOM     15  C   UNL     1      33.029 -21.298 -19.842  0.00  0.00    +0.079 C 
ATOM     16  C   UNL     1      33.637 -22.521 -17.775  0.00  0.00    +0.090 C 
ATOM     17  C   UNL     1      34.187 -23.653 -15.850  0.00  0.00    +0.165 C 
ATOM     18  C   UNL     1      31.957 -23.450 -16.511  0.00  0.00    +0.108 C 
ATOM     19  C   UNL     1      32.862 -23.935 -15.590  0.00  0.00    +0.022 C 
ATOM     20  H   UNL     1      34.671 -21.333 -21.932  0.00  0.00    -0.080 HD
ENDBRANCH   2   8
BRANCH   4  25
ATOM     21  F   UNL     1      32.062 -13.927 -25.343  0.00  0.00    -0.202 F 
ATOM     22  F   UNL     1      33.901 -12.780 -25.606  0.00  0.00    -0.202 F 
ATOM     23  O   UNL     1      33.505 -16.473 -21.152  0.00  0.00    -0.277 OA
ATOM     24  N   UNL     1      33.594 -15.122 -23.025  0.00  0.00    -0.276 N 
ATOM     25  C   UNL     1      33.907 -16.255 -22.297  0.00  0.00    +0.206 C 
ATOM     26  C   UNL     1      34.022 -14.817 -24.390  0.00  0.00    +0.160 C 
ATOM     27  C   UNL     1      32.743 -14.065 -22.492  0.00  0.00    +0.099 C 
ATOM     28  C   UNL     1      33.230 -13.578 -24.755  0.00  0.00    +0.284 C 
ATOM     29  C   UNL     1      32.967 -12.890 -23.429  0.00  0.00    +0.090 C 
ENDBRANCH   4  25
TORSDOF 2
ENDMDL
MODEL 3
REMARK VINA RESULT:      -9.9      5.300      8.546
REMARK  Name = 11516136
REMARK  2 active torsions:
REMARK  status: ('A' for Active; 'I' for Inactive)
REMARK    1  A    between atoms: C_2  and  N_8
REMARK    2  A    between atoms: C_4  and  C_25
REMARK                            x       y       z     vdW  Elec       q    Type
REMARK                         _______ _______ _______ _____ _____    ______ ____
ROOT
ATOM      1  N   UNL     1      32.591 -10.125 -23.625  0.00  0.00    +0.389 N 
ATOM      2  C   UNL     1      32.582 -12.354 -22.995  0.00  0.00    -0.081 C 
ATOM      3  C   UNL     1      31.567 -11.653 -22.093  0.00  0.00    -0.035 C 
ATOM      4  C   UNL     1      31.577 -10.201 -22.570  0.00  0.00    +0.015 C 
ATOM      5  C   UNL     1      33.522 -11.230 -23.397  0.00  0.00    -0.102 C 
ATOM      6  H   UNL     1      33.085  -9.234 -23.575  0.00  0.00    -0.084 HD
ATOM      7  H   UNL     1      32.164 -10.193 -24.549  0.00  0.00    -0.084 HD
ENDROOT
BRANCH   2   8
ATOM      8  N   UNL     1      33.263 -13.463 -22.350  0.00  0.00    +0.389 N 
ATOM      9  N   UNL     1      33.979 -16.197 -21.936  0.00  0.00    -0.257 N 
ATOM     10  N   UNL     1      33.491 -18.305 -20.989  0.00  0.00    -0.203 NA
ATOM     11  N   UNL     1      35.646 -17.870 -21.979  0.00  0.00    -0.181 NA
ATOM     12  C   UNL     1      32.291 -14.408 -21.787  0.00  0.00    -0.055 C 
ATOM     13  C   UNL     1      34.137 -14.156 -23.305  0.00  0.00    -0.055 C 
ATOM     14  C   UNL     1      32.997 -15.551 -21.056  0.00  0.00    +0.079 C 
ATOM     15  C   UNL     1      34.904 -15.293 -22.625  0.00  0.00    +0.079 C 
ATOM     16  C   UNL     1      34.386 -17.499 -21.624  0.00  0.00    +0.090 C 
ATOM     17  C   UNL     1      33.916 -19.554 -20.705  0.00  0.00    +0.165 C 
ATOM     18  C   UNL     1      36.003 -19.132 -21.664  0.00  0.00    +0.108 C 
ATOM     19  C   UNL     1      35.173 -20.027 -21.020  0.00  0.00    +0.022 C 
ATOM     20  H   UNL     1      33.836 -13.088 -21.594  0.00  0.00    -0.080 HD
ENDBRANCH   2   8
BRANCH   4  25
ATOM     21  F   UNL     1      29.767  -5.677 -22.083  0.00  0.00    -0.202 F 
ATOM     22  F   UNL     1      31.127  -5.090 -23.686  0.00  0.00    -0.202 F 
ATOM     23  O   UNL     1      32.452  -9.697 -20.423  0.00  0.00    -0.277 OA
ATOM     24  N   UNL     1      31.764  -7.921 -21.730  0.00  0.00    -0.276 N 
ATOM     25  C   UNL     1      31.975  -9.263 -21.473  0.00  0.00    +0.206 C 
ATOM     26  C   UNL     1      31.186  -7.346 -22.945  0.00  0.00    +0.160 C 
ATOM     27  C   UNL     1      32.094  -6.882 -20.763  0.00  0.00    +0.099 C 
ATOM     28  C   UNL     1      30.998  -5.882 -22.605  0.00  0.00    +0.284 C 
ATOM     29  C   UNL     1      32.065  -5.593 -21.567  0.00  0.00    +0.090 C 
ENDBRANCH   4  25
TORSDOF 2
ENDMDL
MODEL 4
REMARK VINA RESULT:      -9.7      5.275     12.013
REMARK  Name = 11516136
REMARK  2 active torsions:
REMARK  status: ('A' for Active; 'I' for Inactive)
REMARK    1  A    between atoms: C_2  and  N_8
REMARK    2  A    between atoms: C_4  and  C_25
REMARK                            x       y       z     vdW  Elec       q    Type
REMARK                         _______ _______ _______ _____ _____    ______ ____
ROOT
ATOM      1  N   UNL     1      32.683 -15.234 -20.608  0.00  0.00    +0.389 N 
ATOM      2  C   UNL     1      32.072 -13.174 -21.471  0.00  0.00    -0.081 C 
ATOM      3  C   UNL     1      32.480 -14.032 -22.667  0.00  0.00    -0.035 C 
ATOM      4  C   UNL     1      32.833 -15.388 -22.057  0.00  0.00    +0.015 C 
ATOM      5  C   UNL     1      32.829 -13.809 -20.316  0.00  0.00    -0.102 C 
ATOM      6  H   UNL     1      33.403 -15.767 -20.121  0.00  0.00    -0.084 HD
ATOM      7  H   UNL     1      31.775 -15.580 -20.295  0.00  0.00    -0.084 HD
ENDROOT
BRANCH   2   8
ATOM      8  N   UNL     1      32.371 -11.762 -21.639  0.00  0.00    +0.389 N 
ATOM      9  N   UNL     1      31.846  -9.057 -22.392  0.00  0.00    -0.257 N 
ATOM     10  N   UNL     1      31.777  -7.388 -24.063  0.00  0.00    -0.203 NA
ATOM     11  N   UNL     1      31.526  -6.811 -21.736  0.00  0.00    -0.181 NA
ATOM     12  C   UNL     1      32.301 -11.386 -23.057  0.00  0.00    -0.055 C 
ATOM     13  C   UNL     1      31.438 -10.941 -20.859  0.00  0.00    -0.055 C 
ATOM     14  C   UNL     1      32.670  -9.914 -23.254  0.00  0.00    +0.079 C 
ATOM     15  C   UNL     1      31.777  -9.453 -20.983  0.00  0.00    +0.079 C 
ATOM     16  C   UNL     1      31.712  -7.708 -22.741  0.00  0.00    +0.090 C 
ATOM     17  C   UNL     1      31.643  -6.080 -24.363  0.00  0.00    +0.165 C 
ATOM     18  C   UNL     1      31.399  -5.521 -22.109  0.00  0.00    +0.108 C 
ATOM     19  C   UNL     1      31.452  -5.092 -23.419  0.00  0.00    +0.022 C 
ATOM     20  H   UNL     1      33.319 -11.595 -21.300  0.00  0.00    -0.080 HD
ENDBRANCH   2   8
BRANCH   4  25
ATOM     21  F   UNL     1      34.398 -20.019 -22.343  0.00  0.00    -0.202 F 
ATOM     22  F   UNL     1      34.358 -20.041 -20.161  0.00  0.00    -0.202 F 
ATOM     23  O   UNL     1      35.009 -14.976 -22.910  0.00  0.00    -0.277 OA
ATOM     24  N   UNL     1      34.627 -17.032 -21.927  0.00  0.00    -0.276 N 
ATOM     25  C   UNL     1      34.254 -15.767 -22.340  0.00  0.00    +0.206 C 
ATOM     26  C   UNL     1      33.775 -18.020 -21.266  0.00  0.00    +0.160 C 
ATOM     27  C   UNL     1      35.973 -17.553 -22.133  0.00  0.00    +0.099 C 
ATOM     28  C   UNL     1      34.623 -19.275 -21.235  0.00  0.00    +0.284 C 
ATOM     29  C   UNL     1      36.052 -18.768 -21.224  0.00  0.00    +0.090 C 
ENDBRANCH   4  25
TORSDOF 2
ENDMDL
MODEL 5
REMARK VINA RESULT:      -9.3      3.962      9.909
REMARK  Name = 11516136
REMARK  2 active torsions:
REMARK  status: ('A' for Active; 'I' for Inactive)
REMARK    1  A    between atoms: C_2  and  N_8
REMARK    2  A    between atoms: C_4  and  C_25
REMARK                            x       y       z     vdW  Elec       q    Type
REMARK                         _______ _______ _______ _____ _____    ______ ____
ROOT
ATOM      1  N   UNL     1      35.171 -19.352 -23.187  0.00  0.00    +0.389 N 
ATOM      2  C   UNL     1      34.851 -17.067 -22.994  0.00  0.00    -0.081 C 
ATOM      3  C   UNL     1      35.129 -17.578 -21.581  0.00  0.00    -0.035 C 
ATOM      4  C   UNL     1      35.374 -19.075 -21.762  0.00  0.00    +0.015 C 
ATOM      5  C   UNL     1      34.305 -18.294 -23.704  0.00  0.00    -0.102 C 
ATOM      6  H   UNL     1      34.725 -20.261 -23.308  0.00  0.00    -0.084 HD
ATOM      7  H   UNL     1      36.061 -19.373 -23.686  0.00  0.00    -0.084 HD
ENDROOT
BRANCH   2   8
ATOM      8  N   UNL     1      33.941 -15.934 -23.034  0.00  0.00    +0.389 N 
ATOM      9  N   UNL     1      32.986 -13.331 -22.346  0.00  0.00    -0.257 N 
ATOM     10  N   UNL     1      31.790 -11.930 -20.869  0.00  0.00    -0.203 NA
ATOM     11  N   UNL     1      32.512 -11.118 -23.021  0.00  0.00    -0.181 NA
ATOM     12  C   UNL     1      33.380 -15.677 -21.702  0.00  0.00    -0.055 C 
ATOM     13  C   UNL     1      34.633 -14.735 -23.523  0.00  0.00    -0.055 C 
ATOM     14  C   UNL     1      32.376 -14.523 -21.743  0.00  0.00    +0.079 C 
ATOM     15  C   UNL     1      33.672 -13.548 -23.624  0.00  0.00    +0.079 C 
ATOM     16  C   UNL     1      32.411 -12.086 -22.071  0.00  0.00    +0.090 C 
ATOM     17  C   UNL     1      31.247 -10.716 -20.636  0.00  0.00    +0.165 C 
ATOM     18  C   UNL     1      31.947  -9.930 -22.721  0.00  0.00    +0.108 C 
ATOM     19  C   UNL     1      31.294  -9.670 -21.534  0.00  0.00    +0.022 C 
ATOM     20  H   UNL     1      33.180 -16.160 -23.675  0.00  0.00    -0.080 HD
ENDBRANCH   2   8
BRANCH   4  25
ATOM     21  F   UNL     1      36.283 -20.895 -17.308  0.00  0.00    -0.202 F 
ATOM     22  F   UNL     1      37.453 -22.441 -18.310  0.00  0.00    -0.202 F 
ATOM     23  O   UNL     1      33.183 -19.814 -21.226  0.00  0.00    -0.277 OA
ATOM     24  N   UNL     1      34.931 -20.707 -20.007  0.00  0.00    -0.276 N 
ATOM     25  C   UNL     1      34.389 -19.893 -20.984  0.00  0.00    +0.206 C 
ATOM     26  C   UNL     1      36.347 -20.829 -19.660  0.00  0.00    +0.160 C 
ATOM     27  C   UNL     1      34.107 -21.561 -19.161  0.00  0.00    +0.099 C 
ATOM     28  C   UNL     1      36.346 -21.681 -18.407  0.00  0.00    +0.284 C 
ATOM     29  C   UNL     1      35.093 -22.526 -18.523  0.00  0.00    +0.090 C 
ENDBRANCH   4  25
TORSDOF 2
ENDMDL
MODEL 6
REMARK VINA RESULT:      -9.2      4.214      9.762
REMARK  Name = 11516136
REMARK  2 active torsions:
REMARK  status: ('A' for Active; 'I' for Inactive)
REMARK    1  A    between atoms: C_2  and  N_8
REMARK    2  A    between atoms: C_4  and  C_25
REMARK                            x       y       z     vdW  Elec       q    Type
REMARK                         _______ _______ _______ _____ _____    ______ ____
ROOT
ATOM      1  N   UNL     1      33.997 -21.798 -19.400  0.00  0.00    +0.389 N 
ATOM      2  C   UNL     1      34.670 -20.479 -21.180  0.00  0.00    -0.081 C 
ATOM      3  C   UNL     1      35.932 -21.158 -20.654  0.00  0.00    -0.035 C 
ATOM      4  C   UNL     1      35.436 -22.046 -19.513  0.00  0.00    +0.015 C 
ATOM      5  C   UNL     1      33.749 -20.475 -19.972  0.00  0.00    -0.102 C 
ATOM      6  H   UNL     1      33.712 -21.817 -18.421  0.00  0.00    -0.084 HD
ATOM      7  H   UNL     1      33.463 -22.515 -19.893  0.00  0.00    -0.084 HD
ENDROOT
BRANCH   2   8
ATOM      8  N   UNL     1      34.906 -19.151 -21.720  0.00  0.00    +0.389 N 
ATOM      9  N   UNL     1      34.193 -16.661 -22.926  0.00  0.00    -0.257 N 
ATOM     10  N   UNL     1      33.739 -15.401 -24.871  0.00  0.00    -0.203 NA
ATOM     11  N   UNL     1      33.994 -14.316 -22.733  0.00  0.00    -0.181 NA
ATOM     12  C   UNL     1      34.523 -19.094 -23.136  0.00  0.00    -0.055 C 
ATOM     13  C   UNL     1      34.155 -18.144 -20.960  0.00  0.00    -0.055 C 
ATOM     14  C   UNL     1      34.821 -17.716 -23.731  0.00  0.00    +0.079 C 
ATOM     15  C   UNL     1      34.439 -16.734 -21.482  0.00  0.00    +0.079 C 
ATOM     16  C   UNL     1      33.969 -15.418 -23.529  0.00  0.00    +0.090 C 
ATOM     17  C   UNL     1      33.526 -14.186 -25.419  0.00  0.00    +0.165 C 
ATOM     18  C   UNL     1      33.773 -13.135 -23.348  0.00  0.00    +0.108 C 
ATOM     19  C   UNL     1      33.532 -13.009 -24.701  0.00  0.00    +0.022 C 
ATOM     20  H   UNL     1      35.903 -18.947 -21.639  0.00  0.00    -0.080 HD
ENDBRANCH   2   8
BRANCH   4  25
ATOM     21  F   UNL     1      35.467 -24.971 -15.586  0.00  0.00    -0.202 F 
ATOM     22  F   UNL     1      33.400 -24.353 -15.258  0.00  0.00    -0.202 F 
ATOM     23  O   UNL     1      36.962 -20.822 -18.169  0.00  0.00    -0.277 OA
ATOM     24  N   UNL     1      35.605 -22.358 -17.102  0.00  0.00    -0.276 N 
ATOM     25  C   UNL     1      36.076 -21.677 -18.210  0.00  0.00    +0.206 C 
ATOM     26  C   UNL     1      34.574 -23.394 -17.088  0.00  0.00    +0.160 C 
ATOM     27  C   UNL     1      36.128 -22.118 -15.762  0.00  0.00    +0.099 C 
ATOM     28  C   UNL     1      34.608 -23.929 -15.671  0.00  0.00    +0.284 C 
ATOM     29  C   UNL     1      35.110 -22.765 -14.838  0.00  0.00    +0.090 C 
ENDBRANCH   4  25
TORSDOF 2
ENDMDL
MODEL 7
REMARK VINA RESULT:      -9.0      5.180     11.512
REMARK  Name = 11516136
REMARK  2 active torsions:
REMARK  status: ('A' for Active; 'I' for Inactive)
REMARK    1  A    between atoms: C_2  and  N_8
REMARK    2  A    between atoms: C_4  and  C_25
REMARK                            x       y       z     vdW  Elec       q    Type
REMARK                         _______ _______ _______ _____ _____    ______ ____
ROOT
ATOM      1  N   UNL     1      33.793 -15.725 -24.413  0.00  0.00    +0.389 N 
ATOM      2  C   UNL     1      33.910 -13.422 -24.198  0.00  0.00    -0.081 C 
ATOM      3  C   UNL     1      34.510 -14.000 -22.917  0.00  0.00    -0.035 C 
ATOM      4  C   UNL     1      34.450 -15.513 -23.121  0.00  0.00    +0.015 C 
ATOM      5  C   UNL     1      32.991 -14.532 -24.681  0.00  0.00    -0.102 C 
ATOM      6  H   UNL     1      33.194 -16.549 -24.372  0.00  0.00    -0.084 HD
ATOM      7  H   UNL     1      34.480 -15.876 -25.152  0.00  0.00    -0.084 HD
ENDROOT
BRANCH   2   8
ATOM      8  N   UNL     1      33.221 -12.158 -23.998  0.00  0.00    +0.389 N 
ATOM      9  N   UNL     1      32.797  -9.569 -22.869  0.00  0.00    -0.257 N 
ATOM     10  N   UNL     1      31.964  -8.230 -21.111  0.00  0.00    -0.203 NA
ATOM     11  N   UNL     1      32.694  -7.230 -23.179  0.00  0.00    -0.181 NA
ATOM     12  C   UNL     1      32.795 -12.019 -22.601  0.00  0.00    -0.055 C 
ATOM     13  C   UNL     1      34.089 -11.034 -24.370  0.00  0.00    -0.055 C 
ATOM     14  C   UNL     1      32.017 -10.718 -22.391  0.00  0.00    +0.079 C 
ATOM     15  C   UNL     1      33.355  -9.699 -24.218  0.00  0.00    +0.079 C 
ATOM     16  C   UNL     1      32.474  -8.302 -22.371  0.00  0.00    +0.090 C 
ATOM     17  C   UNL     1      31.665  -6.993 -20.662  0.00  0.00    +0.165 C 
ATOM     18  C   UNL     1      32.372  -6.025 -22.666  0.00  0.00    +0.108 C 
ATOM     19  C   UNL     1      31.849  -5.844 -21.403  0.00  0.00    +0.022 C 
ATOM     20  H   UNL     1      32.395 -12.149 -24.598  0.00  0.00    -0.080 HD
ENDBRANCH   2   8
BRANCH   4  25
ATOM     21  F   UNL     1      36.012 -19.311 -20.454  0.00  0.00    -0.202 F 
ATOM     22  F   UNL     1      35.592 -20.555 -22.198  0.00  0.00    -0.202 F 
ATOM     23  O   UNL     1      32.692 -15.577 -21.528  0.00  0.00    -0.277 OA
ATOM     24  N   UNL     1      33.989 -17.476 -21.752  0.00  0.00    -0.276 N 
ATOM     25  C   UNL     1      33.624 -16.180 -22.064  0.00  0.00    +0.206 C 
ATOM     26  C   UNL     1      35.094 -18.236 -22.335  0.00  0.00    +0.160 C 
ATOM     27  C   UNL     1      33.288 -18.260 -20.742  0.00  0.00    +0.099 C 
ATOM     28  C   UNL     1      35.164 -19.492 -21.492  0.00  0.00    +0.284 C 
ATOM     29  C   UNL     1      33.748 -19.688 -20.985  0.00  0.00    +0.090 C 
ENDBRANCH   4  25
TORSDOF 2
ENDMDL
MODEL 8
REMARK VINA RESULT:      -8.9      2.305      3.712
REMARK  Name = 11516136
REMARK  2 active torsions:
REMARK  status: ('A' for Active; 'I' for Inactive)
REMARK    1  A    between atoms: C_2  and  N_8
REMARK    2  A    between atoms: C_4  and  C_25
REMARK                            x       y       z     vdW  Elec       q    Type
REMARK                         _______ _______ _______ _____ _____    ______ ____
ROOT
ATOM      1  N   UNL     1      34.839 -16.023 -23.150  0.00  0.00    +0.389 N 
ATOM      2  C   UNL     1      35.460 -18.082 -22.293  0.00  0.00    -0.081 C 
ATOM      3  C   UNL     1      35.616 -18.188 -23.808  0.00  0.00    -0.035 C 
ATOM      4  C   UNL     1      35.237 -16.801 -24.325  0.00  0.00    +0.015 C 
ATOM      5  C   UNL     1      34.425 -16.983 -22.127  0.00  0.00    -0.102 C 
ATOM      6  H   UNL     1      34.063 -15.403 -23.384  0.00  0.00    -0.084 HD
ATOM      7  H   UNL     1      35.610 -15.443 -22.816  0.00  0.00    -0.084 HD
ENDROOT
BRANCH   2   8
ATOM      8  N   UNL     1      35.070 -19.331 -21.659  0.00  0.00    +0.389 N 
ATOM      9  N   UNL     1      34.398 -21.050 -19.480  0.00  0.00    -0.257 N 
ATOM     10  N   UNL     1      35.088 -22.470 -17.723  0.00  0.00    -0.203 NA
ATOM     11  N   UNL     1      32.770 -22.356 -18.375  0.00  0.00    -0.181 NA
ATOM     12  C   UNL     1      36.105 -19.776 -20.718  0.00  0.00    -0.055 C 
ATOM     13  C   UNL     1      33.791 -19.175 -20.956  0.00  0.00    -0.055 C 
ATOM     14  C   UNL     1      35.733 -21.119 -20.087  0.00  0.00    +0.079 C 
ATOM     15  C   UNL     1      33.341 -20.498 -20.332  0.00  0.00    +0.079 C 
ATOM     16  C   UNL     1      34.074 -21.990 -18.494  0.00  0.00    +0.090 C 
ATOM     17  C   UNL     1      34.740 -23.373 -16.783  0.00  0.00    +0.165 C 
ATOM     18  C   UNL     1      32.495 -23.263 -17.414  0.00  0.00    +0.108 C 
ATOM     19  C   UNL     1      33.448 -23.812 -16.582  0.00  0.00    +0.022 C 
ATOM     20  H   UNL     1      34.961 -20.036 -22.388  0.00  0.00    -0.080 HD
ENDBRANCH   2   8
BRANCH   4  25
ATOM     21  F   UNL     1      34.179 -13.288 -27.568  0.00  0.00    -0.202 F 
ATOM     22  F   UNL     1      33.349 -12.159 -25.894  0.00  0.00    -0.202 F 
ATOM     23  O   UNL     1      33.560 -17.945 -25.555  0.00  0.00    -0.277 OA
ATOM     24  N   UNL     1      33.635 -15.644 -25.751  0.00  0.00    -0.276 N 
ATOM     25  C   UNL     1      34.070 -16.861 -25.261  0.00  0.00    +0.206 C 
ATOM     26  C   UNL     1      34.208 -14.331 -25.458  0.00  0.00    +0.160 C 
ATOM     27  C   UNL     1      32.514 -15.533 -26.676  0.00  0.00    +0.099 C 
ATOM     28  C   UNL     1      33.490 -13.395 -26.408  0.00  0.00    +0.284 C 
ATOM     29  C   UNL     1      32.148 -14.058 -26.652  0.00  0.00    +0.090 C 
ENDBRANCH   4  25
TORSDOF 2
ENDMDL
MODEL 9
REMARK VINA RESULT:      -8.9      5.264     10.000
REMARK  Name = 11516136
REMARK  2 active torsions:
REMARK  status: ('A' for Active; 'I' for Inactive)
REMARK    1  A    between atoms: C_2  and  N_8
REMARK    2  A    between atoms: C_4  and  C_25
REMARK                            x       y       z     vdW  Elec       q    Type
REMARK                         _______ _______ _______ _____ _____    ______ ____
ROOT
ATOM      1  N   UNL     1      33.513 -23.763 -13.693  0.00  0.00    +0.389 N 
ATOM      2  C   UNL     1      33.985 -24.011 -15.947  0.00  0.00    -0.081 C 
ATOM      3  C   UNL     1      34.988 -24.891 -15.203  0.00  0.00    -0.035 C 
ATOM      4  C   UNL     1      34.613 -24.729 -13.730  0.00  0.00    +0.015 C 
ATOM      5  C   UNL     1      33.612 -22.962 -14.913  0.00  0.00    -0.102 C 
ATOM      6  H   UNL     1      33.597 -23.164 -12.872  0.00  0.00    -0.084 HD
ATOM      7  H   UNL     1      32.611 -24.238 -13.640  0.00  0.00    -0.084 HD
ENDROOT
BRANCH   2   8
ATOM      8  N   UNL     1      34.513 -23.438 -17.174  0.00  0.00    +0.389 N 
ATOM      9  N   UNL     1      35.027 -21.369 -19.075  0.00  0.00    -0.257 N 
ATOM     10  N   UNL     1      34.305 -20.071 -20.912  0.00  0.00    -0.203 NA
ATOM     11  N   UNL     1      36.598 -19.988 -20.172  0.00  0.00    -0.181 NA
ATOM     12  C   UNL     1      33.425 -22.904 -18.002  0.00  0.00    -0.055 C 
ATOM     13  C   UNL     1      35.479 -22.374 -16.872  0.00  0.00    -0.055 C 
ATOM     14  C   UNL     1      33.962 -22.350 -19.323  0.00  0.00    +0.079 C 
ATOM     15  C   UNL     1      36.084 -21.800 -18.156  0.00  0.00    +0.079 C 
ATOM     16  C   UNL     1      35.320 -20.447 -20.086  0.00  0.00    +0.090 C 
ATOM     17  C   UNL     1      34.623 -19.180 -21.874  0.00  0.00    +0.165 C 
ATOM     18  C   UNL     1      36.844 -19.100 -21.156  0.00  0.00    +0.108 C 
ATOM     19  C   UNL     1      35.887 -18.656 -22.046  0.00  0.00    +0.022 C 
ATOM     20  H   UNL     1      34.989 -24.178 -17.691  0.00  0.00    -0.080 HD
ENDBRANCH   2   8
BRANCH   4  25
ATOM     21  F   UNL     1      39.216 -24.463 -15.379  0.00  0.00    -0.202 F 
ATOM     22  F   UNL     1      39.369 -26.596 -14.941  0.00  0.00    -0.202 F 
ATOM     23  O   UNL     1      35.534 -23.390 -12.001  0.00  0.00    -0.277 OA
ATOM     24  N   UNL     1      37.011 -24.588 -13.314  0.00  0.00    -0.276 N 
ATOM     25  C   UNL     1      35.750 -24.170 -12.930  0.00  0.00    +0.206 C 
ATOM     26  C   UNL     1      37.331 -25.493 -14.417  0.00  0.00    +0.160 C 
ATOM     27  C   UNL     1      38.220 -24.132 -12.640  0.00  0.00    +0.099 C 
ATOM     28  C   UNL     1      38.842 -25.433 -14.514  0.00  0.00    +0.284 C 
ATOM     29  C   UNL     1      39.300 -25.092 -13.110  0.00  0.00    +0.090 C 
ENDBRANCH   4  25
TORSDOF 2
ENDMDL
