MODEL 1
REMARK VINA RESULT:      -8.1      0.000      0.000
REMARK  Name = 680935
REMARK  2 active torsions:
REMARK  status: ('A' for Active; 'I' for Inactive)
REMARK    1  A    between atoms: N_2  and  C_11
REMARK    2  A    between atoms: C_3  and  C_7
REMARK                            x       y       z     vdW  Elec       q    Type
REMARK                         _______ _______ _______ _____ _____    ______ ____
ROOT
ATOM      1  O   UNL     1      35.255 -16.715 -20.329  0.00  0.00    -0.268 OA
ATOM      2  N   UNL     1      34.277 -18.356 -21.695  0.00  0.00    -0.279 N 
ATOM      3  C   UNL     1      34.690 -17.072 -21.358  0.00  0.00    +0.264 C 
ATOM      4  H   UNL     1      33.835 -18.461 -22.569  0.00  0.00    +0.155 HD
ENDROOT
BRANCH   3   7
ATOM      5  N   UNL     1      34.228 -16.345 -23.674  0.00  0.00    -0.232 N 
ATOM      6  N   UNL     1      34.012 -15.248 -24.420  0.00  0.00    -0.180 NA
ATOM      7  C   UNL     1      34.428 -16.039 -22.395  0.00  0.00    +0.120 C 
ATOM      8  C   UNL     1      34.356 -14.717 -22.224  0.00  0.00    +0.043 C 
ATOM      9  C   UNL     1      34.092 -14.256 -23.529  0.00  0.00    +0.119 C 
ATOM     10  H   UNL     1      34.237 -17.263 -24.031  0.00  0.00    +0.175 HD
ENDBRANCH   3   7
BRANCH   2  11
ATOM     11  C   UNL     1      34.419 -19.514 -20.928  0.00  0.00    +0.051 C 
ATOM     12  C   UNL     1      35.689 -20.040 -20.688  0.00  0.00    +0.015 C 
ATOM     13  C   UNL     1      33.292 -20.145 -20.402  0.00  0.00    +0.015 C 
ATOM     14  C   UNL     1      35.831 -21.196 -19.922  0.00  0.00    +0.001 C 
ATOM     15  C   UNL     1      33.434 -21.302 -19.637  0.00  0.00    +0.001 C 
ATOM     16  C   UNL     1      34.704 -21.828 -19.397  0.00  0.00    +0.000 C 
ENDBRANCH   2  11
TORSDOF 2
ENDMDL
MODEL 2
REMARK VINA RESULT:      -8.1      0.022      1.292
REMARK  Name = 680935
REMARK  2 active torsions:
REMARK  status: ('A' for Active; 'I' for Inactive)
REMARK    1  A    between atoms: N_2  and  C_11
REMARK    2  A    between atoms: C_3  and  C_7
REMARK                            x       y       z     vdW  Elec       q    Type
REMARK                         _______ _______ _______ _____ _____    ______ ____
ROOT
ATOM      1  O   UNL     1      35.268 -16.735 -20.323  0.00  0.00    -0.268 OA
ATOM      2  N   UNL     1      34.278 -18.373 -21.684  0.00  0.00    -0.279 N 
ATOM      3  C   UNL     1      34.697 -17.090 -21.349  0.00  0.00    +0.264 C 
ATOM      4  H   UNL     1      33.832 -18.475 -22.556  0.00  0.00    +0.155 HD
ENDROOT
BRANCH   3   7
ATOM      5  N   UNL     1      34.224 -16.363 -23.664  0.00  0.00    -0.232 N 
ATOM      6  N   UNL     1      34.011 -15.265 -24.409  0.00  0.00    -0.180 NA
ATOM      7  C   UNL     1      34.435 -16.057 -22.386  0.00  0.00    +0.120 C 
ATOM      8  C   UNL     1      34.375 -14.733 -22.217  0.00  0.00    +0.043 C 
ATOM      9  C   UNL     1      34.105 -14.272 -23.520  0.00  0.00    +0.119 C 
ATOM     10  H   UNL     1      34.223 -17.281 -24.019  0.00  0.00    +0.175 HD
ENDBRANCH   3   7
BRANCH   2  11
ATOM     11  C   UNL     1      34.418 -19.530 -20.917  0.00  0.00    +0.051 C 
ATOM     12  C   UNL     1      33.288 -20.165 -20.400  0.00  0.00    +0.015 C 
ATOM     13  C   UNL     1      35.687 -20.053 -20.668  0.00  0.00    +0.015 C 
ATOM     14  C   UNL     1      33.428 -21.322 -19.634  0.00  0.00    +0.001 C 
ATOM     15  C   UNL     1      35.827 -21.209 -19.901  0.00  0.00    +0.001 C 
ATOM     16  C   UNL     1      34.698 -21.844 -19.384  0.00  0.00    +0.000 C 
ENDBRANCH   2  11
TORSDOF 2
ENDMDL
MODEL 3
REMARK VINA RESULT:      -7.8      2.744      6.155
REMARK  Name = 680935
REMARK  2 active torsions:
REMARK  status: ('A' for Active; 'I' for Inactive)
REMARK    1  A    between atoms: N_2  and  C_11
REMARK    2  A    between atoms: C_3  and  C_7
REMARK                            x       y       z     vdW  Elec       q    Type
REMARK                         _______ _______ _______ _____ _____    ______ ____
ROOT
ATOM      1  O   UNL     1      32.369 -20.202 -20.899  0.00  0.00    -0.268 OA
ATOM      2  N   UNL     1      34.667 -19.723 -20.864  0.00  0.00    -0.279 N 
ATOM      3  C   UNL     1      33.505 -20.380 -20.474  0.00  0.00    +0.264 C 
ATOM      4  H   UNL     1      35.499 -19.997 -20.412  0.00  0.00    +0.155 HD
ENDROOT
BRANCH   3   7
ATOM      5  N   UNL     1      32.682 -22.066 -18.865  0.00  0.00    -0.232 N 
ATOM      6  N   UNL     1      33.104 -22.972 -17.966  0.00  0.00    -0.180 NA
ATOM      7  C   UNL     1      33.700 -21.433 -19.442  0.00  0.00    +0.120 C 
ATOM      8  C   UNL     1      34.857 -21.887 -18.953  0.00  0.00    +0.043 C 
ATOM      9  C   UNL     1      34.434 -22.858 -18.024  0.00  0.00    +0.119 C 
ATOM     10  H   UNL     1      31.735 -21.892 -19.071  0.00  0.00    +0.175 HD
ENDBRANCH   3   7
BRANCH   2  11
ATOM     11  C   UNL     1      34.783 -18.718 -21.825  0.00  0.00    +0.051 C 
ATOM     12  C   UNL     1      34.858 -19.051 -23.177  0.00  0.00    +0.015 C 
ATOM     13  C   UNL     1      34.824 -17.380 -21.433  0.00  0.00    +0.015 C 
ATOM     14  C   UNL     1      34.973 -18.047 -24.137  0.00  0.00    +0.001 C 
ATOM     15  C   UNL     1      34.940 -16.375 -22.393  0.00  0.00    +0.001 C 
ATOM     16  C   UNL     1      35.015 -16.708 -23.746  0.00  0.00    +0.000 C 
ENDBRANCH   2  11
TORSDOF 2
ENDMDL
MODEL 4
REMARK VINA RESULT:      -7.8      1.331      2.013
REMARK  Name = 680935
REMARK  2 active torsions:
REMARK  status: ('A' for Active; 'I' for Inactive)
REMARK    1  A    between atoms: N_2  and  C_11
REMARK    2  A    between atoms: C_3  and  C_7
REMARK                            x       y       z     vdW  Elec       q    Type
REMARK                         _______ _______ _______ _____ _____    ______ ____
ROOT
ATOM      1  O   UNL     1      34.923 -15.603 -20.227  0.00  0.00    -0.268 OA
ATOM      2  N   UNL     1      34.282 -17.187 -21.838  0.00  0.00    -0.279 N 
ATOM      3  C   UNL     1      34.398 -15.914 -21.291  0.00  0.00    +0.264 C 
ATOM      4  H   UNL     1      33.826 -17.251 -22.709  0.00  0.00    +0.155 HD
ENDROOT
BRANCH   3   7
ATOM      5  N   UNL     1      34.539 -14.226 -23.091  0.00  0.00    -0.232 N 
ATOM      6  N   UNL     1      33.824 -13.271 -23.710  0.00  0.00    -0.180 NA
ATOM      7  C   UNL     1      33.838 -14.821 -22.130  0.00  0.00    +0.120 C 
ATOM      8  C   UNL     1      32.616 -14.288 -22.058  0.00  0.00    +0.043 C 
ATOM      9  C   UNL     1      32.649 -13.313 -23.074  0.00  0.00    +0.119 C 
ATOM     10  H   UNL     1      35.468 -14.458 -23.322  0.00  0.00    +0.175 HD
ENDBRANCH   3   7
BRANCH   2  11
ATOM     11  C   UNL     1      34.739 -18.384 -21.285  0.00  0.00    +0.051 C 
ATOM     12  C   UNL     1      33.826 -19.357 -20.878  0.00  0.00    +0.015 C 
ATOM     13  C   UNL     1      36.109 -18.608 -21.141  0.00  0.00    +0.015 C 
ATOM     14  C   UNL     1      34.283 -20.554 -20.326  0.00  0.00    +0.001 C 
ATOM     15  C   UNL     1      36.565 -19.805 -20.588  0.00  0.00    +0.001 C 
ATOM     16  C   UNL     1      35.652 -20.778 -20.181  0.00  0.00    +0.000 C 
ENDBRANCH   2  11
TORSDOF 2
ENDMDL
MODEL 5
REMARK VINA RESULT:      -7.6      1.492      1.663
REMARK  Name = 680935
REMARK  2 active torsions:
REMARK  status: ('A' for Active; 'I' for Inactive)
REMARK    1  A    between atoms: N_2  and  C_11
REMARK    2  A    between atoms: C_3  and  C_7
REMARK                            x       y       z     vdW  Elec       q    Type
REMARK                         _______ _______ _______ _____ _____    ______ ____
ROOT
ATOM      1  O   UNL     1      34.988 -17.809 -24.186  0.00  0.00    -0.268 OA
ATOM      2  N   UNL     1      34.608 -17.314 -21.923  0.00  0.00    -0.279 N 
ATOM      3  C   UNL     1      34.660 -17.044 -23.286  0.00  0.00    +0.264 C 
ATOM      4  H   UNL     1      34.319 -16.575 -21.339  0.00  0.00    +0.155 HD
ENDROOT
BRANCH   3   7
ATOM      5  N   UNL     1      33.610 -15.408 -24.811  0.00  0.00    -0.232 N 
ATOM      6  N   UNL     1      33.327 -14.099 -24.934  0.00  0.00    -0.180 NA
ATOM      7  C   UNL     1      34.235 -15.671 -23.667  0.00  0.00    +0.120 C 
ATOM      8  C   UNL     1      34.402 -14.546 -22.967  0.00  0.00    +0.043 C 
ATOM      9  C   UNL     1      33.814 -13.578 -23.804  0.00  0.00    +0.119 C 
ATOM     10  H   UNL     1      33.382 -16.087 -25.486  0.00  0.00    +0.175 HD
ENDBRANCH   3   7
BRANCH   2  11
ATOM     11  C   UNL     1      34.922 -18.518 -21.291  0.00  0.00    +0.051 C 
ATOM     12  C   UNL     1      36.253 -18.836 -21.019  0.00  0.00    +0.015 C 
ATOM     13  C   UNL     1      33.906 -19.404 -20.932  0.00  0.00    +0.015 C 
ATOM     14  C   UNL     1      36.568 -20.039 -20.388  0.00  0.00    +0.001 C 
ATOM     15  C   UNL     1      34.221 -20.607 -20.301  0.00  0.00    +0.001 C 
ATOM     16  C   UNL     1      35.552 -20.926 -20.029  0.00  0.00    +0.000 C 
ENDBRANCH   2  11
TORSDOF 2
ENDMDL
MODEL 6
REMARK VINA RESULT:      -7.5      6.965     10.093
REMARK  Name = 680935
REMARK  2 active torsions:
REMARK  status: ('A' for Active; 'I' for Inactive)
REMARK    1  A    between atoms: N_2  and  C_11
REMARK    2  A    between atoms: C_3  and  C_7
REMARK                            x       y       z     vdW  Elec       q    Type
REMARK                         _______ _______ _______ _____ _____    ______ ____
ROOT
ATOM      1  O   UNL     1      35.905 -25.477 -15.688  0.00  0.00    -0.268 OA
ATOM      2  N   UNL     1      35.445 -23.194 -15.384  0.00  0.00    -0.279 N 
ATOM      3  C   UNL     1      35.721 -24.495 -14.976  0.00  0.00    +0.264 C 
ATOM      4  H   UNL     1      35.324 -22.527 -14.670  0.00  0.00    +0.155 HD
ENDROOT
BRANCH   3   7
ATOM      5  N   UNL     1      36.476 -25.701 -12.956  0.00  0.00    -0.232 N 
ATOM      6  N   UNL     1      36.433 -25.655 -11.613  0.00  0.00    -0.180 NA
ATOM      7  C   UNL     1      35.825 -24.679 -13.504  0.00  0.00    +0.120 C 
ATOM      8  C   UNL     1      35.312 -23.898 -12.550  0.00  0.00    +0.043 C 
ATOM      9  C   UNL     1      35.721 -24.551 -11.371  0.00  0.00    +0.119 C 
ATOM     10  H   UNL     1      36.934 -26.405 -13.470  0.00  0.00    +0.175 HD
ENDBRANCH   3   7
BRANCH   2  11
ATOM     11  C   UNL     1      35.318 -22.733 -16.694  0.00  0.00    +0.051 C 
ATOM     12  C   UNL     1      34.130 -22.938 -17.395  0.00  0.00    +0.015 C 
ATOM     13  C   UNL     1      36.381 -22.066 -17.305  0.00  0.00    +0.015 C 
ATOM     14  C   UNL     1      34.003 -22.476 -18.704  0.00  0.00    +0.001 C 
ATOM     15  C   UNL     1      36.255 -21.605 -18.615  0.00  0.00    +0.001 C 
ATOM     16  C   UNL     1      35.066 -21.810 -19.315  0.00  0.00    +0.000 C 
ENDBRANCH   2  11
TORSDOF 2
ENDMDL
MODEL 7
REMARK VINA RESULT:      -7.5      4.560      7.698
REMARK  Name = 680935
REMARK  2 active torsions:
REMARK  status: ('A' for Active; 'I' for Inactive)
REMARK    1  A    between atoms: N_2  and  C_11
REMARK    2  A    between atoms: C_3  and  C_7
REMARK                            x       y       z     vdW  Elec       q    Type
REMARK                         _______ _______ _______ _____ _____    ______ ____
ROOT
ATOM      1  O   UNL     1      37.198 -20.622 -17.389  0.00  0.00    -0.268 OA
ATOM      2  N   UNL     1      35.575 -22.060 -18.289  0.00  0.00    -0.279 N 
ATOM      3  C   UNL     1      36.588 -21.686 -17.414  0.00  0.00    +0.264 C 
ATOM      4  H   UNL     1      35.195 -22.960 -18.163  0.00  0.00    +0.155 HD
ENDROOT
BRANCH   3   7
ATOM      5  N   UNL     1      38.183 -23.062 -16.121  0.00  0.00    -0.232 N 
ATOM      6  N   UNL     1      38.241 -23.993 -15.153  0.00  0.00    -0.180 NA
ATOM      7  C   UNL     1      36.930 -22.702 -16.383  0.00  0.00    +0.120 C 
ATOM      8  C   UNL     1      36.085 -23.380 -15.600  0.00  0.00    +0.043 C 
ATOM      9  C   UNL     1      36.956 -24.184 -14.839  0.00  0.00    +0.119 C 
ATOM     10  H   UNL     1      38.972 -22.692 -16.578  0.00  0.00    +0.175 HD
ENDBRANCH   3   7
BRANCH   2  11
ATOM     11  C   UNL     1      35.039 -21.299 -19.329  0.00  0.00    +0.051 C 
ATOM     12  C   UNL     1      33.656 -21.205 -19.483  0.00  0.00    +0.015 C 
ATOM     13  C   UNL     1      35.886 -20.633 -20.215  0.00  0.00    +0.015 C 
ATOM     14  C   UNL     1      33.120 -20.445 -20.523  0.00  0.00    +0.001 C 
ATOM     15  C   UNL     1      35.351 -19.874 -21.255  0.00  0.00    +0.001 C 
ATOM     16  C   UNL     1      33.967 -19.780 -21.409  0.00  0.00    +0.000 C 
ENDBRANCH   2  11
TORSDOF 2
ENDMDL
MODEL 8
REMARK VINA RESULT:      -7.4      1.907      5.969
REMARK  Name = 680935
REMARK  2 active torsions:
REMARK  status: ('A' for Active; 'I' for Inactive)
REMARK    1  A    between atoms: N_2  and  C_11
REMARK    2  A    between atoms: C_3  and  C_7
REMARK                            x       y       z     vdW  Elec       q    Type
REMARK                         _______ _______ _______ _____ _____    ______ ____
ROOT
ATOM      1  O   UNL     1      34.392 -18.813 -22.852  0.00  0.00    -0.268 OA
ATOM      2  N   UNL     1      34.442 -17.262 -21.091  0.00  0.00    -0.279 N 
ATOM      3  C   UNL     1      34.606 -18.508 -21.684  0.00  0.00    +0.264 C 
ATOM      4  H   UNL     1      34.665 -17.198 -20.133  0.00  0.00    +0.155 HD
ENDROOT
BRANCH   3   7
ATOM      5  N   UNL     1      36.386 -19.573 -20.340  0.00  0.00    -0.232 N 
ATOM      6  N   UNL     1      36.627 -20.625 -19.539  0.00  0.00    -0.180 NA
ATOM      7  C   UNL     1      35.131 -19.566 -20.780  0.00  0.00    +0.120 C 
ATOM      8  C   UNL     1      34.469 -20.619 -20.292  0.00  0.00    +0.043 C 
ATOM      9  C   UNL     1      35.451 -21.260 -19.513  0.00  0.00    +0.119 C 
ATOM     10  H   UNL     1      37.057 -18.891 -20.573  0.00  0.00    +0.175 HD
ENDBRANCH   3   7
BRANCH   2  11
ATOM     11  C   UNL     1      33.994 -16.091 -21.704  0.00  0.00    +0.051 C 
ATOM     12  C   UNL     1      32.869 -15.431 -21.210  0.00  0.00    +0.015 C 
ATOM     13  C   UNL     1      34.673 -15.579 -22.811  0.00  0.00    +0.015 C 
ATOM     14  C   UNL     1      32.421 -14.261 -21.822  0.00  0.00    +0.001 C 
ATOM     15  C   UNL     1      34.225 -14.409 -23.424  0.00  0.00    +0.001 C 
ATOM     16  C   UNL     1      33.099 -13.750 -22.930  0.00  0.00    +0.000 C 
ENDBRANCH   2  11
TORSDOF 2
ENDMDL
MODEL 9
REMARK VINA RESULT:      -7.4      8.344     10.301
REMARK  Name = 680935
REMARK  2 active torsions:
REMARK  status: ('A' for Active; 'I' for Inactive)
REMARK    1  A    between atoms: N_2  and  C_11
REMARK    2  A    between atoms: C_3  and  C_7
REMARK                            x       y       z     vdW  Elec       q    Type
REMARK                         _______ _______ _______ _____ _____    ______ ____
ROOT
ATOM      1  O   UNL     1      35.831 -26.241 -15.640  0.00  0.00    -0.268 OA
ATOM      2  N   UNL     1      35.600 -23.986 -15.028  0.00  0.00    -0.279 N 
ATOM      3  C   UNL     1      36.268 -25.198 -15.167  0.00  0.00    +0.264 C 
ATOM      4  H   UNL     1      36.110 -23.247 -14.623  0.00  0.00    +0.155 HD
ENDROOT
BRANCH   3   7
ATOM      5  N   UNL     1      38.656 -24.601 -15.399  0.00  0.00    -0.232 N 
ATOM      6  N   UNL     1      39.845 -24.723 -14.785  0.00  0.00    -0.180 NA
ATOM      7  C   UNL     1      37.682 -25.187 -14.707  0.00  0.00    +0.120 C 
ATOM      8  C   UNL     1      38.178 -25.733 -13.593  0.00  0.00    +0.043 C 
ATOM      9  C   UNL     1      39.547 -25.416 -13.682  0.00  0.00    +0.119 C 
ATOM     10  H   UNL     1      38.521 -24.135 -16.255  0.00  0.00    +0.175 HD
ENDBRANCH   3   7
BRANCH   2  11
ATOM     11  C   UNL     1      34.285 -23.704 -15.398  0.00  0.00    +0.051 C 
ATOM     12  C   UNL     1      33.983 -23.401 -16.726  0.00  0.00    +0.015 C 
ATOM     13  C   UNL     1      33.271 -23.724 -14.441  0.00  0.00    +0.015 C 
ATOM     14  C   UNL     1      32.669 -23.119 -17.096  0.00  0.00    +0.001 C 
ATOM     15  C   UNL     1      31.956 -23.441 -14.810  0.00  0.00    +0.001 C 
ATOM     16  C   UNL     1      31.655 -23.138 -16.138  0.00  0.00    +0.000 C 
ENDBRANCH   2  11
TORSDOF 2
ENDMDL
