MODEL 1
REMARK VINA RESULT:      -7.6      0.000      0.000
REMARK  Name = 5859
REMARK  6 active torsions:
REMARK  status: ('A' for Active; 'I' for Inactive)
REMARK    1  A    between atoms: C_1  and  S_7
REMARK    2  A    between atoms: C_4  and  O_13
REMARK    3  A    between atoms: S_7  and  N_10
REMARK    4  A    between atoms: O_13  and  P_15
REMARK    5  A    between atoms: P_15  and  O_16
REMARK    6  A    between atoms: P_15  and  O_18
REMARK                            x       y       z     vdW  Elec       q    Type
REMARK                         _______ _______ _______ _____ _____    ______ ____
ROOT
ATOM      1  C   UNL     1      34.725 -22.833 -17.337  0.00  0.00    +0.122 C 
ATOM      2  C   UNL     1      36.040 -22.383 -17.225  0.00  0.00    +0.023 C 
ATOM      3  C   UNL     1      34.122 -23.501 -16.271  0.00  0.00    +0.023 C 
ATOM      4  C   UNL     1      36.148 -23.269 -14.986  0.00  0.00    +0.147 C 
ATOM      5  C   UNL     1      36.754 -22.602 -16.046  0.00  0.00    +0.039 C 
ATOM      6  C   UNL     1      34.835 -23.720 -15.092  0.00  0.00    +0.039 C 
ENDROOT
BRANCH   1   7
ATOM      7  S   UNL     1      33.832 -22.561 -18.813  0.00  0.00    +0.063 S 
ATOM      8  O   UNL     1      34.021 -23.719 -19.681  0.00  0.00    -0.153 OA
ATOM      9  O   UNL     1      32.470 -22.175 -18.457  0.00  0.00    -0.153 OA
BRANCH   7  10
ATOM     10  N   UNL     1      34.630 -21.199 -19.519  0.00  0.00    -0.153 NA
ATOM     11  C   UNL     1      35.958 -21.427 -20.143  0.00  0.00    +0.115 C 
ATOM     12  C   UNL     1      33.801 -20.251 -20.309  0.00  0.00    +0.115 C 
ENDBRANCH   7  10
ENDBRANCH   1   7
BRANCH   4  13
ATOM     13  O   UNL     1      36.847 -23.485 -13.830  0.00  0.00    -0.425 OA
BRANCH  13  15
ATOM     14  S   UNL     1      37.064 -26.477 -14.373  0.00  0.00    +0.036 S 
ATOM     15  P   UNL     1      37.542 -24.875 -13.368  0.00  0.00    +0.363 P 
BRANCH  15  16
ATOM     16  O   UNL     1      37.176 -24.895 -11.782  0.00  0.00    -0.286 OA
ATOM     17  C   UNL     1      35.929 -24.386 -11.339  0.00  0.00    +0.185 C 
ENDBRANCH  15  16
BRANCH  15  18
ATOM     18  O   UNL     1      39.116 -24.468 -13.317  0.00  0.00    -0.286 OA
ATOM     19  C   UNL     1      40.081 -25.306 -13.929  0.00  0.00    +0.185 C 
ENDBRANCH  15  18
ENDBRANCH  13  15
ENDBRANCH   4  13
TORSDOF 6
ENDMDL
MODEL 2
REMARK VINA RESULT:      -7.6      1.382      2.151
REMARK  Name = 5859
REMARK  6 active torsions:
REMARK  status: ('A' for Active; 'I' for Inactive)
REMARK    1  A    between atoms: C_1  and  S_7
REMARK    2  A    between atoms: C_4  and  O_13
REMARK    3  A    between atoms: S_7  and  N_10
REMARK    4  A    between atoms: O_13  and  P_15
REMARK    5  A    between atoms: P_15  and  O_16
REMARK    6  A    between atoms: P_15  and  O_18
REMARK                            x       y       z     vdW  Elec       q    Type
REMARK                         _______ _______ _______ _____ _____    ______ ____
ROOT
ATOM      1  C   UNL     1      34.865 -22.640 -17.588  0.00  0.00    +0.122 C 
ATOM      2  C   UNL     1      34.427 -23.321 -16.453  0.00  0.00    +0.023 C 
ATOM      3  C   UNL     1      36.168 -22.142 -17.644  0.00  0.00    +0.023 C 
ATOM      4  C   UNL     1      36.588 -23.005 -15.434  0.00  0.00    +0.147 C 
ATOM      5  C   UNL     1      35.291 -23.504 -15.372  0.00  0.00    +0.039 C 
ATOM      6  C   UNL     1      37.032 -22.326 -16.565  0.00  0.00    +0.039 C 
ENDROOT
BRANCH   1   7
ATOM      7  S   UNL     1      33.784 -22.409 -18.939  0.00  0.00    +0.063 S 
ATOM      8  O   UNL     1      33.980 -23.512 -19.875  0.00  0.00    -0.153 OA
ATOM      9  O   UNL     1      32.443 -22.174 -18.415  0.00  0.00    -0.153 OA
BRANCH   7  10
ATOM     10  N   UNL     1      34.360 -20.951 -19.669  0.00  0.00    -0.153 NA
ATOM     11  C   UNL     1      35.661 -21.006 -20.384  0.00  0.00    +0.115 C 
ATOM     12  C   UNL     1      33.370 -20.103 -20.383  0.00  0.00    +0.115 C 
ENDBRANCH   7  10
ENDBRANCH   1   7
BRANCH   4  13
ATOM     13  O   UNL     1      37.436 -23.184 -14.375  0.00  0.00    -0.425 OA
BRANCH  13  15
ATOM     14  S   UNL     1      36.740 -25.066 -12.079  0.00  0.00    +0.036 S 
ATOM     15  P   UNL     1      37.791 -24.591 -13.652  0.00  0.00    +0.363 P 
BRANCH  15  16
ATOM     16  O   UNL     1      39.393 -24.423 -13.412  0.00  0.00    -0.286 OA
ATOM     17  C   UNL     1      40.302 -25.270 -14.095  0.00  0.00    +0.185 C 
ENDBRANCH  15  16
BRANCH  15  18
ATOM     18  O   UNL     1      37.774 -25.630 -14.903  0.00  0.00    -0.286 OA
ATOM     19  C   UNL     1      36.947 -26.781 -14.853  0.00  0.00    +0.185 C 
ENDBRANCH  15  18
ENDBRANCH  13  15
ENDBRANCH   4  13
TORSDOF 6
ENDMDL
MODEL 3
REMARK VINA RESULT:      -7.2      3.057      4.055
REMARK  Name = 5859
REMARK  6 active torsions:
REMARK  status: ('A' for Active; 'I' for Inactive)
REMARK    1  A    between atoms: C_1  and  S_7
REMARK    2  A    between atoms: C_4  and  O_13
REMARK    3  A    between atoms: S_7  and  N_10
REMARK    4  A    between atoms: O_13  and  P_15
REMARK    5  A    between atoms: P_15  and  O_16
REMARK    6  A    between atoms: P_15  and  O_18
REMARK                            x       y       z     vdW  Elec       q    Type
REMARK                         _______ _______ _______ _____ _____    ______ ____
ROOT
ATOM      1  C   UNL     1      32.261 -23.364 -15.794  0.00  0.00    +0.122 C 
ATOM      2  C   UNL     1      33.033 -23.146 -16.934  0.00  0.00    +0.023 C 
ATOM      3  C   UNL     1      32.854 -23.872 -14.637  0.00  0.00    +0.023 C 
ATOM      4  C   UNL     1      34.983 -23.941 -15.763  0.00  0.00    +0.147 C 
ATOM      5  C   UNL     1      34.398 -23.436 -16.919  0.00  0.00    +0.039 C 
ATOM      6  C   UNL     1      34.218 -24.161 -14.621  0.00  0.00    +0.039 C 
ENDROOT
BRANCH   1   7
ATOM      7  S   UNL     1      30.553 -23.004 -15.813  0.00  0.00    +0.063 S 
ATOM      8  O   UNL     1      30.186 -22.463 -14.508  0.00  0.00    -0.153 OA
ATOM      9  O   UNL     1      30.269 -22.206 -17.000  0.00  0.00    -0.153 OA
BRANCH   7  10
ATOM     10  N   UNL     1      29.817 -24.559 -15.998  0.00  0.00    -0.153 NA
ATOM     11  C   UNL     1      29.889 -25.495 -14.847  0.00  0.00    +0.115 C 
ATOM     12  C   UNL     1      28.499 -24.617 -16.680  0.00  0.00    +0.115 C 
ENDBRANCH   7  10
ENDBRANCH   1   7
BRANCH   4  13
ATOM     13  O   UNL     1      36.321 -24.226 -15.747  0.00  0.00    -0.425 OA
BRANCH  13  15
ATOM     14  S   UNL     1      36.989 -26.138 -13.468  0.00  0.00    +0.036 S 
ATOM     15  P   UNL     1      37.241 -24.462 -14.433  0.00  0.00    +0.363 P 
BRANCH  15  16
ATOM     16  O   UNL     1      36.935 -23.103 -13.589  0.00  0.00    -0.286 OA
ATOM     17  C   UNL     1      36.928 -23.139 -12.172  0.00  0.00    +0.185 C 
ENDBRANCH  15  16
BRANCH  15  18
ATOM     18  O   UNL     1      38.732 -24.144 -15.000  0.00  0.00    -0.286 OA
ATOM     19  C   UNL     1      39.748 -25.128 -14.904  0.00  0.00    +0.185 C 
ENDBRANCH  15  18
ENDBRANCH  13  15
ENDBRANCH   4  13
TORSDOF 6
ENDMDL
MODEL 4
REMARK VINA RESULT:      -7.2      7.548     11.686
REMARK  Name = 5859
REMARK  6 active torsions:
REMARK  status: ('A' for Active; 'I' for Inactive)
REMARK    1  A    between atoms: C_1  and  S_7
REMARK    2  A    between atoms: C_4  and  O_13
REMARK    3  A    between atoms: S_7  and  N_10
REMARK    4  A    between atoms: O_13  and  P_15
REMARK    5  A    between atoms: P_15  and  O_16
REMARK    6  A    between atoms: P_15  and  O_18
REMARK                            x       y       z     vdW  Elec       q    Type
REMARK                         _______ _______ _______ _____ _____    ______ ____
ROOT
ATOM      1  C   UNL     1      34.460 -17.761 -22.039  0.00  0.00    +0.122 C 
ATOM      2  C   UNL     1      33.967 -16.882 -21.076  0.00  0.00    +0.023 C 
ATOM      3  C   UNL     1      34.951 -17.268 -23.249  0.00  0.00    +0.023 C 
ATOM      4  C   UNL     1      34.453 -15.023 -22.530  0.00  0.00    +0.147 C 
ATOM      5  C   UNL     1      33.963 -15.508 -21.322  0.00  0.00    +0.039 C 
ATOM      6  C   UNL     1      34.947 -15.895 -23.495  0.00  0.00    +0.039 C 
ENDROOT
BRANCH   1   7
ATOM      7  S   UNL     1      34.464 -19.480 -21.733  0.00  0.00    +0.063 S 
ATOM      8  O   UNL     1      33.165 -19.848 -21.179  0.00  0.00    -0.153 OA
ATOM      9  O   UNL     1      34.919 -20.158 -22.942  0.00  0.00    -0.153 OA
BRANCH   7  10
ATOM     10  N   UNL     1      35.667 -19.666 -20.503  0.00  0.00    -0.153 NA
ATOM     11  C   UNL     1      35.676 -20.937 -19.736  0.00  0.00    +0.115 C 
ATOM     12  C   UNL     1      37.041 -19.194 -20.812  0.00  0.00    +0.115 C 
ENDBRANCH   7  10
ENDBRANCH   1   7
BRANCH   4  13
ATOM     13  O   UNL     1      34.449 -13.676 -22.772  0.00  0.00    -0.425 OA
BRANCH  13  15
ATOM     14  S   UNL     1      33.830 -11.127 -24.328  0.00  0.00    +0.036 S 
ATOM     15  P   UNL     1      33.304 -12.841 -23.561  0.00  0.00    +0.363 P 
BRANCH  15  16
ATOM     16  O   UNL     1      32.128 -12.786 -22.436  0.00  0.00    -0.286 OA
ATOM     17  C   UNL     1      31.572 -11.538 -22.058  0.00  0.00    +0.185 C 
ENDBRANCH  15  16
BRANCH  15  18
ATOM     18  O   UNL     1      32.706 -13.962 -24.577  0.00  0.00    -0.286 OA
ATOM     19  C   UNL     1      33.054 -13.925 -25.951  0.00  0.00    +0.185 C 
ENDBRANCH  15  18
ENDBRANCH  13  15
ENDBRANCH   4  13
TORSDOF 6
ENDMDL
MODEL 5
REMARK VINA RESULT:      -7.1      7.481     11.626
REMARK  Name = 5859
REMARK  6 active torsions:
REMARK  status: ('A' for Active; 'I' for Inactive)
REMARK    1  A    between atoms: C_1  and  S_7
REMARK    2  A    between atoms: C_4  and  O_13
REMARK    3  A    between atoms: S_7  and  N_10
REMARK    4  A    between atoms: O_13  and  P_15
REMARK    5  A    between atoms: P_15  and  O_16
REMARK    6  A    between atoms: P_15  and  O_18
REMARK                            x       y       z     vdW  Elec       q    Type
REMARK                         _______ _______ _______ _____ _____    ______ ____
ROOT
ATOM      1  C   UNL     1      35.111 -17.819 -21.698  0.00  0.00    +0.122 C 
ATOM      2  C   UNL     1      34.819 -16.837 -20.752  0.00  0.00    +0.023 C 
ATOM      3  C   UNL     1      35.180 -17.486 -23.051  0.00  0.00    +0.023 C 
ATOM      4  C   UNL     1      34.666 -15.195 -22.510  0.00  0.00    +0.147 C 
ATOM      5  C   UNL     1      34.595 -15.520 -21.159  0.00  0.00    +0.039 C 
ATOM      6  C   UNL     1      34.958 -16.171 -23.458  0.00  0.00    +0.039 C 
ENDROOT
BRANCH   1   7
ATOM      7  S   UNL     1      35.388 -19.466 -21.189  0.00  0.00    +0.063 S 
ATOM      8  O   UNL     1      35.519 -20.296 -22.383  0.00  0.00    -0.153 OA
ATOM      9  O   UNL     1      36.480 -19.466 -20.221  0.00  0.00    -0.153 OA
BRANCH   7  10
ATOM     10  N   UNL     1      33.921 -19.887 -20.375  0.00  0.00    -0.153 NA
ATOM     11  C   UNL     1      32.643 -19.647 -21.093  0.00  0.00    +0.115 C 
ATOM     12  C   UNL     1      33.900 -21.164 -19.616  0.00  0.00    +0.115 C 
ENDBRANCH   7  10
ENDBRANCH   1   7
BRANCH   4  13
ATOM     13  O   UNL     1      34.446 -13.905 -22.910  0.00  0.00    -0.425 OA
BRANCH  13  15
ATOM     14  S   UNL     1      32.987 -14.259 -25.563  0.00  0.00    +0.036 S 
ATOM     15  P   UNL     1      33.227 -13.378 -23.840  0.00  0.00    +0.363 P 
BRANCH  15  16
ATOM     16  O   UNL     1      33.545 -11.782 -23.896  0.00  0.00    -0.286 OA
ATOM     17  C   UNL     1      34.203 -11.233 -25.026  0.00  0.00    +0.185 C 
ENDBRANCH  15  16
BRANCH  15  18
ATOM     18  O   UNL     1      31.973 -13.407 -22.805  0.00  0.00    -0.286 OA
ATOM     19  C   UNL     1      31.965 -12.541 -21.683  0.00  0.00    +0.185 C 
ENDBRANCH  15  18
ENDBRANCH  13  15
ENDBRANCH   4  13
TORSDOF 6
ENDMDL
MODEL 6
REMARK VINA RESULT:      -7.1      3.373      4.475
REMARK  Name = 5859
REMARK  6 active torsions:
REMARK  status: ('A' for Active; 'I' for Inactive)
REMARK    1  A    between atoms: C_1  and  S_7
REMARK    2  A    between atoms: C_4  and  O_13
REMARK    3  A    between atoms: S_7  and  N_10
REMARK    4  A    between atoms: O_13  and  P_15
REMARK    5  A    between atoms: P_15  and  O_16
REMARK    6  A    between atoms: P_15  and  O_18
REMARK                            x       y       z     vdW  Elec       q    Type
REMARK                         _______ _______ _______ _____ _____    ______ ____
ROOT
ATOM      1  C   UNL     1      32.006 -23.353 -15.347  0.00  0.00    +0.122 C 
ATOM      2  C   UNL     1      33.021 -23.526 -16.287  0.00  0.00    +0.023 C 
ATOM      3  C   UNL     1      32.272 -23.546 -13.990  0.00  0.00    +0.023 C 
ATOM      4  C   UNL     1      34.560 -24.083 -14.519  0.00  0.00    +0.147 C 
ATOM      5  C   UNL     1      34.302 -23.892 -15.873  0.00  0.00    +0.039 C 
ATOM      6  C   UNL     1      33.552 -23.911 -13.575  0.00  0.00    +0.039 C 
ENDROOT
BRANCH   1   7
ATOM      7  S   UNL     1      30.402 -22.897 -15.865  0.00  0.00    +0.063 S 
ATOM      8  O   UNL     1      29.752 -22.188 -14.767  0.00  0.00    -0.153 OA
ATOM      9  O   UNL     1      30.515 -22.225 -17.155  0.00  0.00    -0.153 OA
BRANCH   7  10
ATOM     10  N   UNL     1      29.608 -24.417 -16.095  0.00  0.00    -0.153 NA
ATOM     11  C   UNL     1      29.607 -25.372 -14.958  0.00  0.00    +0.115 C 
ATOM     12  C   UNL     1      28.308 -24.409 -16.815  0.00  0.00    +0.115 C 
ENDBRANCH   7  10
ENDBRANCH   1   7
BRANCH   4  13
ATOM     13  O   UNL     1      35.816 -24.442 -14.112  0.00  0.00    -0.425 OA
BRANCH  13  15
ATOM     14  S   UNL     1      37.101 -22.363 -15.935  0.00  0.00    +0.036 S 
ATOM     15  P   UNL     1      37.214 -23.785 -14.605  0.00  0.00    +0.363 P 
BRANCH  15  16
ATOM     16  O   UNL     1      38.043 -25.113 -15.053  0.00  0.00    -0.286 OA
ATOM     17  C   UNL     1      37.542 -26.400 -14.730  0.00  0.00    +0.185 C 
ENDBRANCH  15  16
BRANCH  15  18
ATOM     18  O   UNL     1      37.940 -23.430 -13.193  0.00  0.00    -0.286 OA
ATOM     19  C   UNL     1      37.154 -23.086 -12.064  0.00  0.00    +0.185 C 
ENDBRANCH  15  18
ENDBRANCH  13  15
ENDBRANCH   4  13
TORSDOF 6
ENDMDL
MODEL 7
REMARK VINA RESULT:      -7.0      3.295      4.850
REMARK  Name = 5859
REMARK  6 active torsions:
REMARK  status: ('A' for Active; 'I' for Inactive)
REMARK    1  A    between atoms: C_1  and  S_7
REMARK    2  A    between atoms: C_4  and  O_13
REMARK    3  A    between atoms: S_7  and  N_10
REMARK    4  A    between atoms: O_13  and  P_15
REMARK    5  A    between atoms: P_15  and  O_16
REMARK    6  A    between atoms: P_15  and  O_18
REMARK                            x       y       z     vdW  Elec       q    Type
REMARK                         _______ _______ _______ _____ _____    ______ ____
ROOT
ATOM      1  C   UNL     1      35.027 -20.172 -20.558  0.00  0.00    +0.122 C 
ATOM      2  C   UNL     1      33.769 -20.649 -20.192  0.00  0.00    +0.023 C 
ATOM      3  C   UNL     1      36.174 -20.702 -19.965  0.00  0.00    +0.023 C 
ATOM      4  C   UNL     1      34.804 -22.180 -18.644  0.00  0.00    +0.147 C 
ATOM      5  C   UNL     1      33.657 -21.656 -19.232  0.00  0.00    +0.039 C 
ATOM      6  C   UNL     1      36.062 -21.709 -19.006  0.00  0.00    +0.039 C 
ENDROOT
BRANCH   1   7
ATOM      7  S   UNL     1      35.168 -18.912 -21.758  0.00  0.00    +0.063 S 
ATOM      8  O   UNL     1      36.583 -18.591 -21.919  0.00  0.00    -0.153 OA
ATOM      9  O   UNL     1      34.410 -19.317 -22.937  0.00  0.00    -0.153 OA
BRANCH   7  10
ATOM     10  N   UNL     1      34.372 -17.565 -21.019  0.00  0.00    -0.153 NA
ATOM     11  C   UNL     1      34.899 -16.208 -21.314  0.00  0.00    +0.115 C 
ATOM     12  C   UNL     1      32.887 -17.586 -20.974  0.00  0.00    +0.115 C 
ENDBRANCH   7  10
ENDBRANCH   1   7
BRANCH   4  13
ATOM     13  O   UNL     1      34.694 -23.167 -17.703  0.00  0.00    -0.425 OA
BRANCH  13  15
ATOM     14  S   UNL     1      37.030 -22.166 -16.017  0.00  0.00    +0.036 S 
ATOM     15  P   UNL     1      35.374 -23.174 -16.231  0.00  0.00    +0.363 P 
BRANCH  15  16
ATOM     16  O   UNL     1      35.472 -24.773 -15.940  0.00  0.00    -0.286 OA
ATOM     17  C   UNL     1      36.387 -25.260 -14.973  0.00  0.00    +0.185 C 
ENDBRANCH  15  16
BRANCH  15  18
ATOM     18  O   UNL     1      34.122 -22.763 -15.276  0.00  0.00    -0.286 OA
ATOM     19  C   UNL     1      32.844 -23.332 -15.507  0.00  0.00    +0.185 C 
ENDBRANCH  15  18
ENDBRANCH  13  15
ENDBRANCH   4  13
TORSDOF 6
ENDMDL
MODEL 8
REMARK VINA RESULT:      -7.0      3.780      6.918
REMARK  Name = 5859
REMARK  6 active torsions:
REMARK  status: ('A' for Active; 'I' for Inactive)
REMARK    1  A    between atoms: C_1  and  S_7
REMARK    2  A    between atoms: C_4  and  O_13
REMARK    3  A    between atoms: S_7  and  N_10
REMARK    4  A    between atoms: O_13  and  P_15
REMARK    5  A    between atoms: P_15  and  O_16
REMARK    6  A    between atoms: P_15  and  O_18
REMARK                            x       y       z     vdW  Elec       q    Type
REMARK                         _______ _______ _______ _____ _____    ______ ____
ROOT
ATOM      1  C   UNL     1      35.937 -23.709 -15.028  0.00  0.00    +0.122 C 
ATOM      2  C   UNL     1      34.822 -24.194 -14.345  0.00  0.00    +0.023 C 
ATOM      3  C   UNL     1      35.779 -23.084 -16.266  0.00  0.00    +0.023 C 
ATOM      4  C   UNL     1      33.399 -23.432 -16.134  0.00  0.00    +0.147 C 
ATOM      5  C   UNL     1      33.548 -24.055 -14.900  0.00  0.00    +0.039 C 
ATOM      6  C   UNL     1      34.507 -22.945 -16.820  0.00  0.00    +0.039 C 
ENDROOT
BRANCH   1   7
ATOM      7  S   UNL     1      37.530 -23.884 -14.335  0.00  0.00    +0.063 S 
ATOM      8  O   UNL     1      38.512 -23.525 -15.353  0.00  0.00    -0.153 OA
ATOM      9  O   UNL     1      37.554 -23.170 -13.063  0.00  0.00    -0.153 OA
BRANCH   7  10
ATOM     10  N   UNL     1      37.646 -25.582 -14.023  0.00  0.00    -0.153 NA
ATOM     11  C   UNL     1      37.261 -26.061 -12.671  0.00  0.00    +0.115 C 
ATOM     12  C   UNL     1      37.191 -26.509 -15.091  0.00  0.00    +0.115 C 
ENDBRANCH   7  10
ENDBRANCH   1   7
BRANCH   4  13
ATOM     13  O   UNL     1      32.151 -23.295 -16.679  0.00  0.00    -0.425 OA
BRANCH  13  15
ATOM     14  S   UNL     1      30.792 -22.557 -14.051  0.00  0.00    +0.036 S 
ATOM     15  P   UNL     1      30.745 -23.256 -15.871  0.00  0.00    +0.363 P 
BRANCH  15  16
ATOM     16  O   UNL     1      30.254 -24.801 -16.026  0.00  0.00    -0.286 OA
ATOM     17  C   UNL     1      29.850 -25.532 -14.881  0.00  0.00    +0.185 C 
ENDBRANCH  15  16
BRANCH  15  18
ATOM     18  O   UNL     1      29.763 -22.511 -16.932  0.00  0.00    -0.286 OA
ATOM     19  C   UNL     1      28.367 -22.748 -16.886  0.00  0.00    +0.185 C 
ENDBRANCH  15  18
ENDBRANCH  13  15
ENDBRANCH   4  13
TORSDOF 6
ENDMDL
MODEL 9
REMARK VINA RESULT:      -6.9     12.233     15.594
REMARK  Name = 5859
REMARK  6 active torsions:
REMARK  status: ('A' for Active; 'I' for Inactive)
REMARK    1  A    between atoms: C_1  and  S_7
REMARK    2  A    between atoms: C_4  and  O_13
REMARK    3  A    between atoms: S_7  and  N_10
REMARK    4  A    between atoms: O_13  and  P_15
REMARK    5  A    between atoms: P_15  and  O_16
REMARK    6  A    between atoms: P_15  and  O_18
REMARK                            x       y       z     vdW  Elec       q    Type
REMARK                         _______ _______ _______ _____ _____    ______ ____
ROOT
ATOM      1  C   UNL     1      33.176 -12.748 -23.087  0.00  0.00    +0.122 C 
ATOM      2  C   UNL     1      33.874 -11.910 -23.956  0.00  0.00    +0.023 C 
ATOM      3  C   UNL     1      32.146 -12.234 -22.298  0.00  0.00    +0.023 C 
ATOM      4  C   UNL     1      32.515 -10.050 -23.248  0.00  0.00    +0.147 C 
ATOM      5  C   UNL     1      33.542 -10.557 -24.037  0.00  0.00    +0.039 C 
ATOM      6  C   UNL     1      31.814 -10.882 -22.379  0.00  0.00    +0.039 C 
ENDROOT
BRANCH   1   7
ATOM      7  S   UNL     1      33.592 -14.441 -22.985  0.00  0.00    +0.063 S 
ATOM      8  O   UNL     1      34.894 -14.553 -22.335  0.00  0.00    -0.153 OA
ATOM      9  O   UNL     1      32.461 -15.153 -22.400  0.00  0.00    -0.153 OA
BRANCH   7  10
ATOM     10  N   UNL     1      33.753 -14.915 -24.640  0.00  0.00    -0.153 NA
ATOM     11  C   UNL     1      34.162 -16.315 -24.918  0.00  0.00    +0.115 C 
ATOM     12  C   UNL     1      32.718 -14.439 -25.594  0.00  0.00    +0.115 C 
ENDBRANCH   7  10
ENDBRANCH   1   7
BRANCH   4  13
ATOM     13  O   UNL     1      32.189  -8.724 -23.326  0.00  0.00    -0.425 OA
BRANCH  13  15
ATOM     14  S   UNL     1      32.602  -7.722 -20.476  0.00  0.00    +0.036 S 
ATOM     15  P   UNL     1      32.787  -7.529 -22.408  0.00  0.00    +0.363 P 
BRANCH  15  16
ATOM     16  O   UNL     1      32.053  -6.232 -23.066  0.00  0.00    -0.286 OA
ATOM     17  C   UNL     1      31.160  -5.455 -22.285  0.00  0.00    +0.185 C 
ENDBRANCH  15  16
BRANCH  15  18
ATOM     18  O   UNL     1      34.293  -7.365 -23.001  0.00  0.00    -0.286 OA
ATOM     19  C   UNL     1      34.480  -6.986 -24.354  0.00  0.00    +0.185 C 
ENDBRANCH  15  18
ENDBRANCH  13  15
ENDBRANCH   4  13
TORSDOF 6
ENDMDL
