MODEL 1
REMARK VINA RESULT:      -7.9      0.000      0.000
REMARK  Name = 5479537
REMARK  7 active torsions:
REMARK  status: ('A' for Active; 'I' for Inactive)
REMARK    1  A    between atoms: C_4  and  C_29
REMARK    2  A    between atoms: CA_6  and  N_11
REMARK    3  A    between atoms: CA_7  and  C_28
REMARK    4  A    between atoms: C_12  and  C_15
REMARK    5  A    between atoms: N_14  and  O_24
REMARK    6  A    between atoms: C_15  and  C_19
REMARK    7  A    between atoms: C_29  and  N_30
REMARK                            x       y       z     vdW  Elec       q    Type
REMARK                         _______ _______ _______ _____ _____    ______ ____
ROOT
ATOM      1  S   UNL     1      33.786 -12.207 -24.206  0.00  0.00    -0.114 S 
ATOM      2  O   UNL     1      31.900 -12.438 -19.962  0.00  0.00    -0.273 OA
ATOM      3  N   UNL     1      32.752 -13.255 -22.000  0.00  0.00    -0.242 N 
ATOM      4  C   UNL     1      34.327 -14.702 -23.000  0.00  0.00    -0.034 C 
ATOM      5  C   UNL     1      32.322 -12.634 -23.238  0.00  0.00    +0.155 C 
ATOM      6  CA  UNL     1      31.728 -11.514 -22.354  0.00  0.00    +0.179 C 
ATOM      7  CA  UNL     1      33.594 -14.318 -21.929  0.00  0.00    +0.126 C 
ATOM      8  C   UNL     1      34.351 -13.939 -24.322  0.00  0.00    +0.081 C 
ATOM      9  C   UNL     1      32.075 -12.448 -21.157  0.00  0.00    +0.251 C 
ENDROOT
BRANCH   6  11
ATOM     10  O   UNL     1      30.745  -8.898 -23.292  0.00  0.00    -0.268 OA
ATOM     11  N   UNL     1      32.413 -10.223 -22.306  0.00  0.00    -0.291 N 
ATOM     12  C   UNL     1      31.843  -9.055 -22.782  0.00  0.00    +0.269 C 
ATOM     13  H   UNL     1      33.317 -10.183 -21.918  0.00  0.00    +0.150 HD
BRANCH  12  15
ATOM     14  N   UNL     1      33.185  -7.520 -21.453  0.00  0.00    -0.076 NA
ATOM     15  C   UNL     1      32.741  -7.855 -22.626  0.00  0.00    +0.198 C 
BRANCH  15  19
ATOM     16  S   UNL     1      34.408  -6.026 -25.721  0.00  0.00    -0.060 S 
ATOM     17  N   UNL     1      32.259  -6.090 -24.286  0.00  0.00    -0.383 NA
ATOM     18  N   UNL     1      32.250  -4.507 -26.042  0.00  0.00    -0.328 N 
ATOM     19  C   UNL     1      33.128  -7.038 -23.781  0.00  0.00    +0.148 C 
ATOM     20  C   UNL     1      34.341  -7.149 -24.428  0.00  0.00    +0.127 C 
ATOM     21  C   UNL     1      32.829  -5.494 -25.310  0.00  0.00    +0.204 C 
ATOM     22  H   UNL     1      32.735  -4.105 -26.798  0.00  0.00    +0.145 HD
ATOM     23  H   UNL     1      31.344  -4.194 -25.816  0.00  0.00    +0.145 HD
ENDBRANCH  15  19
BRANCH  14  24
ATOM     24  O   UNL     1      32.724  -8.390 -20.454  0.00  0.00    -0.373 OA
ATOM     25  C   UNL     1      31.930  -7.639 -19.549  0.00  0.00    +0.288 C 
ENDBRANCH  14  24
ENDBRANCH  12  15
ENDBRANCH   6  11
BRANCH   7  28
ATOM     26  O   UNL     1      34.886 -15.039 -20.107  0.00  0.00    -0.239 OA
ATOM     27  OXT UNL     1      32.660 -15.562 -20.172  0.00  0.00    -0.239 OA
ATOM     28  C   UNL     1      33.727 -15.049 -20.598  0.00  0.00    +0.401 C 
ENDBRANCH   7  28
BRANCH   4  29
ATOM     29  C   UNL     1      35.269 -15.883 -23.020  0.00  0.00    -0.048 C 
BRANCH  29  30
ATOM     30  N   UNL     1      34.595 -17.154 -23.515  0.00  0.00    +0.391 N 
ATOM     31  C   UNL     1      33.562 -17.656 -22.485  0.00  0.00    -0.073 C 
ATOM     32  C   UNL     1      35.631 -18.289 -23.657  0.00  0.00    -0.073 C 
ATOM     33  C   UNL     1      34.217 -18.863 -21.843  0.00  0.00    -0.024 C 
ATOM     34  C   UNL     1      34.983 -19.486 -22.988  0.00  0.00    -0.024 C 
ATOM     35  C   UNL     1      33.919 -16.877 -24.849  0.00  0.00    -0.095 C 
ENDBRANCH  29  30
ENDBRANCH   4  29
TORSDOF 7
ENDMDL
MODEL 2
REMARK VINA RESULT:      -7.9      2.667      9.314
REMARK  Name = 5479537
REMARK  7 active torsions:
REMARK  status: ('A' for Active; 'I' for Inactive)
REMARK    1  A    between atoms: C_4  and  C_29
REMARK    2  A    between atoms: CA_6  and  N_11
REMARK    3  A    between atoms: CA_7  and  C_28
REMARK    4  A    between atoms: C_12  and  C_15
REMARK    5  A    between atoms: N_14  and  O_24
REMARK    6  A    between atoms: C_15  and  C_19
REMARK    7  A    between atoms: C_29  and  N_30
REMARK                            x       y       z     vdW  Elec       q    Type
REMARK                         _______ _______ _______ _____ _____    ______ ____
ROOT
ATOM      1  S   UNL     1      31.470 -10.043 -22.332  0.00  0.00    -0.114 S 
ATOM      2  O   UNL     1      35.403 -10.253 -24.805  0.00  0.00    -0.273 OA
ATOM      3  N   UNL     1      33.417  -9.299 -23.973  0.00  0.00    -0.242 N 
ATOM      4  C   UNL     1      32.484  -7.456 -22.831  0.00  0.00    -0.034 C 
ATOM      5  C   UNL     1      32.202 -10.090 -23.983  0.00  0.00    +0.155 C 
ATOM      6  CA  UNL     1      33.110 -11.300 -24.301  0.00  0.00    +0.179 C 
ATOM      7  CA  UNL     1      33.488  -8.012 -23.549  0.00  0.00    +0.126 C 
ATOM      8  C   UNL     1      31.257  -8.230 -22.358  0.00  0.00    +0.081 C 
ATOM      9  C   UNL     1      34.243 -10.244 -24.466  0.00  0.00    +0.251 C 
ENDROOT
BRANCH   6  11
ATOM     10  O   UNL     1      32.119 -14.069 -24.103  0.00  0.00    -0.268 OA
ATOM     11  N   UNL     1      33.370 -12.277 -23.246  0.00  0.00    -0.291 N 
ATOM     12  C   UNL     1      32.843 -13.557 -23.264  0.00  0.00    +0.269 C 
ATOM     13  H   UNL     1      33.944 -12.014 -22.490  0.00  0.00    +0.150 HD
BRANCH  12  15
ATOM     14  N   UNL     1      32.830 -14.056 -20.882  0.00  0.00    -0.076 NA
ATOM     15  C   UNL     1      33.248 -14.379 -22.068  0.00  0.00    +0.198 C 
BRANCH  15  19
ATOM     16  S   UNL     1      35.628 -17.358 -23.150  0.00  0.00    -0.060 S 
ATOM     17  N   UNL     1      34.441 -16.315 -21.104  0.00  0.00    -0.383 NA
ATOM     18  N   UNL     1      35.734 -18.241 -20.644  0.00  0.00    -0.328 N 
ATOM     19  C   UNL     1      34.122 -15.549 -22.208  0.00  0.00    +0.148 C 
ATOM     20  C   UNL     1      34.672 -15.957 -23.405  0.00  0.00    +0.127 C 
ATOM     21  C   UNL     1      35.230 -17.297 -21.482  0.00  0.00    +0.204 C 
ATOM     22  H   UNL     1      36.320 -18.949 -20.996  0.00  0.00    +0.145 HD
ATOM     23  H   UNL     1      35.513 -18.217 -19.685  0.00  0.00    +0.145 HD
ENDBRANCH  15  19
BRANCH  14  24
ATOM     24  O   UNL     1      32.013 -12.917 -20.911  0.00  0.00    -0.373 OA
ATOM     25  C   UNL     1      32.026 -12.333 -19.618  0.00  0.00    +0.288 C 
ENDBRANCH  14  24
ENDBRANCH  12  15
ENDBRANCH   6  11
BRANCH   7  28
ATOM     26  O   UNL     1      35.688  -7.367 -23.044  0.00  0.00    -0.239 OA
ATOM     27  OXT UNL     1      34.673  -6.508 -24.905  0.00  0.00    -0.239 OA
ATOM     28  C   UNL     1      34.747  -7.212 -23.866  0.00  0.00    +0.401 C 
ENDBRANCH   7  28
BRANCH   4  29
ATOM     29  C   UNL     1      32.466  -6.027 -22.338  0.00  0.00    -0.048 C 
BRANCH  29  30
ATOM     30  N   UNL     1      31.335  -5.216 -22.953  0.00  0.00    +0.391 N 
ATOM     31  C   UNL     1      30.997  -5.741 -24.363  0.00  0.00    -0.073 C 
ATOM     32  C   UNL     1      31.772  -3.748 -23.145  0.00  0.00    -0.073 C 
ATOM     33  C   UNL     1      31.570  -4.701 -25.306  0.00  0.00    -0.024 C 
ATOM     34  C   UNL     1      31.349  -3.404 -24.560  0.00  0.00    -0.024 C 
ATOM     35  C   UNL     1      30.113  -5.297 -22.052  0.00  0.00    -0.095 C 
ENDBRANCH  29  30
ENDBRANCH   4  29
TORSDOF 7
ENDMDL
MODEL 3
REMARK VINA RESULT:      -7.8      9.898     15.110
REMARK  Name = 5479537
REMARK  7 active torsions:
REMARK  status: ('A' for Active; 'I' for Inactive)
REMARK    1  A    between atoms: C_4  and  C_29
REMARK    2  A    between atoms: CA_6  and  N_11
REMARK    3  A    between atoms: CA_7  and  C_28
REMARK    4  A    between atoms: C_12  and  C_15
REMARK    5  A    between atoms: N_14  and  O_24
REMARK    6  A    between atoms: C_15  and  C_19
REMARK    7  A    between atoms: C_29  and  N_30
REMARK                            x       y       z     vdW  Elec       q    Type
REMARK                         _______ _______ _______ _____ _____    ______ ____
ROOT
ATOM      1  S   UNL     1      37.163 -22.078 -16.532  0.00  0.00    -0.114 S 
ATOM      2  O   UNL     1      32.956 -24.056 -16.430  0.00  0.00    -0.273 OA
ATOM      3  N   UNL     1      34.634 -22.572 -17.158  0.00  0.00    -0.242 N 
ATOM      4  C   UNL     1      35.861 -21.799 -19.021  0.00  0.00    -0.034 C 
ATOM      5  C   UNL     1      35.409 -21.850 -16.168  0.00  0.00    +0.155 C 
ATOM      6  CA  UNL     1      34.790 -22.812 -15.127  0.00  0.00    +0.179 C 
ATOM      7  CA  UNL     1      34.779 -22.424 -18.500  0.00  0.00    +0.126 C 
ATOM      8  C   UNL     1      37.035 -21.305 -18.181  0.00  0.00    +0.081 C 
ATOM      9  C   UNL     1      33.885 -23.294 -16.300  0.00  0.00    +0.251 C 
ENDROOT
BRANCH   6  11
ATOM     10  O   UNL     1      36.619 -22.643 -12.823  0.00  0.00    -0.268 OA
ATOM     11  N   UNL     1      35.629 -23.867 -14.563  0.00  0.00    -0.291 N 
ATOM     12  C   UNL     1      36.453 -23.664 -13.470  0.00  0.00    +0.269 C 
ATOM     13  H   UNL     1      35.606 -24.760 -14.978  0.00  0.00    +0.150 HD
BRANCH  12  15
ATOM     14  N   UNL     1      36.779 -25.667 -12.126  0.00  0.00    -0.076 NA
ATOM     15  C   UNL     1      37.222 -24.898 -13.074  0.00  0.00    +0.198 C 
BRANCH  15  19
ATOM     16  S   UNL     1      40.410 -25.396 -15.376  0.00  0.00    -0.060 S 
ATOM     17  N   UNL     1      39.332 -26.180 -13.161  0.00  0.00    -0.383 NA
ATOM     18  N   UNL     1      41.419 -27.166 -13.669  0.00  0.00    -0.328 N 
ATOM     19  C   UNL     1      38.480 -25.258 -13.737  0.00  0.00    +0.148 C 
ATOM     20  C   UNL     1      38.894 -24.723 -14.939  0.00  0.00    +0.127 C 
ATOM     21  C   UNL     1      40.382 -26.331 -13.938  0.00  0.00    +0.204 C 
ATOM     22  H   UNL     1      42.175 -27.230 -14.297  0.00  0.00    +0.145 HD
ATOM     23  H   UNL     1      41.416 -27.709 -12.847  0.00  0.00    +0.145 HD
ENDBRANCH  15  19
BRANCH  14  24
ATOM     24  O   UNL     1      35.576 -25.190 -11.589  0.00  0.00    -0.373 OA
ATOM     25  C   UNL     1      35.849 -24.656 -10.302  0.00  0.00    +0.288 C 
ENDBRANCH  14  24
ENDBRANCH  12  15
ENDBRANCH   6  11
BRANCH   7  28
ATOM     26  O   UNL     1      33.950 -24.184 -19.813  0.00  0.00    -0.239 OA
ATOM     27  OXT UNL     1      32.737 -22.252 -19.644  0.00  0.00    -0.239 OA
ATOM     28  C   UNL     1      33.711 -23.014 -19.414  0.00  0.00    +0.401 C 
ENDBRANCH   7  28
BRANCH   4  29
ATOM     29  C   UNL     1      36.094 -21.568 -20.496  0.00  0.00    -0.048 C 
BRANCH  29  30
ATOM     30  N   UNL     1      35.833 -20.126 -20.905  0.00  0.00    +0.391 N 
ATOM     31  C   UNL     1      34.565 -19.588 -20.212  0.00  0.00    -0.073 C 
ATOM     32  C   UNL     1      35.550 -20.042 -22.420  0.00  0.00    -0.073 C 
ATOM     33  C   UNL     1      33.516 -19.550 -21.306  0.00  0.00    -0.024 C 
ATOM     34  C   UNL     1      34.316 -19.169 -22.532  0.00  0.00    -0.024 C 
ATOM     35  C   UNL     1      37.038 -19.275 -20.538  0.00  0.00    -0.095 C 
ENDBRANCH  29  30
ENDBRANCH   4  29
TORSDOF 7
ENDMDL
MODEL 4
REMARK VINA RESULT:      -7.6      1.715      2.212
REMARK  Name = 5479537
REMARK  7 active torsions:
REMARK  status: ('A' for Active; 'I' for Inactive)
REMARK    1  A    between atoms: C_4  and  C_29
REMARK    2  A    between atoms: CA_6  and  N_11
REMARK    3  A    between atoms: CA_7  and  C_28
REMARK    4  A    between atoms: C_12  and  C_15
REMARK    5  A    between atoms: N_14  and  O_24
REMARK    6  A    between atoms: C_15  and  C_19
REMARK    7  A    between atoms: C_29  and  N_30
REMARK                            x       y       z     vdW  Elec       q    Type
REMARK                         _______ _______ _______ _____ _____    ______ ____
ROOT
ATOM      1  S   UNL     1      33.428 -13.254 -24.770  0.00  0.00    -0.114 S 
ATOM      2  O   UNL     1      32.224 -12.302 -20.380  0.00  0.00    -0.273 OA
ATOM      3  N   UNL     1      32.831 -13.647 -22.215  0.00  0.00    -0.242 N 
ATOM      4  C   UNL     1      34.358 -15.260 -23.014  0.00  0.00    -0.034 C 
ATOM      5  C   UNL     1      32.168 -13.436 -23.488  0.00  0.00    +0.155 C 
ATOM      6  CA  UNL     1      31.617 -12.130 -22.872  0.00  0.00    +0.179 C 
ATOM      7  CA  UNL     1      33.763 -14.607 -21.989  0.00  0.00    +0.126 C 
ATOM      8  C   UNL     1      34.119 -14.919 -24.483  0.00  0.00    +0.081 C 
ATOM      9  C   UNL     1      32.219 -12.656 -21.535  0.00  0.00    +0.251 C 
ENDROOT
BRANCH   6  11
ATOM     10  O   UNL     1      31.502  -9.524 -21.500  0.00  0.00    -0.268 OA
ATOM     11  N   UNL     1      32.186 -10.856 -23.307  0.00  0.00    -0.291 N 
ATOM     12  C   UNL     1      32.064  -9.690 -22.570  0.00  0.00    +0.269 C 
ATOM     13  H   UNL     1      32.677 -10.825 -24.161  0.00  0.00    +0.150 HD
BRANCH  12  15
ATOM     14  N   UNL     1      33.924  -8.623 -23.721  0.00  0.00    -0.076 NA
ATOM     15  C   UNL     1      32.730  -8.507 -23.223  0.00  0.00    +0.198 C 
BRANCH  15  19
ATOM     16  S   UNL     1      31.120  -5.007 -24.150  0.00  0.00    -0.060 S 
ATOM     17  N   UNL     1      31.454  -6.661 -22.192  0.00  0.00    -0.383 NA
ATOM     18  N   UNL     1      30.253  -4.696 -21.656  0.00  0.00    -0.328 N 
ATOM     19  C   UNL     1      32.059  -7.206 -23.308  0.00  0.00    +0.148 C 
ATOM     20  C   UNL     1      31.982  -6.456 -24.463  0.00  0.00    +0.127 C 
ATOM     21  C   UNL     1      30.926  -5.502 -22.519  0.00  0.00    +0.204 C 
ATOM     22  H   UNL     1      29.883  -3.840 -21.969  0.00  0.00    +0.145 HD
ATOM     23  H   UNL     1      30.135  -4.969 -20.717  0.00  0.00    +0.145 HD
ENDBRANCH  15  19
BRANCH  14  24
ATOM     24  O   UNL     1      34.432  -9.919 -23.558  0.00  0.00    -0.373 OA
ATOM     25  C   UNL     1      35.336 -10.175 -24.622  0.00  0.00    +0.288 C 
ENDBRANCH  14  24
ENDBRANCH  12  15
ENDBRANCH   6  11
BRANCH   7  28
ATOM     26  O   UNL     1      33.304 -15.569 -19.897  0.00  0.00    -0.239 OA
ATOM     27  OXT UNL     1      35.280 -14.458 -20.204  0.00  0.00    -0.239 OA
ATOM     28  C   UNL     1      34.157 -14.909 -20.547  0.00  0.00    +0.401 C 
ENDBRANCH   7  28
BRANCH   4  29
ATOM     29  C   UNL     1      35.387 -16.356 -22.856  0.00  0.00    -0.048 C 
BRANCH  29  30
ATOM     30  N   UNL     1      34.797 -17.741 -23.077  0.00  0.00    +0.391 N 
ATOM     31  C   UNL     1      33.527 -17.931 -22.222  0.00  0.00    -0.073 C 
ATOM     32  C   UNL     1      35.787 -18.827 -22.607  0.00  0.00    -0.073 C 
ATOM     33  C   UNL     1      33.958 -18.855 -21.099  0.00  0.00    -0.024 C 
ATOM     34  C   UNL     1      34.948 -19.777 -21.775  0.00  0.00    -0.024 C 
ATOM     35  C   UNL     1      34.471 -17.917 -24.552  0.00  0.00    -0.095 C 
ENDBRANCH  29  30
ENDBRANCH   4  29
TORSDOF 7
ENDMDL
MODEL 5
REMARK VINA RESULT:      -7.2      7.435     12.452
REMARK  Name = 5479537
REMARK  7 active torsions:
REMARK  status: ('A' for Active; 'I' for Inactive)
REMARK    1  A    between atoms: C_4  and  C_29
REMARK    2  A    between atoms: CA_6  and  N_11
REMARK    3  A    between atoms: CA_7  and  C_28
REMARK    4  A    between atoms: C_12  and  C_15
REMARK    5  A    between atoms: N_14  and  O_24
REMARK    6  A    between atoms: C_15  and  C_19
REMARK    7  A    between atoms: C_29  and  N_30
REMARK                            x       y       z     vdW  Elec       q    Type
REMARK                         _______ _______ _______ _____ _____    ______ ____
ROOT
ATOM      1  S   UNL     1      32.627 -20.168 -20.044  0.00  0.00    -0.114 S 
ATOM      2  O   UNL     1      36.649 -22.193 -18.885  0.00  0.00    -0.273 OA
ATOM      3  N   UNL     1      35.184 -20.861 -20.160  0.00  0.00    -0.242 N 
ATOM      4  C   UNL     1      34.818 -18.717 -21.077  0.00  0.00    -0.034 C 
ATOM      5  C   UNL     1      33.878 -21.388 -20.503  0.00  0.00    +0.155 C 
ATOM      6  CA  UNL     1      34.166 -22.502 -19.471  0.00  0.00    +0.179 C 
ATOM      7  CA  UNL     1      35.650 -19.651 -20.562  0.00  0.00    +0.126 C 
ATOM      8  C   UNL     1      33.304 -18.892 -21.161  0.00  0.00    +0.081 C 
ATOM      9  C   UNL     1      35.605 -21.907 -19.420  0.00  0.00    +0.251 C 
ENDROOT
BRANCH   6  11
ATOM     10  O   UNL     1      33.806 -24.691 -17.530  0.00  0.00    -0.268 OA
ATOM     11  N   UNL     1      33.471 -22.462 -18.185  0.00  0.00    -0.291 N 
ATOM     12  C   UNL     1      33.369 -23.565 -17.355  0.00  0.00    +0.269 C 
ATOM     13  H   UNL     1      33.060 -21.615 -17.897  0.00  0.00    +0.150 HD
BRANCH  12  15
ATOM     14  N   UNL     1      33.233 -22.881 -15.023  0.00  0.00    -0.076 NA
ATOM     15  C   UNL     1      32.605 -23.280 -16.088  0.00  0.00    +0.198 C 
BRANCH  15  19
ATOM     16  S   UNL     1      28.820 -24.218 -15.382  0.00  0.00    -0.060 S 
ATOM     17  N   UNL     1      30.325 -22.721 -16.856  0.00  0.00    -0.383 NA
ATOM     18  N   UNL     1      28.004 -22.515 -17.253  0.00  0.00    -0.328 N 
ATOM     19  C   UNL     1      31.150 -23.449 -16.020  0.00  0.00    +0.148 C 
ATOM     20  C   UNL     1      30.516 -24.312 -15.152  0.00  0.00    +0.127 C 
ATOM     21  C   UNL     1      29.076 -23.045 -16.608  0.00  0.00    +0.204 C 
ATOM     22  H   UNL     1      27.094 -22.804 -17.016  0.00  0.00    +0.145 HD
ATOM     23  H   UNL     1      28.137 -21.841 -17.958  0.00  0.00    +0.145 HD
ENDBRANCH  15  19
BRANCH  14  24
ATOM     24  O   UNL     1      34.614 -22.775 -15.243  0.00  0.00    -0.373 OA
ATOM     25  C   UNL     1      35.278 -23.532 -14.243  0.00  0.00    +0.288 C 
ENDBRANCH  14  24
ENDBRANCH  12  15
ENDBRANCH   6  11
BRANCH   7  28
ATOM     26  O   UNL     1      37.759 -19.135 -21.455  0.00  0.00    -0.239 OA
ATOM     27  OXT UNL     1      37.531 -19.357 -19.190  0.00  0.00    -0.239 OA
ATOM     28  C   UNL     1      37.134 -19.350 -20.383  0.00  0.00    +0.401 C 
ENDBRANCH   7  28
BRANCH   4  29
ATOM     29  C   UNL     1      35.250 -17.356 -21.571  0.00  0.00    -0.048 C 
BRANCH  29  30
ATOM     30  N   UNL     1      34.434 -16.886 -22.765  0.00  0.00    +0.391 N 
ATOM     31  C   UNL     1      33.864 -18.092 -23.539  0.00  0.00    -0.073 C 
ATOM     32  C   UNL     1      35.335 -16.132 -23.767  0.00  0.00    -0.073 C 
ATOM     33  C   UNL     1      34.707 -18.173 -24.797  0.00  0.00    -0.024 C 
ATOM     34  C   UNL     1      34.982 -16.721 -25.119  0.00  0.00    -0.024 C 
ATOM     35  C   UNL     1      33.306 -15.988 -22.280  0.00  0.00    -0.095 C 
ENDBRANCH  29  30
ENDBRANCH   4  29
TORSDOF 7
ENDMDL
MODEL 6
REMARK VINA RESULT:      -7.2      2.613      3.347
REMARK  Name = 5479537
REMARK  7 active torsions:
REMARK  status: ('A' for Active; 'I' for Inactive)
REMARK    1  A    between atoms: C_4  and  C_29
REMARK    2  A    between atoms: CA_6  and  N_11
REMARK    3  A    between atoms: CA_7  and  C_28
REMARK    4  A    between atoms: C_12  and  C_15
REMARK    5  A    between atoms: N_14  and  O_24
REMARK    6  A    between atoms: C_15  and  C_19
REMARK    7  A    between atoms: C_29  and  N_30
REMARK                            x       y       z     vdW  Elec       q    Type
REMARK                         _______ _______ _______ _____ _____    ______ ____
ROOT
ATOM      1  S   UNL     1      33.368 -12.802 -22.047  0.00  0.00    -0.114 S 
ATOM      2  O   UNL     1      33.438 -12.296 -26.670  0.00  0.00    -0.273 OA
ATOM      3  N   UNL     1      33.879 -13.324 -24.597  0.00  0.00    -0.242 N 
ATOM      4  C   UNL     1      33.653 -15.302 -23.328  0.00  0.00    -0.034 C 
ATOM      5  C   UNL     1      34.390 -12.514 -23.509  0.00  0.00    +0.155 C 
ATOM      6  CA  UNL     1      34.022 -11.290 -24.378  0.00  0.00    +0.179 C 
ATOM      7  CA  UNL     1      33.671 -14.663 -24.521  0.00  0.00    +0.126 C 
ATOM      8  C   UNL     1      33.763 -14.583 -21.986  0.00  0.00    +0.081 C 
ATOM      9  C   UNL     1      33.740 -12.332 -25.500  0.00  0.00    +0.251 C 
ENDROOT
BRANCH   6  11
ATOM     10  O   UNL     1      33.945  -8.748 -22.889  0.00  0.00    -0.268 OA
ATOM     11  N   UNL     1      32.851 -10.496 -24.009  0.00  0.00    -0.291 N 
ATOM     12  C   UNL     1      32.944  -9.309 -23.303  0.00  0.00    +0.269 C 
ATOM     13  H   UNL     1      31.960 -10.819 -24.275  0.00  0.00    +0.150 HD
BRANCH  12  15
ATOM     14  N   UNL     1      30.630  -9.383 -22.554  0.00  0.00    -0.076 NA
ATOM     15  C   UNL     1      31.603  -8.674 -23.039  0.00  0.00    +0.198 C 
BRANCH  15  19
ATOM     16  S   UNL     1      31.147  -5.015 -24.491  0.00  0.00    -0.060 S 
ATOM     17  N   UNL     1      30.942  -6.405 -22.321  0.00  0.00    -0.383 NA
ATOM     18  N   UNL     1      30.394  -4.115 -22.106  0.00  0.00    -0.328 N 
ATOM     19  C   UNL     1      31.362  -7.256 -23.325  0.00  0.00    +0.148 C 
ATOM     20  C   UNL     1      31.528  -6.685 -24.569  0.00  0.00    +0.127 C 
ATOM     21  C   UNL     1      30.797  -5.197 -22.821  0.00  0.00    +0.204 C 
ATOM     22  H   UNL     1      30.306  -3.239 -22.545  0.00  0.00    +0.145 HD
ATOM     23  H   UNL     1      30.190  -4.207 -21.147  0.00  0.00    +0.145 HD
ENDBRANCH  15  19
BRANCH  14  24
ATOM     24  O   UNL     1      31.012 -10.715 -22.341  0.00  0.00    -0.373 OA
ATOM     25  C   UNL     1      30.463 -11.138 -21.102  0.00  0.00    +0.288 C 
ENDBRANCH  14  24
ENDBRANCH  12  15
ENDBRANCH   6  11
BRANCH   7  28
ATOM     26  O   UNL     1      34.373 -16.162 -26.187  0.00  0.00    -0.239 OA
ATOM     27  OXT UNL     1      32.288 -15.231 -26.330  0.00  0.00    -0.239 OA
ATOM     28  C   UNL     1      33.417 -15.431 -25.814  0.00  0.00    +0.401 C 
ENDBRANCH   7  28
BRANCH   4  29
ATOM     29  C   UNL     1      33.453 -16.789 -23.150  0.00  0.00    -0.048 C 
BRANCH  29  30
ATOM     30  N   UNL     1      34.736 -17.504 -22.755  0.00  0.00    +0.391 N 
ATOM     31  C   UNL     1      34.686 -18.985 -23.185  0.00  0.00    -0.073 C 
ATOM     32  C   UNL     1      34.889 -17.518 -21.219  0.00  0.00    -0.073 C 
ATOM     33  C   UNL     1      34.465 -19.751 -21.895  0.00  0.00    -0.024 C 
ATOM     34  C   UNL     1      35.255 -18.951 -20.883  0.00  0.00    -0.024 C 
ATOM     35  C   UNL     1      35.920 -16.805 -23.404  0.00  0.00    -0.095 C 
ENDBRANCH  29  30
ENDBRANCH   4  29
TORSDOF 7
ENDMDL
MODEL 7
REMARK VINA RESULT:      -7.1      7.003     12.449
REMARK  Name = 5479537
REMARK  7 active torsions:
REMARK  status: ('A' for Active; 'I' for Inactive)
REMARK    1  A    between atoms: C_4  and  C_29
REMARK    2  A    between atoms: CA_6  and  N_11
REMARK    3  A    between atoms: CA_7  and  C_28
REMARK    4  A    between atoms: C_12  and  C_15
REMARK    5  A    between atoms: N_14  and  O_24
REMARK    6  A    between atoms: C_15  and  C_19
REMARK    7  A    between atoms: C_29  and  N_30
REMARK                            x       y       z     vdW  Elec       q    Type
REMARK                         _______ _______ _______ _____ _____    ______ ____
ROOT
ATOM      1  S   UNL     1      32.603 -20.035 -20.070  0.00  0.00    -0.114 S 
ATOM      2  O   UNL     1      36.572 -22.207 -18.997  0.00  0.00    -0.273 OA
ATOM      3  N   UNL     1      35.139 -20.796 -20.223  0.00  0.00    -0.242 N 
ATOM      4  C   UNL     1      34.829 -18.616 -21.072  0.00  0.00    -0.034 C 
ATOM      5  C   UNL     1      33.816 -21.276 -20.573  0.00  0.00    +0.155 C 
ATOM      6  CA  UNL     1      34.078 -22.428 -19.576  0.00  0.00    +0.179 C 
ATOM      7  CA  UNL     1      35.637 -19.589 -20.591  0.00  0.00    +0.126 C 
ATOM      8  C   UNL     1      33.310 -18.745 -21.151  0.00  0.00    +0.081 C 
ATOM      9  C   UNL     1      35.533 -21.876 -19.517  0.00  0.00    +0.251 C 
ENDROOT
BRANCH   6  11
ATOM     10  O   UNL     1      33.727 -24.647 -17.668  0.00  0.00    -0.268 OA
ATOM     11  N   UNL     1      33.392 -22.407 -18.286  0.00  0.00    -0.291 N 
ATOM     12  C   UNL     1      33.293 -23.523 -17.473  0.00  0.00    +0.269 C 
ATOM     13  H   UNL     1      32.983 -21.564 -17.982  0.00  0.00    +0.150 HD
BRANCH  12  15
ATOM     14  N   UNL     1      33.172 -22.866 -15.132  0.00  0.00    -0.076 NA
ATOM     15  C   UNL     1      32.538 -23.257 -16.196  0.00  0.00    +0.198 C 
BRANCH  15  19
ATOM     16  S   UNL     1      28.766 -24.243 -15.484  0.00  0.00    -0.060 S 
ATOM     17  N   UNL     1      30.246 -22.682 -16.917  0.00  0.00    -0.383 NA
ATOM     18  N   UNL     1      27.919 -22.474 -17.279  0.00  0.00    -0.328 N 
ATOM     19  C   UNL     1      31.084 -23.437 -16.119  0.00  0.00    +0.148 C 
ATOM     20  C   UNL     1      30.465 -24.336 -15.277  0.00  0.00    +0.127 C 
ATOM     21  C   UNL     1      29.001 -23.023 -16.667  0.00  0.00    +0.204 C 
ATOM     22  H   UNL     1      27.013 -22.778 -17.043  0.00  0.00    +0.145 HD
ATOM     23  H   UNL     1      28.041 -21.773 -17.960  0.00  0.00    +0.145 HD
ENDBRANCH  15  19
BRANCH  14  24
ATOM     24  O   UNL     1      34.550 -22.748 -15.363  0.00  0.00    -0.373 OA
ATOM     25  C   UNL     1      35.227 -23.512 -14.377  0.00  0.00    +0.288 C 
ENDBRANCH  14  24
ENDBRANCH  12  15
ENDBRANCH   6  11
BRANCH   7  28
ATOM     26  O   UNL     1      37.758 -19.122 -21.482  0.00  0.00    -0.239 OA
ATOM     27  OXT UNL     1      37.530 -19.374 -19.220  0.00  0.00    -0.239 OA
ATOM     28  C   UNL     1      37.130 -19.336 -20.412  0.00  0.00    +0.401 C 
ENDBRANCH   7  28
BRANCH   4  29
ATOM     29  C   UNL     1      35.297 -17.253 -21.527  0.00  0.00    -0.048 C 
BRANCH  29  30
ATOM     30  N   UNL     1      34.449 -16.697 -22.660  0.00  0.00    +0.391 N 
ATOM     31  C   UNL     1      35.151 -15.493 -23.322  0.00  0.00    -0.073 C 
ATOM     32  C   UNL     1      33.112 -16.153 -22.112  0.00  0.00    -0.073 C 
ATOM     33  C   UNL     1      34.378 -14.283 -22.833  0.00  0.00    -0.024 C 
ATOM     34  C   UNL     1      32.956 -14.792 -22.762  0.00  0.00    -0.024 C 
ATOM     35  C   UNL     1      34.201 -17.792 -23.685  0.00  0.00    -0.095 C 
ENDBRANCH  29  30
ENDBRANCH   4  29
TORSDOF 7
ENDMDL
MODEL 8
REMARK VINA RESULT:      -6.6      7.035     12.798
REMARK  Name = 5479537
REMARK  7 active torsions:
REMARK  status: ('A' for Active; 'I' for Inactive)
REMARK    1  A    between atoms: C_4  and  C_29
REMARK    2  A    between atoms: CA_6  and  N_11
REMARK    3  A    between atoms: CA_7  and  C_28
REMARK    4  A    between atoms: C_12  and  C_15
REMARK    5  A    between atoms: N_14  and  O_24
REMARK    6  A    between atoms: C_15  and  C_19
REMARK    7  A    between atoms: C_29  and  N_30
REMARK                            x       y       z     vdW  Elec       q    Type
REMARK                         _______ _______ _______ _____ _____    ______ ____
ROOT
ATOM      1  S   UNL     1      32.552 -20.794 -19.938  0.00  0.00    -0.114 S 
ATOM      2  O   UNL     1      37.066 -21.642 -19.210  0.00  0.00    -0.273 OA
ATOM      3  N   UNL     1      35.165 -20.895 -20.382  0.00  0.00    -0.242 N 
ATOM      4  C   UNL     1      34.162 -19.060 -21.478  0.00  0.00    -0.034 C 
ATOM      5  C   UNL     1      33.998 -21.753 -20.443  0.00  0.00    +0.155 C 
ATOM      6  CA  UNL     1      34.684 -22.597 -19.344  0.00  0.00    +0.179 C 
ATOM      7  CA  UNL     1      35.260 -19.688 -20.996  0.00  0.00    +0.126 C 
ATOM      8  C   UNL     1      32.741 -19.587 -21.294  0.00  0.00    +0.081 C 
ATOM      9  C   UNL     1      35.923 -21.689 -19.599  0.00  0.00    +0.251 C 
ENDROOT
BRANCH   6  11
ATOM     10  O   UNL     1      33.357 -24.709 -17.774  0.00  0.00    -0.268 OA
ATOM     11  N   UNL     1      34.171 -22.517 -17.978  0.00  0.00    -0.291 N 
ATOM     12  C   UNL     1      33.563 -23.587 -17.343  0.00  0.00    +0.269 C 
ATOM     13  H   UNL     1      34.264 -21.668 -17.488  0.00  0.00    +0.150 HD
BRANCH  12  15
ATOM     14  N   UNL     1      31.927 -22.785 -15.729  0.00  0.00    -0.076 NA
ATOM     15  C   UNL     1      33.115 -23.262 -15.941  0.00  0.00    +0.198 C 
BRANCH  15  19
ATOM     16  S   UNL     1      34.932 -24.132 -12.528  0.00  0.00    -0.060 S 
ATOM     17  N   UNL     1      35.314 -23.038 -14.838  0.00  0.00    -0.383 NA
ATOM     18  N   UNL     1      37.196 -23.051 -13.407  0.00  0.00    -0.328 N 
ATOM     19  C   UNL     1      34.003 -23.469 -14.791  0.00  0.00    +0.148 C 
ATOM     20  C   UNL     1      33.612 -24.085 -13.621  0.00  0.00    +0.127 C 
ATOM     21  C   UNL     1      35.900 -23.334 -13.699  0.00  0.00    +0.204 C 
ATOM     22  H   UNL     1      37.570 -23.303 -12.532  0.00  0.00    +0.145 HD
ATOM     23  H   UNL     1      37.762 -22.594 -14.071  0.00  0.00    +0.145 HD
ENDBRANCH  15  19
BRANCH  14  24
ATOM     24  O   UNL     1      31.205 -22.639 -16.922  0.00  0.00    -0.373 OA
ATOM     25  C   UNL     1      29.836 -22.888 -16.641  0.00  0.00    +0.288 C 
ENDBRANCH  14  24
ENDBRANCH  12  15
ENDBRANCH   6  11
BRANCH   7  28
ATOM     26  O   UNL     1      36.994 -18.749 -22.269  0.00  0.00    -0.239 OA
ATOM     27  OXT UNL     1      37.216 -18.864 -19.996  0.00  0.00    -0.239 OA
ATOM     28  C   UNL     1      36.633 -19.032 -21.097  0.00  0.00    +0.401 C 
ENDBRANCH   7  28
BRANCH   4  29
ATOM     29  C   UNL     1      34.176 -17.730 -22.195  0.00  0.00    -0.048 C 
BRANCH  29  30
ATOM     30  N   UNL     1      33.603 -16.607 -21.343  0.00  0.00    +0.391 N 
ATOM     31  C   UNL     1      33.282 -15.376 -22.216  0.00  0.00    -0.073 C 
ATOM     32  C   UNL     1      34.648 -16.129 -20.313  0.00  0.00    -0.073 C 
ATOM     33  C   UNL     1      34.375 -14.378 -21.887  0.00  0.00    -0.024 C 
ATOM     34  C   UNL     1      34.624 -14.616 -20.415  0.00  0.00    -0.024 C 
ATOM     35  C   UNL     1      32.347 -17.099 -20.642  0.00  0.00    -0.095 C 
ENDBRANCH  29  30
ENDBRANCH   4  29
TORSDOF 7
ENDMDL
MODEL 9
REMARK VINA RESULT:      -6.5      7.087     12.621
REMARK  Name = 5479537
REMARK  7 active torsions:
REMARK  status: ('A' for Active; 'I' for Inactive)
REMARK    1  A    between atoms: C_4  and  C_29
REMARK    2  A    between atoms: CA_6  and  N_11
REMARK    3  A    between atoms: CA_7  and  C_28
REMARK    4  A    between atoms: C_12  and  C_15
REMARK    5  A    between atoms: N_14  and  O_24
REMARK    6  A    between atoms: C_15  and  C_19
REMARK    7  A    between atoms: C_29  and  N_30
REMARK                            x       y       z     vdW  Elec       q    Type
REMARK                         _______ _______ _______ _____ _____    ______ ____
ROOT
ATOM      1  S   UNL     1      32.628 -19.776 -19.820  0.00  0.00    -0.114 S 
ATOM      2  O   UNL     1      36.766 -21.897 -19.859  0.00  0.00    -0.273 OA
ATOM      3  N   UNL     1      35.067 -20.451 -20.614  0.00  0.00    -0.242 N 
ATOM      4  C   UNL     1      34.538 -18.228 -21.209  0.00  0.00    -0.034 C 
ATOM      5  C   UNL     1      33.706 -20.944 -20.679  0.00  0.00    +0.155 C 
ATOM      6  CA  UNL     1      34.208 -22.152 -19.856  0.00  0.00    +0.179 C 
ATOM      7  CA  UNL     1      35.449 -19.207 -21.000  0.00  0.00    +0.126 C 
ATOM      8  C   UNL     1      33.045 -18.397 -20.941  0.00  0.00    +0.081 C 
ATOM      9  C   UNL     1      35.630 -21.563 -20.098  0.00  0.00    +0.251 C 
ENDROOT
BRANCH   6  11
ATOM     10  O   UNL     1      33.556 -24.562 -18.290  0.00  0.00    -0.268 OA
ATOM     11  N   UNL     1      33.844 -22.237 -18.443  0.00  0.00    -0.291 N 
ATOM     12  C   UNL     1      33.557 -23.438 -17.815  0.00  0.00    +0.269 C 
ATOM     13  H   UNL     1      33.801 -21.407 -17.916  0.00  0.00    +0.150 HD
BRANCH  12  15
ATOM     14  N   UNL     1      31.997 -22.945 -16.013  0.00  0.00    -0.076 NA
ATOM     15  C   UNL     1      33.205 -23.271 -16.360  0.00  0.00    +0.198 C 
BRANCH  15  19
ATOM     16  S   UNL     1      36.356 -23.429 -13.961  0.00  0.00    -0.060 S 
ATOM     17  N   UNL     1      33.880 -24.146 -14.150  0.00  0.00    -0.383 NA
ATOM     18  N   UNL     1      34.962 -24.784 -12.148  0.00  0.00    -0.328 N 
ATOM     19  C   UNL     1      34.208 -23.466 -15.307  0.00  0.00    +0.148 C 
ATOM     20  C   UNL     1      35.504 -23.001 -15.386  0.00  0.00    +0.127 C 
ATOM     21  C   UNL     1      34.936 -24.188 -13.368  0.00  0.00    +0.204 C 
ATOM     22  H   UNL     1      35.789 -24.778 -11.614  0.00  0.00    +0.145 HD
ATOM     23  H   UNL     1      34.154 -25.223 -11.796  0.00  0.00    +0.145 HD
ENDBRANCH  15  19
BRANCH  14  24
ATOM     24  O   UNL     1      31.161 -22.790 -17.128  0.00  0.00    -0.373 OA
ATOM     25  C   UNL     1      29.816 -22.812 -16.674  0.00  0.00    +0.288 C 
ENDBRANCH  14  24
ENDBRANCH  12  15
ENDBRANCH   6  11
BRANCH   7  28
ATOM     26  O   UNL     1      37.301 -18.646 -22.330  0.00  0.00    -0.239 OA
ATOM     27  OXT UNL     1      37.603 -19.001 -20.091  0.00  0.00    -0.239 OA
ATOM     28  C   UNL     1      36.939 -18.922 -21.156  0.00  0.00    +0.401 C 
ENDBRANCH   7  28
BRANCH   4  29
ATOM     29  C   UNL     1      34.869 -16.825 -21.662  0.00  0.00    -0.048 C 
BRANCH  29  30
ATOM     30  N   UNL     1      34.257 -16.493 -23.014  0.00  0.00    +0.391 N 
ATOM     31  C   UNL     1      33.672 -17.761 -23.670  0.00  0.00    -0.073 C 
ATOM     32  C   UNL     1      35.344 -15.982 -23.983  0.00  0.00    -0.073 C 
ATOM     33  C   UNL     1      34.653 -18.108 -24.773  0.00  0.00    -0.024 C 
ATOM     34  C   UNL     1      35.105 -16.752 -25.267  0.00  0.00    -0.024 C 
ATOM     35  C   UNL     1      33.170 -15.445 -22.829  0.00  0.00    -0.095 C 
ENDBRANCH  29  30
ENDBRANCH   4  29
TORSDOF 7
ENDMDL
