MODEL 1
REMARK VINA RESULT:      -8.6      0.000      0.000
REMARK  Name = 82148
REMARK  4 active torsions:
REMARK  status: ('A' for Active; 'I' for Inactive)
REMARK    1  A    between atoms: C_1  and  C_13
REMARK    2  A    between atoms: C_9  and  O_11
REMARK    3  A    between atoms: C_13  and  C_14
REMARK    4  A    between atoms: C_14  and  N_16
REMARK                            x       y       z     vdW  Elec       q    Type
REMARK                         _______ _______ _______ _____ _____    ______ ____
ROOT
ATOM      1  C   UNL     1      34.500 -15.809 -21.827  0.00  0.00    -0.020 C 
ATOM      2  C   UNL     1      34.450 -16.375 -23.111  0.00  0.00    -0.001 C 
ATOM      3  C   UNL     1      34.847 -17.722 -23.288  0.00  0.00    -0.000 C 
ATOM      4  C   UNL     1      34.934 -16.559 -20.734  0.00  0.00    -0.004 C 
ATOM      5  C   UNL     1      34.017 -15.634 -24.222  0.00  0.00    +0.037 C 
ATOM      6  C   UNL     1      35.280 -18.462 -22.177  0.00  0.00    -0.000 C 
ATOM      7  C   UNL     1      34.797 -18.289 -24.572  0.00  0.00    +0.003 C 
ATOM      8  C   UNL     1      35.324 -17.883 -20.908  0.00  0.00    -0.000 C 
ATOM      9  C   UNL     1      33.975 -16.213 -25.491  0.00  0.00    +0.139 C 
ATOM     10  C   UNL     1      34.364 -17.538 -25.665  0.00  0.00    +0.037 C 
ENDROOT
BRANCH   9  11
ATOM     11  O   UNL     1      33.550 -15.483 -26.558  0.00  0.00    -0.471 OA
ATOM     12  C   UNL     1      32.864 -14.264 -26.280  0.00  0.00    +0.252 C 
ENDBRANCH   9  11
BRANCH   1  13
ATOM     13  C   UNL     1      34.095 -14.390 -21.569  0.00  0.00    +0.048 C 
BRANCH  13  14
ATOM     14  C   UNL     1      32.643 -14.249 -21.103  0.00  0.00    +0.094 C 
BRANCH  14  16
ATOM     15  O   UNL     1      31.717 -11.800 -19.848  0.00  0.00    -0.275 OA
ATOM     16  N   UNL     1      31.971 -13.144 -21.733  0.00  0.00    -0.304 N 
ATOM     17  C   UNL     1      31.562 -12.007 -21.049  0.00  0.00    +0.223 C 
ATOM     18  C   UNL     1      30.906 -10.997 -21.951  0.00  0.00    +0.095 C 
ATOM     19  H   UNL     1      31.791 -13.197 -22.699  0.00  0.00    +0.149 HD
ENDBRANCH  14  16
ENDBRANCH  13  14
ENDBRANCH   1  13
TORSDOF 4
ENDMDL
MODEL 2
REMARK VINA RESULT:      -8.5      1.543      2.237
REMARK  Name = 82148
REMARK  4 active torsions:
REMARK  status: ('A' for Active; 'I' for Inactive)
REMARK    1  A    between atoms: C_1  and  C_13
REMARK    2  A    between atoms: C_9  and  O_11
REMARK    3  A    between atoms: C_13  and  C_14
REMARK    4  A    between atoms: C_14  and  N_16
REMARK                            x       y       z     vdW  Elec       q    Type
REMARK                         _______ _______ _______ _____ _____    ______ ____
ROOT
ATOM      1  C   UNL     1      32.858 -13.939 -22.120  0.00  0.00    -0.020 C 
ATOM      2  C   UNL     1      33.376 -14.770 -23.127  0.00  0.00    -0.001 C 
ATOM      3  C   UNL     1      34.134 -15.908 -22.761  0.00  0.00    -0.000 C 
ATOM      4  C   UNL     1      33.082 -14.227 -20.774  0.00  0.00    -0.004 C 
ATOM      5  C   UNL     1      33.161 -14.494 -24.486  0.00  0.00    +0.037 C 
ATOM      6  C   UNL     1      34.349 -16.182 -21.402  0.00  0.00    -0.000 C 
ATOM      7  C   UNL     1      34.652 -16.739 -23.768  0.00  0.00    +0.003 C 
ATOM      8  C   UNL     1      33.826 -15.346 -20.415  0.00  0.00    -0.000 C 
ATOM      9  C   UNL     1      33.685 -15.331 -25.473  0.00  0.00    +0.139 C 
ATOM     10  C   UNL     1      34.429 -16.451 -25.114  0.00  0.00    +0.037 C 
ENDROOT
BRANCH   9  11
ATOM     11  O   UNL     1      33.466 -15.053 -26.787  0.00  0.00    -0.471 OA
ATOM     12  C   UNL     1      33.251 -13.686 -27.136  0.00  0.00    +0.252 C 
ENDBRANCH   9  11
BRANCH   1  13
ATOM     13  C   UNL     1      32.049 -12.719 -22.436  0.00  0.00    +0.048 C 
BRANCH  13  14
ATOM     14  C   UNL     1      31.628 -11.931 -21.193  0.00  0.00    +0.094 C 
BRANCH  14  16
ATOM     15  O   UNL     1      32.190  -9.950 -19.146  0.00  0.00    -0.275 OA
ATOM     16  N   UNL     1      31.778 -10.511 -21.368  0.00  0.00    -0.304 N 
ATOM     17  C   UNL     1      32.047  -9.636 -20.325  0.00  0.00    +0.223 C 
ATOM     18  C   UNL     1      32.178  -8.210 -20.789  0.00  0.00    +0.095 C 
ATOM     19  H   UNL     1      31.683 -10.140 -22.275  0.00  0.00    +0.149 HD
ENDBRANCH  14  16
ENDBRANCH  13  14
ENDBRANCH   1  13
TORSDOF 4
ENDMDL
MODEL 3
REMARK VINA RESULT:      -8.5      1.969      3.707
REMARK  Name = 82148
REMARK  4 active torsions:
REMARK  status: ('A' for Active; 'I' for Inactive)
REMARK    1  A    between atoms: C_1  and  C_13
REMARK    2  A    between atoms: C_9  and  O_11
REMARK    3  A    between atoms: C_13  and  C_14
REMARK    4  A    between atoms: C_14  and  N_16
REMARK                            x       y       z     vdW  Elec       q    Type
REMARK                         _______ _______ _______ _____ _____    ______ ____
ROOT
ATOM      1  C   UNL     1      34.126 -15.385 -23.127  0.00  0.00    -0.020 C 
ATOM      2  C   UNL     1      34.586 -16.704 -22.980  0.00  0.00    -0.001 C 
ATOM      3  C   UNL     1      34.618 -17.554 -24.112  0.00  0.00    -0.000 C 
ATOM      4  C   UNL     1      33.706 -14.911 -24.370  0.00  0.00    -0.004 C 
ATOM      5  C   UNL     1      35.011 -17.197 -21.737  0.00  0.00    +0.037 C 
ATOM      6  C   UNL     1      34.192 -17.060 -25.354  0.00  0.00    -0.000 C 
ATOM      7  C   UNL     1      35.078 -18.873 -23.965  0.00  0.00    +0.003 C 
ATOM      8  C   UNL     1      33.739 -15.747 -25.482  0.00  0.00    -0.000 C 
ATOM      9  C   UNL     1      35.464 -18.511 -21.610  0.00  0.00    +0.139 C 
ATOM     10  C   UNL     1      35.498 -19.347 -22.722  0.00  0.00    +0.037 C 
ENDROOT
BRANCH   9  11
ATOM     11  O   UNL     1      35.876 -18.974 -20.398  0.00  0.00    -0.471 OA
ATOM     12  C   UNL     1      36.018 -20.387 -20.257  0.00  0.00    +0.252 C 
ENDBRANCH   9  11
BRANCH   1  13
ATOM     13  C   UNL     1      34.065 -14.433 -21.973  0.00  0.00    +0.048 C 
BRANCH  13  14
ATOM     14  C   UNL     1      32.658 -14.279 -21.386  0.00  0.00    +0.094 C 
BRANCH  14  16
ATOM     15  O   UNL     1      31.794 -11.931 -19.914  0.00  0.00    -0.275 OA
ATOM     16  N   UNL     1      31.971 -13.127 -21.905  0.00  0.00    -0.304 N 
ATOM     17  C   UNL     1      31.595 -12.045 -21.121  0.00  0.00    +0.223 C 
ATOM     18  C   UNL     1      30.914 -10.965 -21.920  0.00  0.00    +0.095 C 
ATOM     19  H   UNL     1      31.756 -13.105 -22.865  0.00  0.00    +0.149 HD
ENDBRANCH  14  16
ENDBRANCH  13  14
ENDBRANCH   1  13
TORSDOF 4
ENDMDL
MODEL 4
REMARK VINA RESULT:      -8.5      3.041      5.240
REMARK  Name = 82148
REMARK  4 active torsions:
REMARK  status: ('A' for Active; 'I' for Inactive)
REMARK    1  A    between atoms: C_1  and  C_13
REMARK    2  A    between atoms: C_9  and  O_11
REMARK    3  A    between atoms: C_13  and  C_14
REMARK    4  A    between atoms: C_14  and  N_16
REMARK                            x       y       z     vdW  Elec       q    Type
REMARK                         _______ _______ _______ _____ _____    ______ ____
ROOT
ATOM      1  C   UNL     1      34.805 -16.818 -22.344  0.00  0.00    -0.020 C 
ATOM      2  C   UNL     1      34.229 -15.801 -23.124  0.00  0.00    -0.001 C 
ATOM      3  C   UNL     1      33.746 -14.633 -22.488  0.00  0.00    -0.000 C 
ATOM      4  C   UNL     1      34.903 -16.684 -20.959  0.00  0.00    -0.004 C 
ATOM      5  C   UNL     1      34.123 -15.919 -24.518  0.00  0.00    +0.037 C 
ATOM      6  C   UNL     1      33.852 -14.515 -21.093  0.00  0.00    -0.000 C 
ATOM      7  C   UNL     1      33.170 -13.616 -23.267  0.00  0.00    +0.003 C 
ATOM      8  C   UNL     1      34.427 -15.536 -20.334  0.00  0.00    -0.000 C 
ATOM      9  C   UNL     1      33.547 -14.899 -25.277  0.00  0.00    +0.139 C 
ATOM     10  C   UNL     1      33.072 -13.749 -24.652  0.00  0.00    +0.037 C 
ENDROOT
BRANCH   9  11
ATOM     11  O   UNL     1      33.452 -15.027 -26.629  0.00  0.00    -0.471 OA
ATOM     12  C   UNL     1      33.324 -13.826 -27.387  0.00  0.00    +0.252 C 
ENDBRANCH   9  11
BRANCH   1  13
ATOM     13  C   UNL     1      35.336 -18.079 -22.952  0.00  0.00    +0.048 C 
BRANCH  13  14
ATOM     14  C   UNL     1      34.636 -19.341 -22.439  0.00  0.00    +0.094 C 
BRANCH  14  16
ATOM     15  O   UNL     1      33.624 -20.567 -20.010  0.00  0.00    -0.275 OA
ATOM     16  N   UNL     1      35.395 -20.011 -21.417  0.00  0.00    -0.304 N 
ATOM     17  C   UNL     1      34.822 -20.571 -20.283  0.00  0.00    +0.223 C 
ATOM     18  C   UNL     1      35.838 -21.231 -19.390  0.00  0.00    +0.095 C 
ATOM     19  H   UNL     1      36.370 -20.076 -21.527  0.00  0.00    +0.149 HD
ENDBRANCH  14  16
ENDBRANCH  13  14
ENDBRANCH   1  13
TORSDOF 4
ENDMDL
MODEL 5
REMARK VINA RESULT:      -8.5      3.207      5.849
REMARK  Name = 82148
REMARK  4 active torsions:
REMARK  status: ('A' for Active; 'I' for Inactive)
REMARK    1  A    between atoms: C_1  and  C_13
REMARK    2  A    between atoms: C_9  and  O_11
REMARK    3  A    between atoms: C_13  and  C_14
REMARK    4  A    between atoms: C_14  and  N_16
REMARK                            x       y       z     vdW  Elec       q    Type
REMARK                         _______ _______ _______ _____ _____    ______ ____
ROOT
ATOM      1  C   UNL     1      34.601 -17.021 -22.737  0.00  0.00    -0.020 C 
ATOM      2  C   UNL     1      33.909 -15.806 -22.868  0.00  0.00    -0.001 C 
ATOM      3  C   UNL     1      33.649 -15.294 -24.161  0.00  0.00    -0.000 C 
ATOM      4  C   UNL     1      35.029 -17.722 -23.865  0.00  0.00    -0.004 C 
ATOM      5  C   UNL     1      33.472 -15.088 -21.743  0.00  0.00    +0.037 C 
ATOM      6  C   UNL     1      34.087 -16.012 -25.285  0.00  0.00    -0.000 C 
ATOM      7  C   UNL     1      32.957 -14.079 -24.292  0.00  0.00    +0.003 C 
ATOM      8  C   UNL     1      34.773 -17.219 -25.137  0.00  0.00    -0.000 C 
ATOM      9  C   UNL     1      32.787 -13.882 -21.892  0.00  0.00    +0.139 C 
ATOM     10  C   UNL     1      32.530 -13.378 -23.164  0.00  0.00    +0.037 C 
ENDROOT
BRANCH   9  11
ATOM     11  O   UNL     1      32.367 -13.198 -20.793  0.00  0.00    -0.471 OA
ATOM     12  C   UNL     1      31.640 -11.991 -21.017  0.00  0.00    +0.252 C 
ENDBRANCH   9  11
BRANCH   1  13
ATOM     13  C   UNL     1      34.910 -17.619 -21.400  0.00  0.00    +0.048 C 
BRANCH  13  14
ATOM     14  C   UNL     1      33.988 -18.784 -21.028  0.00  0.00    +0.094 C 
BRANCH  14  16
ATOM     15  O   UNL     1      32.889 -21.079 -19.630  0.00  0.00    -0.275 OA
ATOM     16  N   UNL     1      34.709 -19.900 -20.479  0.00  0.00    -0.304 N 
ATOM     17  C   UNL     1      34.096 -20.959 -19.822  0.00  0.00    +0.223 C 
ATOM     18  C   UNL     1      35.081 -22.003 -19.369  0.00  0.00    +0.095 C 
ATOM     19  H   UNL     1      35.689 -19.914 -20.572  0.00  0.00    +0.149 HD
ENDBRANCH  14  16
ENDBRANCH  13  14
ENDBRANCH   1  13
TORSDOF 4
ENDMDL
MODEL 6
REMARK VINA RESULT:      -8.4      8.007     10.386
REMARK  Name = 82148
REMARK  4 active torsions:
REMARK  status: ('A' for Active; 'I' for Inactive)
REMARK    1  A    between atoms: C_1  and  C_13
REMARK    2  A    between atoms: C_9  and  O_11
REMARK    3  A    between atoms: C_13  and  C_14
REMARK    4  A    between atoms: C_14  and  N_16
REMARK                            x       y       z     vdW  Elec       q    Type
REMARK                         _______ _______ _______ _____ _____    ______ ____
ROOT
ATOM      1  C   UNL     1      33.513 -23.245 -16.916  0.00  0.00    -0.020 C 
ATOM      2  C   UNL     1      32.273 -23.135 -16.267  0.00  0.00    -0.001 C 
ATOM      3  C   UNL     1      32.199 -23.372 -14.873  0.00  0.00    -0.000 C 
ATOM      4  C   UNL     1      34.664 -23.582 -16.202  0.00  0.00    -0.004 C 
ATOM      5  C   UNL     1      31.106 -22.797 -16.970  0.00  0.00    +0.037 C 
ATOM      6  C   UNL     1      33.366 -23.710 -14.171  0.00  0.00    -0.000 C 
ATOM      7  C   UNL     1      30.959 -23.262 -14.224  0.00  0.00    +0.003 C 
ATOM      8  C   UNL     1      34.591 -23.814 -14.833  0.00  0.00    -0.000 C 
ATOM      9  C   UNL     1      29.882 -22.694 -16.308  0.00  0.00    +0.139 C 
ATOM     10  C   UNL     1      29.808 -22.925 -14.937  0.00  0.00    +0.037 C 
ENDROOT
BRANCH   9  11
ATOM     11  O   UNL     1      28.759 -22.363 -17.002  0.00  0.00    -0.471 OA
ATOM     12  C   UNL     1      27.519 -22.419 -16.298  0.00  0.00    +0.252 C 
ENDBRANCH   9  11
BRANCH   1  13
ATOM     13  C   UNL     1      33.663 -23.008 -18.387  0.00  0.00    +0.048 C 
BRANCH  13  14
ATOM     14  C   UNL     1      34.809 -22.054 -18.735  0.00  0.00    +0.094 C 
BRANCH  14  16
ATOM     15  O   UNL     1      36.509 -20.039 -19.951  0.00  0.00    -0.275 OA
ATOM     16  N   UNL     1      34.498 -21.210 -19.857  0.00  0.00    -0.304 N 
ATOM     17  C   UNL     1      35.378 -20.269 -20.373  0.00  0.00    +0.223 C 
ATOM     18  C   UNL     1      34.810 -19.540 -21.562  0.00  0.00    +0.095 C 
ATOM     19  H   UNL     1      33.615 -21.304 -20.281  0.00  0.00    +0.149 HD
ENDBRANCH  14  16
ENDBRANCH  13  14
ENDBRANCH   1  13
TORSDOF 4
ENDMDL
MODEL 7
REMARK VINA RESULT:      -8.4      6.929      9.547
REMARK  Name = 82148
REMARK  4 active torsions:
REMARK  status: ('A' for Active; 'I' for Inactive)
REMARK    1  A    between atoms: C_1  and  C_13
REMARK    2  A    between atoms: C_9  and  O_11
REMARK    3  A    between atoms: C_13  and  C_14
REMARK    4  A    between atoms: C_14  and  N_16
REMARK                            x       y       z     vdW  Elec       q    Type
REMARK                         _______ _______ _______ _____ _____    ______ ____
ROOT
ATOM      1  C   UNL     1      34.571 -22.158 -18.546  0.00  0.00    -0.020 C 
ATOM      2  C   UNL     1      34.102 -22.700 -17.339  0.00  0.00    -0.001 C 
ATOM      3  C   UNL     1      35.000 -22.855 -16.256  0.00  0.00    -0.000 C 
ATOM      4  C   UNL     1      35.905 -21.774 -18.684  0.00  0.00    -0.004 C 
ATOM      5  C   UNL     1      32.763 -23.092 -17.184  0.00  0.00    +0.037 C 
ATOM      6  C   UNL     1      36.339 -22.464 -16.412  0.00  0.00    -0.000 C 
ATOM      7  C   UNL     1      34.531 -23.398 -15.049  0.00  0.00    +0.003 C 
ATOM      8  C   UNL     1      36.788 -21.927 -17.619  0.00  0.00    -0.000 C 
ATOM      9  C   UNL     1      32.314 -23.630 -15.977  0.00  0.00    +0.139 C 
ATOM     10  C   UNL     1      33.197 -23.782 -14.911  0.00  0.00    +0.037 C 
ENDROOT
BRANCH   9  11
ATOM     11  O   UNL     1      31.013 -24.003 -15.840  0.00  0.00    -0.471 OA
ATOM     12  C   UNL     1      30.698 -24.879 -14.759  0.00  0.00    +0.252 C 
ENDBRANCH   9  11
BRANCH   1  13
ATOM     13  C   UNL     1      33.676 -21.966 -19.731  0.00  0.00    +0.048 C 
BRANCH  13  14
ATOM     14  C   UNL     1      33.242 -20.512 -19.935  0.00  0.00    +0.094 C 
BRANCH  14  16
ATOM     15  O   UNL     1      35.511 -18.832 -20.615  0.00  0.00    -0.275 OA
ATOM     16  N   UNL     1      33.600 -20.011 -21.235  0.00  0.00    -0.304 N 
ATOM     17  C   UNL     1      34.709 -19.209 -21.467  0.00  0.00    +0.223 C 
ATOM     18  C   UNL     1      34.864 -18.846 -22.920  0.00  0.00    +0.095 C 
ATOM     19  H   UNL     1      33.028 -20.248 -22.000  0.00  0.00    +0.149 HD
ENDBRANCH  14  16
ENDBRANCH  13  14
ENDBRANCH   1  13
TORSDOF 4
ENDMDL
MODEL 8
REMARK VINA RESULT:      -8.2      2.252      2.849
REMARK  Name = 82148
REMARK  4 active torsions:
REMARK  status: ('A' for Active; 'I' for Inactive)
REMARK    1  A    between atoms: C_1  and  C_13
REMARK    2  A    between atoms: C_9  and  O_11
REMARK    3  A    between atoms: C_13  and  C_14
REMARK    4  A    between atoms: C_14  and  N_16
REMARK                            x       y       z     vdW  Elec       q    Type
REMARK                         _______ _______ _______ _____ _____    ______ ____
ROOT
ATOM      1  C   UNL     1      32.905 -14.028 -22.210  0.00  0.00    -0.020 C 
ATOM      2  C   UNL     1      33.460 -14.864 -23.193  0.00  0.00    -0.001 C 
ATOM      3  C   UNL     1      34.308 -15.926 -22.799  0.00  0.00    -0.000 C 
ATOM      4  C   UNL     1      33.181 -14.238 -20.858  0.00  0.00    -0.004 C 
ATOM      5  C   UNL     1      33.193 -14.666 -24.557  0.00  0.00    +0.037 C 
ATOM      6  C   UNL     1      34.575 -16.122 -21.435  0.00  0.00    -0.000 C 
ATOM      7  C   UNL     1      34.863 -16.761 -23.782  0.00  0.00    +0.003 C 
ATOM      8  C   UNL     1      34.015 -15.282 -20.471  0.00  0.00    -0.000 C 
ATOM      9  C   UNL     1      33.753 -15.506 -25.520  0.00  0.00    +0.139 C 
ATOM     10  C   UNL     1      34.587 -16.552 -25.133  0.00  0.00    +0.037 C 
ENDROOT
BRANCH   9  11
ATOM     11  O   UNL     1      33.484 -15.304 -26.839  0.00  0.00    -0.471 OA
ATOM     12  C   UNL     1      33.228 -13.963 -27.252  0.00  0.00    +0.252 C 
ENDBRANCH   9  11
BRANCH   1  13
ATOM     13  C   UNL     1      32.001 -12.886 -22.556  0.00  0.00    +0.048 C 
BRANCH  13  14
ATOM     14  C   UNL     1      32.718 -11.534 -22.597  0.00  0.00    +0.094 C 
BRANCH  14  16
ATOM     15  O   UNL     1      34.063  -9.140 -23.541  0.00  0.00    -0.275 OA
ATOM     16  N   UNL     1      33.602 -11.416 -23.726  0.00  0.00    -0.304 N 
ATOM     17  C   UNL     1      34.203 -10.223 -24.105  0.00  0.00    +0.223 C 
ATOM     18  C   UNL     1      35.098 -10.385 -25.304  0.00  0.00    +0.095 C 
ATOM     19  H   UNL     1      33.790 -12.223 -24.257  0.00  0.00    +0.149 HD
ENDBRANCH  14  16
ENDBRANCH  13  14
ENDBRANCH   1  13
TORSDOF 4
ENDMDL
MODEL 9
REMARK VINA RESULT:      -8.1      7.377     10.281
REMARK  Name = 82148
REMARK  4 active torsions:
REMARK  status: ('A' for Active; 'I' for Inactive)
REMARK    1  A    between atoms: C_1  and  C_13
REMARK    2  A    between atoms: C_9  and  O_11
REMARK    3  A    between atoms: C_13  and  C_14
REMARK    4  A    between atoms: C_14  and  N_16
REMARK                            x       y       z     vdW  Elec       q    Type
REMARK                         _______ _______ _______ _____ _____    ______ ____
ROOT
ATOM      1  C   UNL     1      35.432 -22.155 -17.925  0.00  0.00    -0.020 C 
ATOM      2  C   UNL     1      35.477 -22.768 -16.663  0.00  0.00    -0.001 C 
ATOM      3  C   UNL     1      34.307 -23.373 -16.146  0.00  0.00    -0.000 C 
ATOM      4  C   UNL     1      34.251 -22.138 -18.668  0.00  0.00    -0.004 C 
ATOM      5  C   UNL     1      36.657 -22.793 -15.904  0.00  0.00    +0.037 C 
ATOM      6  C   UNL     1      33.127 -23.348 -16.906  0.00  0.00    -0.000 C 
ATOM      7  C   UNL     1      34.353 -23.987 -14.884  0.00  0.00    +0.003 C 
ATOM      8  C   UNL     1      33.100 -22.733 -18.159  0.00  0.00    -0.000 C 
ATOM      9  C   UNL     1      36.684 -23.407 -14.651  0.00  0.00    +0.139 C 
ATOM     10  C   UNL     1      35.534 -24.003 -14.142  0.00  0.00    +0.037 C 
ENDROOT
BRANCH   9  11
ATOM     11  O   UNL     1      37.836 -23.425 -13.926  0.00  0.00    -0.471 OA
ATOM     12  C   UNL     1      38.370 -24.704 -13.586  0.00  0.00    +0.252 C 
ENDBRANCH   9  11
BRANCH   1  13
ATOM     13  C   UNL     1      36.632 -21.496 -18.532  0.00  0.00    +0.048 C 
BRANCH  13  14
ATOM     14  C   UNL     1      36.481 -21.220 -20.031  0.00  0.00    +0.094 C 
BRANCH  14  16
ATOM     15  O   UNL     1      34.274 -19.872 -21.351  0.00  0.00    -0.275 OA
ATOM     16  N   UNL     1      36.362 -19.816 -20.320  0.00  0.00    -0.304 N 
ATOM     17  C   UNL     1      35.263 -19.258 -20.959  0.00  0.00    +0.223 C 
ATOM     18  C   UNL     1      35.385 -17.766 -21.114  0.00  0.00    +0.095 C 
ATOM     19  H   UNL     1      37.098 -19.220 -20.051  0.00  0.00    +0.149 HD
ENDBRANCH  14  16
ENDBRANCH  13  14
ENDBRANCH   1  13
TORSDOF 4
ENDMDL
