MODEL 1
REMARK VINA RESULT:     -10.5      0.000      0.000
REMARK  Name = 71587743
REMARK  9 active torsions:
REMARK  status: ('A' for Active; 'I' for Inactive)
REMARK    1  A    between atoms: C_3  and  N_7
REMARK    2  A    between atoms: C_4  and  C_19
REMARK    3  A    between atoms: N_7  and  C_9
REMARK    4  A    between atoms: C_9  and  C_11
REMARK    5  A    between atoms: C_9  and  C_16
REMARK    6  A    between atoms: C_16  and  C_17
REMARK    7  A    between atoms: C_19  and  C_20
REMARK    8  A    between atoms: C_21  and  O_31
REMARK    9  A    between atoms: C_23  and  C_28
REMARK                            x       y       z     vdW  Elec       q    Type
REMARK                         _______ _______ _______ _____ _____    ______ ____
ROOT
ATOM      1  O   UNL     1      34.494 -16.499 -26.083  0.00  0.00    -0.282 OA
ATOM      2  O   UNL     1      32.518 -14.227 -26.572  0.00  0.00    -0.283 OA
ATOM      3  C   UNL     1      34.029 -15.313 -23.906  0.00  0.00    +0.087 C 
ATOM      4  C   UNL     1      33.146 -14.300 -24.140  0.00  0.00    +0.041 C 
ATOM      5  C   UNL     1      34.013 -15.697 -25.326  0.00  0.00    +0.247 C 
ATOM      6  C   UNL     1      33.059 -14.600 -25.564  0.00  0.00    +0.233 C 
ENDROOT
BRANCH   3   7
ATOM      7  N   UNL     1      34.704 -15.860 -22.926  0.00  0.00    -0.326 N 
ATOM      8  H   UNL     1      35.678 -15.957 -23.024  0.00  0.00    +0.147 HD
BRANCH   7   9
ATOM      9  C   UNL     1      34.078 -16.330 -21.704  0.00  0.00    +0.127 C 
BRANCH   9  11
ATOM     10  O   UNL     1      33.685 -18.608 -20.918  0.00  0.00    -0.460 OA
ATOM     11  C   UNL     1      34.600 -17.713 -21.374  0.00  0.00    +0.140 C 
ATOM     12  C   UNL     1      35.848 -18.286 -21.438  0.00  0.00    +0.037 C 
ATOM     13  C   UNL     1      34.357 -19.767 -20.688  0.00  0.00    +0.123 C 
ATOM     14  C   UNL     1      35.690 -19.621 -20.992  0.00  0.00    +0.036 C 
ATOM     15  C   UNL     1      33.558 -20.892 -20.182  0.00  0.00    +0.072 C 
ENDBRANCH   9  11
BRANCH   9  16
ATOM     16  C   UNL     1      34.310 -15.288 -20.594  0.00  0.00    +0.027 C 
BRANCH  16  17
ATOM     17  C   UNL     1      33.020 -14.584 -20.160  0.00  0.00    +0.002 C 
ATOM     18  C   UNL     1      31.821 -15.515 -20.255  0.00  0.00    +0.000 C 
ENDBRANCH  16  17
ENDBRANCH   9  16
ENDBRANCH   7   9
ENDBRANCH   3   7
BRANCH   4  19
ATOM     19  C   UNL     1      32.477 -13.233 -23.259  0.00  0.00    +0.060 C 
BRANCH  19  20
ATOM     20  C   UNL     1      33.033 -11.828 -23.471  0.00  0.00    +0.016 C 
ATOM     21  C   UNL     1      32.529 -10.744 -22.752  0.00  0.00    +0.134 C 
ATOM     22  C   UNL     1      34.057 -11.635 -24.399  0.00  0.00    -0.001 C 
ATOM     23  C   UNL     1      33.049  -9.467 -22.961  0.00  0.00    +0.087 C 
ATOM     24  C   UNL     1      34.577 -10.358 -24.608  0.00  0.00    +0.000 C 
ATOM     25  C   UNL     1      34.073  -9.273 -23.889  0.00  0.00    +0.008 C 
BRANCH  23  28
ATOM     26  O   UNL     1      32.965  -8.165 -21.069  0.00  0.00    -0.270 OA
ATOM     27  N   UNL     1      31.625  -7.459 -22.849  0.00  0.00    -0.272 N 
ATOM     28  C   UNL     1      32.541  -8.320 -22.221  0.00  0.00    +0.252 C 
ATOM     29  C   UNL     1      31.083  -6.283 -22.182  0.00  0.00    +0.115 C 
ATOM     30  C   UNL     1      31.153  -7.685 -24.213  0.00  0.00    +0.115 C 
ENDBRANCH  23  28
BRANCH  21  31
ATOM     31  O   UNL     1      31.529 -10.936 -21.845  0.00  0.00    -0.506 OA
ATOM     32  H   UNL     1      31.232 -10.221 -21.317  0.00  0.00    +0.292 HD
ENDBRANCH  21  31
ENDBRANCH  19  20
ENDBRANCH   4  19
TORSDOF 9
ENDMDL
MODEL 2
REMARK VINA RESULT:     -10.2      2.864      9.338
REMARK  Name = 71587743
REMARK  9 active torsions:
REMARK  status: ('A' for Active; 'I' for Inactive)
REMARK    1  A    between atoms: C_3  and  N_7
REMARK    2  A    between atoms: C_4  and  C_19
REMARK    3  A    between atoms: N_7  and  C_9
REMARK    4  A    between atoms: C_9  and  C_11
REMARK    5  A    between atoms: C_9  and  C_16
REMARK    6  A    between atoms: C_16  and  C_17
REMARK    7  A    between atoms: C_19  and  C_20
REMARK    8  A    between atoms: C_21  and  O_31
REMARK    9  A    between atoms: C_23  and  C_28
REMARK                            x       y       z     vdW  Elec       q    Type
REMARK                         _______ _______ _______ _____ _____    ______ ____
ROOT
ATOM      1  O   UNL     1      35.128 -17.072 -25.989  0.00  0.00    -0.282 OA
ATOM      2  O   UNL     1      34.882 -19.615 -24.323  0.00  0.00    -0.283 OA
ATOM      3  C   UNL     1      34.471 -16.465 -23.630  0.00  0.00    +0.087 C 
ATOM      4  C   UNL     1      34.363 -17.611 -22.898  0.00  0.00    +0.041 C 
ATOM      5  C   UNL     1      34.839 -17.230 -24.832  0.00  0.00    +0.247 C 
ATOM      6  C   UNL     1      34.720 -18.460 -24.029  0.00  0.00    +0.233 C 
ENDROOT
BRANCH   3   7
ATOM      7  N   UNL     1      34.344 -15.169 -23.503  0.00  0.00    -0.326 N 
ATOM      8  H   UNL     1      35.140 -14.640 -23.263  0.00  0.00    +0.147 HD
BRANCH   7   9
ATOM      9  C   UNL     1      33.084 -14.476 -23.698  0.00  0.00    +0.127 C 
BRANCH   9  11
ATOM     10  O   UNL     1      31.985 -12.652 -22.503  0.00  0.00    -0.460 OA
ATOM     11  C   UNL     1      32.663 -13.825 -22.397  0.00  0.00    +0.140 C 
ATOM     12  C   UNL     1      32.823 -14.175 -21.076  0.00  0.00    +0.037 C 
ATOM     13  C   UNL     1      31.709 -12.248 -21.235  0.00  0.00    +0.123 C 
ATOM     14  C   UNL     1      32.203 -13.150 -20.321  0.00  0.00    +0.036 C 
ATOM     15  C   UNL     1      30.971 -10.984 -21.102  0.00  0.00    +0.072 C 
ENDBRANCH   9  11
BRANCH   9  16
ATOM     16  C   UNL     1      33.233 -13.495 -24.875  0.00  0.00    +0.027 C 
BRANCH  16  17
ATOM     17  C   UNL     1      32.980 -14.153 -26.235  0.00  0.00    +0.002 C 
ATOM     18  C   UNL     1      33.453 -13.266 -27.377  0.00  0.00    +0.000 C 
ENDBRANCH  16  17
ENDBRANCH   9  16
ENDBRANCH   7   9
ENDBRANCH   3   7
BRANCH   4  19
ATOM     19  C   UNL     1      34.006 -17.923 -21.436  0.00  0.00    +0.060 C 
BRANCH  19  20
ATOM     20  C   UNL     1      34.783 -19.099 -20.854  0.00  0.00    +0.016 C 
ATOM     21  C   UNL     1      34.123 -20.128 -20.180  0.00  0.00    +0.134 C 
ATOM     22  C   UNL     1      36.169 -19.139 -21.002  0.00  0.00    -0.001 C 
ATOM     23  C   UNL     1      34.851 -21.195 -19.654  0.00  0.00    +0.087 C 
ATOM     24  C   UNL     1      36.897 -20.206 -20.475  0.00  0.00    +0.000 C 
ATOM     25  C   UNL     1      36.238 -21.234 -19.801  0.00  0.00    +0.008 C 
BRANCH  23  28
ATOM     26  O   UNL     1      33.209 -22.797 -19.508  0.00  0.00    -0.270 OA
ATOM     27  N   UNL     1      34.685 -22.686 -17.699  0.00  0.00    -0.272 N 
ATOM     28  C   UNL     1      34.185 -22.281 -18.949  0.00  0.00    +0.252 C 
ATOM     29  C   UNL     1      34.084 -23.774 -16.939  0.00  0.00    +0.115 C 
ATOM     30  C   UNL     1      35.841 -22.045 -17.079  0.00  0.00    +0.115 C 
ENDBRANCH  23  28
BRANCH  21  31
ATOM     31  O   UNL     1      32.768 -20.087 -20.039  0.00  0.00    -0.506 OA
ATOM     32  H   UNL     1      32.328 -19.262 -19.970  0.00  0.00    +0.292 HD
ENDBRANCH  21  31
ENDBRANCH  19  20
ENDBRANCH   4  19
TORSDOF 9
ENDMDL
MODEL 3
REMARK VINA RESULT:     -10.1      5.700     10.707
REMARK  Name = 71587743
REMARK  9 active torsions:
REMARK  status: ('A' for Active; 'I' for Inactive)
REMARK    1  A    between atoms: C_3  and  N_7
REMARK    2  A    between atoms: C_4  and  C_19
REMARK    3  A    between atoms: N_7  and  C_9
REMARK    4  A    between atoms: C_9  and  C_11
REMARK    5  A    between atoms: C_9  and  C_16
REMARK    6  A    between atoms: C_16  and  C_17
REMARK    7  A    between atoms: C_19  and  C_20
REMARK    8  A    between atoms: C_21  and  O_31
REMARK    9  A    between atoms: C_23  and  C_28
REMARK                            x       y       z     vdW  Elec       q    Type
REMARK                         _______ _______ _______ _____ _____    ______ ____
ROOT
ATOM      1  O   UNL     1      33.223 -23.374 -14.825  0.00  0.00    -0.282 OA
ATOM      2  O   UNL     1      35.490 -23.171 -16.855  0.00  0.00    -0.283 OA
ATOM      3  C   UNL     1      32.270 -22.788 -17.087  0.00  0.00    +0.087 C 
ATOM      4  C   UNL     1      33.295 -22.700 -17.982  0.00  0.00    +0.041 C 
ATOM      5  C   UNL     1      33.207 -23.119 -16.001  0.00  0.00    +0.247 C 
ATOM      6  C   UNL     1      34.303 -23.021 -16.980  0.00  0.00    +0.233 C 
ENDROOT
BRANCH   3   7
ATOM      7  N   UNL     1      30.968 -22.669 -17.025  0.00  0.00    -0.326 N 
ATOM      8  H   UNL     1      30.506 -22.180 -17.744  0.00  0.00    +0.147 HD
BRANCH   7   9
ATOM      9  C   UNL     1      30.176 -23.223 -15.942  0.00  0.00    +0.127 C 
BRANCH   9  11
ATOM     10  O   UNL     1      28.305 -22.436 -17.300  0.00  0.00    -0.460 OA
ATOM     11  C   UNL     1      28.755 -22.708 -16.047  0.00  0.00    +0.140 C 
ATOM     12  C   UNL     1      27.780 -22.445 -15.114  0.00  0.00    +0.037 C 
ATOM     13  C   UNL     1      27.027 -21.993 -17.165  0.00  0.00    +0.123 C 
ATOM     14  C   UNL     1      26.657 -21.980 -15.841  0.00  0.00    +0.036 C 
ATOM     15  C   UNL     1      26.329 -21.634 -18.408  0.00  0.00    +0.072 C 
ENDBRANCH   9  11
BRANCH   9  16
ATOM     16  C   UNL     1      30.293 -24.758 -15.976  0.00  0.00    +0.027 C 
BRANCH  16  17
ATOM     17  C   UNL     1      29.938 -25.411 -14.636  0.00  0.00    +0.002 C 
ATOM     18  C   UNL     1      30.521 -24.633 -13.467  0.00  0.00    +0.000 C 
ENDBRANCH  16  17
ENDBRANCH   9  16
ENDBRANCH   7   9
ENDBRANCH   3   7
BRANCH   4  19
ATOM     19  C   UNL     1      33.385 -22.386 -19.485  0.00  0.00    +0.060 C 
BRANCH  19  20
ATOM     20  C   UNL     1      34.515 -21.426 -19.842  0.00  0.00    +0.016 C 
ATOM     21  C   UNL     1      34.244 -20.191 -20.432  0.00  0.00    +0.134 C 
ATOM     22  C   UNL     1      35.832 -21.797 -19.573  0.00  0.00    -0.001 C 
ATOM     23  C   UNL     1      35.291 -19.327 -20.752  0.00  0.00    +0.087 C 
ATOM     24  C   UNL     1      36.879 -20.933 -19.894  0.00  0.00    +0.000 C 
ATOM     25  C   UNL     1      36.609 -19.698 -20.483  0.00  0.00    +0.008 C 
BRANCH  23  28
ATOM     26  O   UNL     1      34.980 -17.054 -20.609  0.00  0.00    -0.270 OA
ATOM     27  N   UNL     1      34.876 -17.961 -22.761  0.00  0.00    -0.272 N 
ATOM     28  C   UNL     1      35.033 -18.032 -21.366  0.00  0.00    +0.252 C 
ATOM     29  C   UNL     1      34.631 -16.702 -23.451  0.00  0.00    +0.115 C 
ATOM     30  C   UNL     1      34.947 -19.146 -23.613  0.00  0.00    +0.115 C 
ENDBRANCH  23  28
BRANCH  21  31
ATOM     31  O   UNL     1      32.955 -19.830 -20.692  0.00  0.00    -0.506 OA
ATOM     32  H   UNL     1      32.770 -19.206 -21.366  0.00  0.00    +0.292 HD
ENDBRANCH  21  31
ENDBRANCH  19  20
ENDBRANCH   4  19
TORSDOF 9
ENDMDL
MODEL 4
REMARK VINA RESULT:     -10.0      1.934      3.385
REMARK  Name = 71587743
REMARK  9 active torsions:
REMARK  status: ('A' for Active; 'I' for Inactive)
REMARK    1  A    between atoms: C_3  and  N_7
REMARK    2  A    between atoms: C_4  and  C_19
REMARK    3  A    between atoms: N_7  and  C_9
REMARK    4  A    between atoms: C_9  and  C_11
REMARK    5  A    between atoms: C_9  and  C_16
REMARK    6  A    between atoms: C_16  and  C_17
REMARK    7  A    between atoms: C_19  and  C_20
REMARK    8  A    between atoms: C_21  and  O_31
REMARK    9  A    between atoms: C_23  and  C_28
REMARK                            x       y       z     vdW  Elec       q    Type
REMARK                         _______ _______ _______ _____ _____    ______ ____
ROOT
ATOM      1  O   UNL     1      32.782 -14.539 -20.609  0.00  0.00    -0.282 OA
ATOM      2  O   UNL     1      31.141 -12.055 -21.271  0.00  0.00    -0.283 OA
ATOM      3  C   UNL     1      33.603 -13.549 -22.779  0.00  0.00    +0.087 C 
ATOM      4  C   UNL     1      32.860 -12.442 -23.063  0.00  0.00    +0.041 C 
ATOM      5  C   UNL     1      32.844 -13.780 -21.540  0.00  0.00    +0.247 C 
ATOM      6  C   UNL     1      32.050 -12.580 -21.858  0.00  0.00    +0.233 C 
ENDROOT
BRANCH   3   7
ATOM      7  N   UNL     1      34.593 -14.254 -23.265  0.00  0.00    -0.326 N 
ATOM      8  H   UNL     1      35.475 -14.188 -22.832  0.00  0.00    +0.147 HD
BRANCH   7   9
ATOM      9  C   UNL     1      34.448 -15.129 -24.415  0.00  0.00    +0.127 C 
BRANCH   9  11
ATOM     10  O   UNL     1      35.191 -16.730 -22.727  0.00  0.00    -0.460 OA
ATOM     11  C   UNL     1      34.752 -16.554 -24.001  0.00  0.00    +0.140 C 
ATOM     12  C   UNL     1      34.678 -17.760 -24.658  0.00  0.00    +0.037 C 
ATOM     13  C   UNL     1      35.399 -18.063 -22.569  0.00  0.00    +0.123 C 
ATOM     14  C   UNL     1      35.099 -18.741 -23.728  0.00  0.00    +0.036 C 
ATOM     15  C   UNL     1      35.883 -18.494 -21.250  0.00  0.00    +0.072 C 
ENDBRANCH   9  11
BRANCH   9  16
ATOM     16  C   UNL     1      33.044 -14.933 -25.015  0.00  0.00    +0.027 C 
BRANCH  16  17
ATOM     17  C   UNL     1      33.048 -14.923 -26.547  0.00  0.00    +0.002 C 
ATOM     18  C   UNL     1      33.362 -13.538 -27.092  0.00  0.00    +0.000 C 
ENDBRANCH  16  17
ENDBRANCH   9  16
ENDBRANCH   7   9
ENDBRANCH   3   7
BRANCH   4  19
ATOM     19  C   UNL     1      32.855 -11.415 -24.207  0.00  0.00    +0.060 C 
BRANCH  19  20
ATOM     20  C   UNL     1      33.303 -10.021 -23.779  0.00  0.00    +0.016 C 
ATOM     21  C   UNL     1      32.448  -9.186 -23.058  0.00  0.00    +0.134 C 
ATOM     22  C   UNL     1      34.582  -9.583 -24.120  0.00  0.00    -0.001 C 
ATOM     23  C   UNL     1      32.875  -7.915 -22.676  0.00  0.00    +0.087 C 
ATOM     24  C   UNL     1      35.008  -8.311 -23.739  0.00  0.00    +0.000 C 
ATOM     25  C   UNL     1      34.155  -7.476 -23.017  0.00  0.00    +0.008 C 
BRANCH  23  28
ATOM     26  O   UNL     1      32.000  -7.158 -20.690  0.00  0.00    -0.270 OA
ATOM     27  N   UNL     1      31.236  -6.075 -22.616  0.00  0.00    -0.272 N 
ATOM     28  C   UNL     1      32.003  -7.027 -21.921  0.00  0.00    +0.252 C 
ATOM     29  C   UNL     1      30.352  -5.141 -21.932  0.00  0.00    +0.115 C 
ATOM     30  C   UNL     1      31.273  -5.959 -24.072  0.00  0.00    +0.115 C 
ENDBRANCH  23  28
BRANCH  21  31
ATOM     31  O   UNL     1      31.198  -9.617 -22.725  0.00  0.00    -0.506 OA
ATOM     32  H   UNL     1      31.039  -9.982 -21.877  0.00  0.00    +0.292 HD
ENDBRANCH  21  31
ENDBRANCH  19  20
ENDBRANCH   4  19
TORSDOF 9
ENDMDL
MODEL 5
REMARK VINA RESULT:      -9.8      1.543      2.833
REMARK  Name = 71587743
REMARK  9 active torsions:
REMARK  status: ('A' for Active; 'I' for Inactive)
REMARK    1  A    between atoms: C_3  and  N_7
REMARK    2  A    between atoms: C_4  and  C_19
REMARK    3  A    between atoms: N_7  and  C_9
REMARK    4  A    between atoms: C_9  and  C_11
REMARK    5  A    between atoms: C_9  and  C_16
REMARK    6  A    between atoms: C_16  and  C_17
REMARK    7  A    between atoms: C_19  and  C_20
REMARK    8  A    between atoms: C_21  and  O_31
REMARK    9  A    between atoms: C_23  and  C_28
REMARK                            x       y       z     vdW  Elec       q    Type
REMARK                         _______ _______ _______ _____ _____    ______ ____
ROOT
ATOM      1  O   UNL     1      34.922 -15.937 -19.893  0.00  0.00    -0.282 OA
ATOM      2  O   UNL     1      32.403 -14.220 -19.816  0.00  0.00    -0.283 OA
ATOM      3  C   UNL     1      34.402 -15.112 -22.219  0.00  0.00    +0.087 C 
ATOM      4  C   UNL     1      33.274 -14.348 -22.170  0.00  0.00    +0.041 C 
ATOM      5  C   UNL     1      34.337 -15.359 -20.770  0.00  0.00    +0.247 C 
ATOM      6  C   UNL     1      33.119 -14.530 -20.731  0.00  0.00    +0.233 C 
ENDROOT
BRANCH   3   7
ATOM      7  N   UNL     1      35.291 -15.549 -23.076  0.00  0.00    -0.326 N 
ATOM      8  H   UNL     1      36.043 -14.960 -23.315  0.00  0.00    +0.147 HD
BRANCH   7   9
ATOM      9  C   UNL     1      35.215 -16.862 -23.690  0.00  0.00    +0.127 C 
BRANCH   9  11
ATOM     10  O   UNL     1      33.945 -18.412 -22.294  0.00  0.00    -0.460 OA
ATOM     11  C   UNL     1      35.173 -17.919 -22.606  0.00  0.00    +0.140 C 
ATOM     12  C   UNL     1      36.144 -18.516 -21.836  0.00  0.00    +0.037 C 
ATOM     13  C   UNL     1      34.134 -19.333 -21.314  0.00  0.00    +0.123 C 
ATOM     14  C   UNL     1      35.469 -19.435 -20.996  0.00  0.00    +0.036 C 
ATOM     15  C   UNL     1      32.928 -20.006 -20.812  0.00  0.00    +0.072 C 
ENDBRANCH   9  11
BRANCH   9  16
ATOM     16  C   UNL     1      34.012 -16.894 -24.649  0.00  0.00    +0.027 C 
BRANCH  16  17
ATOM     17  C   UNL     1      34.150 -15.904 -25.810  0.00  0.00    +0.002 C 
ATOM     18  C   UNL     1      32.796 -15.356 -26.235  0.00  0.00    +0.000 C 
ENDBRANCH  16  17
ENDBRANCH   9  16
ENDBRANCH   7   9
ENDBRANCH   3   7
BRANCH   4  19
ATOM     19  C   UNL     1      32.453 -13.574 -23.214  0.00  0.00    +0.060 C 
BRANCH  19  20
ATOM     20  C   UNL     1      32.937 -12.144 -23.435  0.00  0.00    +0.016 C 
ATOM     21  C   UNL     1      32.429 -11.092 -22.672  0.00  0.00    +0.134 C 
ATOM     22  C   UNL     1      33.899 -11.895 -24.414  0.00  0.00    -0.001 C 
ATOM     23  C   UNL     1      32.883  -9.792 -22.889  0.00  0.00    +0.087 C 
ATOM     24  C   UNL     1      34.352 -10.594 -24.631  0.00  0.00    +0.000 C 
ATOM     25  C   UNL     1      33.844  -9.542 -23.869  0.00  0.00    +0.008 C 
BRANCH  23  28
ATOM     26  O   UNL     1      32.635  -8.675 -20.895  0.00  0.00    -0.270 OA
ATOM     27  N   UNL     1      31.624  -7.678 -22.752  0.00  0.00    -0.272 N 
ATOM     28  C   UNL     1      32.369  -8.678 -22.104  0.00  0.00    +0.252 C 
ATOM     29  C   UNL     1      31.089  -6.525 -22.040  0.00  0.00    +0.115 C 
ATOM     30  C   UNL     1      31.335  -7.727 -24.183  0.00  0.00    +0.115 C 
ENDBRANCH  23  28
BRANCH  21  31
ATOM     31  O   UNL     1      31.490 -11.339 -21.715  0.00  0.00    -0.506 OA
ATOM     32  H   UNL     1      31.705 -11.230 -20.809  0.00  0.00    +0.292 HD
ENDBRANCH  21  31
ENDBRANCH  19  20
ENDBRANCH   4  19
TORSDOF 9
ENDMDL
MODEL 6
REMARK VINA RESULT:      -9.8      1.437      2.033
REMARK  Name = 71587743
REMARK  9 active torsions:
REMARK  status: ('A' for Active; 'I' for Inactive)
REMARK    1  A    between atoms: C_3  and  N_7
REMARK    2  A    between atoms: C_4  and  C_19
REMARK    3  A    between atoms: N_7  and  C_9
REMARK    4  A    between atoms: C_9  and  C_11
REMARK    5  A    between atoms: C_9  and  C_16
REMARK    6  A    between atoms: C_16  and  C_17
REMARK    7  A    between atoms: C_19  and  C_20
REMARK    8  A    between atoms: C_21  and  O_31
REMARK    9  A    between atoms: C_23  and  C_28
REMARK                            x       y       z     vdW  Elec       q    Type
REMARK                         _______ _______ _______ _____ _____    ______ ____
ROOT
ATOM      1  O   UNL     1      33.103 -16.127 -26.096  0.00  0.00    -0.282 OA
ATOM      2  O   UNL     1      32.397 -13.369 -27.192  0.00  0.00    -0.283 OA
ATOM      3  C   UNL     1      34.056 -14.353 -24.575  0.00  0.00    +0.087 C 
ATOM      4  C   UNL     1      33.734 -13.128 -25.078  0.00  0.00    +0.041 C 
ATOM      5  C   UNL     1      33.359 -15.026 -25.683  0.00  0.00    +0.247 C 
ATOM      6  C   UNL     1      33.017 -13.695 -26.214  0.00  0.00    +0.233 C 
ENDROOT
BRANCH   3   7
ATOM      7  N   UNL     1      34.693 -14.898 -23.569  0.00  0.00    -0.326 N 
ATOM      8  H   UNL     1      35.672 -14.810 -23.530  0.00  0.00    +0.147 HD
BRANCH   7   9
ATOM      9  C   UNL     1      34.018 -15.627 -22.511  0.00  0.00    +0.127 C 
BRANCH   9  11
ATOM     10  O   UNL     1      34.435 -17.696 -23.738  0.00  0.00    -0.460 OA
ATOM     11  C   UNL     1      34.470 -17.072 -22.532  0.00  0.00    +0.140 C 
ATOM     12  C   UNL     1      34.927 -17.929 -21.557  0.00  0.00    +0.037 C 
ATOM     13  C   UNL     1      34.876 -18.965 -23.532  0.00  0.00    +0.123 C 
ATOM     14  C   UNL     1      35.191 -19.159 -22.208  0.00  0.00    +0.036 C 
ATOM     15  C   UNL     1      34.924 -19.837 -24.715  0.00  0.00    +0.072 C 
ENDBRANCH   9  11
BRANCH   9  16
ATOM     16  C   UNL     1      34.270 -14.908 -21.173  0.00  0.00    +0.027 C 
BRANCH  16  17
ATOM     17  C   UNL     1      32.984 -14.659 -20.379  0.00  0.00    +0.002 C 
ATOM     18  C   UNL     1      32.012 -15.821 -20.521  0.00  0.00    +0.000 C 
ENDBRANCH  16  17
ENDBRANCH   9  16
ENDBRANCH   7   9
ENDBRANCH   3   7
BRANCH   4  19
ATOM     19  C   UNL     1      34.005 -11.680 -24.637  0.00  0.00    +0.060 C 
BRANCH  19  20
ATOM     20  C   UNL     1      33.101 -11.206 -23.504  0.00  0.00    +0.016 C 
ATOM     21  C   UNL     1      33.121  -9.876 -23.082  0.00  0.00    +0.134 C 
ATOM     22  C   UNL     1      32.249 -12.121 -22.886  0.00  0.00    -0.001 C 
ATOM     23  C   UNL     1      32.288  -9.462 -22.044  0.00  0.00    +0.087 C 
ATOM     24  C   UNL     1      31.416 -11.707 -21.847  0.00  0.00    +0.000 C 
ATOM     25  C   UNL     1      31.435 -10.377 -21.425  0.00  0.00    +0.008 C 
BRANCH  23  28
ATOM     26  O   UNL     1      32.964  -7.822 -20.582  0.00  0.00    -0.270 OA
ATOM     27  N   UNL     1      31.550  -7.126 -22.309  0.00  0.00    -0.272 N 
ATOM     28  C   UNL     1      32.289  -8.079 -21.588  0.00  0.00    +0.252 C 
ATOM     29  C   UNL     1      31.513  -5.721 -21.926  0.00  0.00    +0.115 C 
ATOM     30  C   UNL     1      30.768  -7.479 -23.491  0.00  0.00    +0.115 C 
ENDBRANCH  23  28
BRANCH  21  31
ATOM     31  O   UNL     1      33.954  -8.984 -23.689  0.00  0.00    -0.506 OA
ATOM     32  H   UNL     1      33.925  -8.874 -24.620  0.00  0.00    +0.292 HD
ENDBRANCH  21  31
ENDBRANCH  19  20
ENDBRANCH   4  19
TORSDOF 9
ENDMDL
MODEL 7
REMARK VINA RESULT:      -9.8      2.306      8.958
REMARK  Name = 71587743
REMARK  9 active torsions:
REMARK  status: ('A' for Active; 'I' for Inactive)
REMARK    1  A    between atoms: C_3  and  N_7
REMARK    2  A    between atoms: C_4  and  C_19
REMARK    3  A    between atoms: N_7  and  C_9
REMARK    4  A    between atoms: C_9  and  C_11
REMARK    5  A    between atoms: C_9  and  C_16
REMARK    6  A    between atoms: C_16  and  C_17
REMARK    7  A    between atoms: C_19  and  C_20
REMARK    8  A    between atoms: C_21  and  O_31
REMARK    9  A    between atoms: C_23  and  C_28
REMARK                            x       y       z     vdW  Elec       q    Type
REMARK                         _______ _______ _______ _____ _____    ______ ____
ROOT
ATOM      1  O   UNL     1      31.466 -12.737 -22.340  0.00  0.00    -0.282 OA
ATOM      2  O   UNL     1      32.082 -15.519 -21.254  0.00  0.00    -0.283 OA
ATOM      3  C   UNL     1      33.810 -13.393 -23.004  0.00  0.00    +0.087 C 
ATOM      4  C   UNL     1      34.071 -14.637 -22.510  0.00  0.00    +0.041 C 
ATOM      5  C   UNL     1      32.456 -13.414 -22.427  0.00  0.00    +0.247 C 
ATOM      6  C   UNL     1      32.752 -14.758 -21.901  0.00  0.00    +0.233 C 
ENDROOT
BRANCH   3   7
ATOM      7  N   UNL     1      34.377 -12.443 -23.702  0.00  0.00    -0.326 N 
ATOM      8  H   UNL     1      35.354 -12.335 -23.643  0.00  0.00    +0.147 HD
BRANCH   7   9
ATOM      9  C   UNL     1      33.631 -11.540 -24.559  0.00  0.00    +0.127 C 
BRANCH   9  11
ATOM     10  O   UNL     1      32.991  -9.525 -23.338  0.00  0.00    -0.460 OA
ATOM     11  C   UNL     1      33.912 -10.110 -24.147  0.00  0.00    +0.140 C 
ATOM     12  C   UNL     1      34.939  -9.238 -24.422  0.00  0.00    +0.037 C 
ATOM     13  C   UNL     1      33.434  -8.263 -23.094  0.00  0.00    +0.123 C 
ATOM     14  C   UNL     1      34.628  -8.037 -23.738  0.00  0.00    +0.036 C 
ATOM     15  C   UNL     1      32.585  -7.432 -22.230  0.00  0.00    +0.072 C 
ENDBRANCH   9  11
BRANCH   9  16
ATOM     16  C   UNL     1      33.973 -11.852 -26.028  0.00  0.00    +0.027 C 
BRANCH  16  17
ATOM     17  C   UNL     1      32.929 -12.745 -26.706  0.00  0.00    +0.002 C 
ATOM     18  C   UNL     1      33.265 -14.218 -26.535  0.00  0.00    +0.000 C 
ENDBRANCH  16  17
ENDBRANCH   9  16
ENDBRANCH   7   9
ENDBRANCH   3   7
BRANCH   4  19
ATOM     19  C   UNL     1      35.283 -15.581 -22.562  0.00  0.00    +0.060 C 
BRANCH  19  20
ATOM     20  C   UNL     1      34.914 -17.037 -22.828  0.00  0.00    +0.016 C 
ATOM     21  C   UNL     1      34.552 -17.885 -21.781  0.00  0.00    +0.134 C 
ATOM     22  C   UNL     1      34.943 -17.517 -24.137  0.00  0.00    -0.001 C 
ATOM     23  C   UNL     1      34.219 -19.213 -22.043  0.00  0.00    +0.087 C 
ATOM     24  C   UNL     1      34.609 -18.846 -24.399  0.00  0.00    +0.000 C 
ATOM     25  C   UNL     1      34.248 -19.695 -23.353  0.00  0.00    +0.008 C 
BRANCH  23  28
ATOM     26  O   UNL     1      32.624 -20.293 -20.790  0.00  0.00    -0.270 OA
ATOM     27  N   UNL     1      34.845 -20.740 -20.213  0.00  0.00    -0.272 N 
ATOM     28  C   UNL     1      33.836 -20.117 -20.968  0.00  0.00    +0.252 C 
ATOM     29  C   UNL     1      34.544 -21.668 -19.132  0.00  0.00    +0.115 C 
ATOM     30  C   UNL     1      36.264 -20.499 -20.462  0.00  0.00    +0.115 C 
ENDBRANCH  23  28
BRANCH  21  31
ATOM     31  O   UNL     1      34.524 -17.412 -20.502  0.00  0.00    -0.506 OA
ATOM     32  H   UNL     1      34.963 -17.880 -19.819  0.00  0.00    +0.292 HD
ENDBRANCH  21  31
ENDBRANCH  19  20
ENDBRANCH   4  19
TORSDOF 9
ENDMDL
MODEL 8
REMARK VINA RESULT:      -9.8      2.191      8.620
REMARK  Name = 71587743
REMARK  9 active torsions:
REMARK  status: ('A' for Active; 'I' for Inactive)
REMARK    1  A    between atoms: C_3  and  N_7
REMARK    2  A    between atoms: C_4  and  C_19
REMARK    3  A    between atoms: N_7  and  C_9
REMARK    4  A    between atoms: C_9  and  C_11
REMARK    5  A    between atoms: C_9  and  C_16
REMARK    6  A    between atoms: C_16  and  C_17
REMARK    7  A    between atoms: C_19  and  C_20
REMARK    8  A    between atoms: C_21  and  O_31
REMARK    9  A    between atoms: C_23  and  C_28
REMARK                            x       y       z     vdW  Elec       q    Type
REMARK                         _______ _______ _______ _____ _____    ______ ____
ROOT
ATOM      1  O   UNL     1      33.260 -15.165 -26.914  0.00  0.00    -0.282 OA
ATOM      2  O   UNL     1      34.646 -17.377 -25.336  0.00  0.00    -0.283 OA
ATOM      3  C   UNL     1      33.249 -14.575 -24.461  0.00  0.00    +0.087 C 
ATOM      4  C   UNL     1      33.870 -15.573 -23.769  0.00  0.00    +0.041 C 
ATOM      5  C   UNL     1      33.468 -15.279 -25.734  0.00  0.00    +0.247 C 
ATOM      6  C   UNL     1      34.138 -16.349 -24.974  0.00  0.00    +0.233 C 
ENDROOT
BRANCH   3   7
ATOM      7  N   UNL     1      32.657 -13.424 -24.263  0.00  0.00    -0.326 N 
ATOM      8  H   UNL     1      31.871 -13.199 -24.812  0.00  0.00    +0.147 HD
BRANCH   7   9
ATOM      9  C   UNL     1      33.108 -12.465 -23.271  0.00  0.00    +0.127 C 
BRANCH   9  11
ATOM     10  O   UNL     1      33.868 -10.146 -23.325  0.00  0.00    -0.460 OA
ATOM     11  C   UNL     1      33.858 -11.346 -23.962  0.00  0.00    +0.140 C 
ATOM     12  C   UNL     1      34.561 -11.273 -25.142  0.00  0.00    +0.037 C 
ATOM     13  C   UNL     1      34.586  -9.297 -24.107  0.00  0.00    +0.123 C 
ATOM     14  C   UNL     1      35.034  -9.942 -25.236  0.00  0.00    +0.036 C 
ATOM     15  C   UNL     1      34.732  -7.921 -23.610  0.00  0.00    +0.072 C 
ENDBRANCH   9  11
BRANCH   9  16
ATOM     16  C   UNL     1      31.896 -11.996 -22.446  0.00  0.00    +0.027 C 
BRANCH  16  17
ATOM     17  C   UNL     1      31.953 -12.461 -20.987  0.00  0.00    +0.002 C 
ATOM     18  C   UNL     1      31.528 -11.353 -20.035  0.00  0.00    +0.000 C 
ENDBRANCH  16  17
ENDBRANCH   9  16
ENDBRANCH   7   9
ENDBRANCH   3   7
BRANCH   4  19
ATOM     19  C   UNL     1      34.186 -15.815 -22.284  0.00  0.00    +0.060 C 
BRANCH  19  20
ATOM     20  C   UNL     1      34.744 -17.205 -21.997  0.00  0.00    +0.016 C 
ATOM     21  C   UNL     1      33.969 -18.167 -21.348  0.00  0.00    +0.134 C 
ATOM     22  C   UNL     1      36.047 -17.509 -22.391  0.00  0.00    -0.001 C 
ATOM     23  C   UNL     1      34.497 -19.432 -21.094  0.00  0.00    +0.087 C 
ATOM     24  C   UNL     1      36.576 -18.774 -22.136  0.00  0.00    +0.000 C 
ATOM     25  C   UNL     1      35.801 -19.736 -21.487  0.00  0.00    +0.008 C 
BRANCH  23  28
ATOM     26  O   UNL     1      32.503 -20.507 -20.704  0.00  0.00    -0.270 OA
ATOM     27  N   UNL     1      34.344 -21.315 -19.511  0.00  0.00    -0.272 N 
ATOM     28  C   UNL     1      33.707 -20.453 -20.420  0.00  0.00    +0.252 C 
ATOM     29  C   UNL     1      33.626 -22.370 -18.809  0.00  0.00    +0.115 C 
ATOM     30  C   UNL     1      35.769 -21.211 -19.208  0.00  0.00    +0.115 C 
ENDBRANCH  23  28
BRANCH  21  31
ATOM     31  O   UNL     1      32.695 -17.867 -20.966  0.00  0.00    -0.506 OA
ATOM     32  H   UNL     1      32.208 -17.214 -21.430  0.00  0.00    +0.292 HD
ENDBRANCH  21  31
ENDBRANCH  19  20
ENDBRANCH   4  19
TORSDOF 9
ENDMDL
MODEL 9
REMARK VINA RESULT:      -9.7      2.009      8.555
REMARK  Name = 71587743
REMARK  9 active torsions:
REMARK  status: ('A' for Active; 'I' for Inactive)
REMARK    1  A    between atoms: C_3  and  N_7
REMARK    2  A    between atoms: C_4  and  C_19
REMARK    3  A    between atoms: N_7  and  C_9
REMARK    4  A    between atoms: C_9  and  C_11
REMARK    5  A    between atoms: C_9  and  C_16
REMARK    6  A    between atoms: C_16  and  C_17
REMARK    7  A    between atoms: C_19  and  C_20
REMARK    8  A    between atoms: C_21  and  O_31
REMARK    9  A    between atoms: C_23  and  C_28
REMARK                            x       y       z     vdW  Elec       q    Type
REMARK                         _______ _______ _______ _____ _____    ______ ____
ROOT
ATOM      1  O   UNL     1      33.094 -13.225 -26.490  0.00  0.00    -0.282 OA
ATOM      2  O   UNL     1      33.265 -16.117 -25.533  0.00  0.00    -0.283 OA
ATOM      3  C   UNL     1      33.864 -13.267 -24.088  0.00  0.00    +0.087 C 
ATOM      4  C   UNL     1      33.935 -14.564 -23.674  0.00  0.00    +0.041 C 
ATOM      5  C   UNL     1      33.415 -13.685 -25.425  0.00  0.00    +0.247 C 
ATOM      6  C   UNL     1      33.496 -15.082 -24.964  0.00  0.00    +0.233 C 
ENDROOT
BRANCH   3   7
ATOM      7  N   UNL     1      34.066 -12.052 -23.644  0.00  0.00    -0.326 N 
ATOM      8  H   UNL     1      34.908 -11.857 -23.173  0.00  0.00    +0.147 HD
BRANCH   7   9
ATOM      9  C   UNL     1      33.102 -10.980 -23.815  0.00  0.00    +0.127 C 
BRANCH   9  11
ATOM     10  O   UNL     1      32.600  -9.505 -21.935  0.00  0.00    -0.460 OA
ATOM     11  C   UNL     1      32.399 -10.725 -22.498  0.00  0.00    +0.140 C 
ATOM     12  C   UNL     1      31.566 -11.489 -21.714  0.00  0.00    +0.037 C 
ATOM     13  C   UNL     1      31.888  -9.489 -20.777  0.00  0.00    +0.123 C 
ATOM     14  C   UNL     1      31.234 -10.685 -20.596  0.00  0.00    +0.036 C 
ATOM     15  C   UNL     1      31.957  -8.251 -19.988  0.00  0.00    +0.072 C 
ENDBRANCH   9  11
BRANCH   9  16
ATOM     16  C   UNL     1      33.824  -9.749 -24.392  0.00  0.00    +0.027 C 
BRANCH  16  17
ATOM     17  C   UNL     1      35.304 -10.013 -24.691  0.00  0.00    +0.002 C 
ATOM     18  C   UNL     1      35.523 -10.342 -26.159  0.00  0.00    +0.000 C 
ENDBRANCH  16  17
ENDBRANCH   9  16
ENDBRANCH   7   9
ENDBRANCH   3   7
BRANCH   4  19
ATOM     19  C   UNL     1      34.326 -15.252 -22.356  0.00  0.00    +0.060 C 
BRANCH  19  20
ATOM     20  C   UNL     1      34.560 -16.753 -22.496  0.00  0.00    +0.016 C 
ATOM     21  C   UNL     1      33.945 -17.656 -21.627  0.00  0.00    +0.134 C 
ATOM     22  C   UNL     1      35.401 -17.219 -23.506  0.00  0.00    -0.001 C 
ATOM     23  C   UNL     1      34.172 -19.024 -21.770  0.00  0.00    +0.087 C 
ATOM     24  C   UNL     1      35.628 -18.588 -23.648  0.00  0.00    +0.000 C 
ATOM     25  C   UNL     1      35.014 -19.491 -22.780  0.00  0.00    +0.008 C 
BRANCH  23  28
ATOM     26  O   UNL     1      32.304 -20.050 -20.908  0.00  0.00    -0.270 OA
ATOM     27  N   UNL     1      34.353 -20.785 -20.056  0.00  0.00    -0.272 N 
ATOM     28  C   UNL     1      33.540 -19.986 -20.878  0.00  0.00    +0.252 C 
ATOM     29  C   UNL     1      33.798 -21.780 -19.148  0.00  0.00    +0.115 C 
ATOM     30  C   UNL     1      35.809 -20.672 -20.055  0.00  0.00    +0.115 C 
ENDBRANCH  23  28
BRANCH  21  31
ATOM     31  O   UNL     1      33.122 -17.197 -20.642  0.00  0.00    -0.506 OA
ATOM     32  H   UNL     1      32.687 -16.373 -20.740  0.00  0.00    +0.292 HD
ENDBRANCH  21  31
ENDBRANCH  19  20
ENDBRANCH   4  19
TORSDOF 9
ENDMDL
