MODEL 1
REMARK VINA RESULT:     -10.4      0.000      0.000
REMARK  Name = 9543494
REMARK  7 active torsions:
REMARK  status: ('A' for Active; 'I' for Inactive)
REMARK    1  A    between atoms: C_2  and  N_18
REMARK    2  A    between atoms: C_3  and  C_6
REMARK    3  A    between atoms: C_5  and  C_15
REMARK    4  A    between atoms: C_11  and  C_13
REMARK    5  A    between atoms: C_15  and  O_16
REMARK    6  A    between atoms: N_18  and  S_20
REMARK    7  A    between atoms: S_20  and  C_23
REMARK                            x       y       z     vdW  Elec       q    Type
REMARK                         _______ _______ _______ _____ _____    ______ ____
ROOT
ATOM      1  S   UNL     1      33.366 -13.567 -24.725  0.00  0.00    -0.079 S 
ATOM      2  C   UNL     1      33.409 -15.372 -22.898  0.00  0.00    +0.078 C 
ATOM      3  C   UNL     1      32.985 -13.096 -23.122  0.00  0.00    +0.031 C 
ATOM      4  C   UNL     1      33.045 -14.159 -22.246  0.00  0.00    +0.023 C 
ATOM      5  C   UNL     1      33.612 -15.192 -24.249  0.00  0.00    +0.119 C 
ENDROOT
BRANCH   3   6
ATOM      6  C   UNL     1      32.657 -11.716 -22.860  0.00  0.00    +0.006 C 
ATOM      7  C   UNL     1      33.235 -10.704 -23.626  0.00  0.00    +0.001 C 
ATOM      8  C   UNL     1      31.765 -11.395 -21.837  0.00  0.00    +0.001 C 
ATOM      9  C   UNL     1      32.920  -9.370 -23.370  0.00  0.00    +0.010 C 
ATOM     10  C   UNL     1      31.450 -10.060 -21.582  0.00  0.00    +0.010 C 
ATOM     11  C   UNL     1      32.027  -9.048 -22.348  0.00  0.00    +0.068 C 
BRANCH  11  13
ATOM     12  N   UNL     1      31.442  -6.569 -21.870  0.00  0.00    -0.191 NA
ATOM     13  C   UNL     1      31.704  -7.680 -22.085  0.00  0.00    +0.100 C 
ENDBRANCH  11  13
ENDBRANCH   3   6
BRANCH   5  15
ATOM     14  O   UNL     1      33.291 -16.513 -26.217  0.00  0.00    -0.244 OA
ATOM     15  C   UNL     1      33.983 -16.149 -25.242  0.00  0.00    +0.345 C 
BRANCH  15  16
ATOM     16  O   UNL     1      35.234 -16.680 -25.050  0.00  0.00    -0.477 OA
ATOM     17  H   UNL     1      35.723 -16.460 -24.281  0.00  0.00    +0.295 HD
ENDBRANCH  15  16
ENDBRANCH   5  15
BRANCH   2  18
ATOM     18  N   UNL     1      33.535 -16.593 -22.211  0.00  0.00    -0.214 N 
ATOM     19  H   UNL     1      32.733 -17.159 -22.133  0.00  0.00    +0.174 HD
BRANCH  18  20
ATOM     20  S   UNL     1      34.979 -17.164 -21.501  0.00  0.00    +0.073 S 
ATOM     21  O   UNL     1      35.298 -16.363 -20.335  0.00  0.00    -0.150 OA
ATOM     22  O   UNL     1      35.973 -17.389 -22.533  0.00  0.00    -0.150 OA
BRANCH  20  23
ATOM     23  C   UNL     1      34.458 -18.753 -20.922  0.00  0.00    +0.121 C 
ATOM     24  C   UNL     1      35.392 -19.714 -20.571  0.00  0.00    -0.003 C 
ATOM     25  C   UNL     1      33.098 -19.001 -20.831  0.00  0.00    +0.020 C 
ATOM     26  C   UNL     1      34.954 -20.959 -20.118  0.00  0.00    -0.003 C 
ATOM     27  C   UNL     1      36.861 -19.462 -20.664  0.00  0.00    +0.032 C 
ATOM     28  C   UNL     1      32.659 -20.246 -20.378  0.00  0.00    +0.001 C 
ATOM     29  C   UNL     1      33.587 -21.225 -20.021  0.00  0.00    -0.000 C 
ENDBRANCH  20  23
ENDBRANCH  18  20
ENDBRANCH   2  18
TORSDOF 7
ENDMDL
MODEL 2
REMARK VINA RESULT:      -9.9      2.529      8.841
REMARK  Name = 9543494
REMARK  7 active torsions:
REMARK  status: ('A' for Active; 'I' for Inactive)
REMARK    1  A    between atoms: C_2  and  N_18
REMARK    2  A    between atoms: C_3  and  C_6
REMARK    3  A    between atoms: C_5  and  C_15
REMARK    4  A    between atoms: C_11  and  C_13
REMARK    5  A    between atoms: C_15  and  O_16
REMARK    6  A    between atoms: N_18  and  S_20
REMARK    7  A    between atoms: S_20  and  C_23
REMARK                            x       y       z     vdW  Elec       q    Type
REMARK                         _______ _______ _______ _____ _____    ______ ____
ROOT
ATOM      1  S   UNL     1      34.673 -19.316 -23.315  0.00  0.00    -0.079 S 
ATOM      2  C   UNL     1      34.411 -16.831 -22.720  0.00  0.00    +0.078 C 
ATOM      3  C   UNL     1      34.460 -18.903 -21.666  0.00  0.00    +0.031 C 
ATOM      4  C   UNL     1      34.333 -17.542 -21.488  0.00  0.00    +0.023 C 
ATOM      5  C   UNL     1      34.595 -17.674 -23.793  0.00  0.00    +0.119 C 
ENDROOT
BRANCH   3   6
ATOM      6  C   UNL     1      34.435 -19.956 -20.681  0.00  0.00    +0.006 C 
ATOM      7  C   UNL     1      33.216 -20.434 -20.200  0.00  0.00    +0.001 C 
ATOM      8  C   UNL     1      35.630 -20.495 -20.207  0.00  0.00    +0.001 C 
ATOM      9  C   UNL     1      33.192 -21.450 -19.246  0.00  0.00    +0.010 C 
ATOM     10  C   UNL     1      35.607 -21.513 -19.253  0.00  0.00    +0.010 C 
ATOM     11  C   UNL     1      34.387 -21.990 -18.773  0.00  0.00    +0.068 C 
BRANCH  11  13
ATOM     12  N   UNL     1      34.344 -23.878 -16.998  0.00  0.00    -0.191 NA
ATOM     13  C   UNL     1      34.363 -23.032 -17.794  0.00  0.00    +0.100 C 
ENDBRANCH  11  13
ENDBRANCH   3   6
BRANCH   5  15
ATOM     14  O   UNL     1      34.933 -16.226 -25.668  0.00  0.00    -0.244 OA
ATOM     15  C   UNL     1      34.722 -17.358 -25.181  0.00  0.00    +0.345 C 
BRANCH  15  16
ATOM     16  O   UNL     1      34.591 -18.447 -26.004  0.00  0.00    -0.477 OA
ATOM     17  H   UNL     1      33.768 -18.628 -26.414  0.00  0.00    +0.295 HD
ENDBRANCH  15  16
ENDBRANCH   5  15
BRANCH   2  18
ATOM     18  N   UNL     1      34.309 -15.429 -22.793  0.00  0.00    -0.214 N 
ATOM     19  H   UNL     1      34.851 -14.967 -23.473  0.00  0.00    +0.174 HD
BRANCH  18  20
ATOM     20  S   UNL     1      33.313 -14.474 -21.789  0.00  0.00    +0.073 S 
ATOM     21  O   UNL     1      34.012 -14.175 -20.553  0.00  0.00    -0.150 OA
ATOM     22  O   UNL     1      31.974 -15.030 -21.760  0.00  0.00    -0.150 OA
BRANCH  20  23
ATOM     23  C   UNL     1      33.237 -12.975 -22.726  0.00  0.00    +0.121 C 
ATOM     24  C   UNL     1      32.469 -11.908 -22.286  0.00  0.00    -0.003 C 
ATOM     25  C   UNL     1      33.963 -12.903 -23.904  0.00  0.00    +0.020 C 
ATOM     26  C   UNL     1      32.427 -10.739 -23.045  0.00  0.00    -0.003 C 
ATOM     27  C   UNL     1      31.680 -11.970 -21.020  0.00  0.00    +0.032 C 
ATOM     28  C   UNL     1      33.920 -11.734 -24.663  0.00  0.00    +0.001 C 
ATOM     29  C   UNL     1      33.152 -10.651 -24.234  0.00  0.00    -0.000 C 
ENDBRANCH  20  23
ENDBRANCH  18  20
ENDBRANCH   2  18
TORSDOF 7
ENDMDL
MODEL 3
REMARK VINA RESULT:      -9.6      2.525      8.766
REMARK  Name = 9543494
REMARK  7 active torsions:
REMARK  status: ('A' for Active; 'I' for Inactive)
REMARK    1  A    between atoms: C_2  and  N_18
REMARK    2  A    between atoms: C_3  and  C_6
REMARK    3  A    between atoms: C_5  and  C_15
REMARK    4  A    between atoms: C_11  and  C_13
REMARK    5  A    between atoms: C_15  and  O_16
REMARK    6  A    between atoms: N_18  and  S_20
REMARK    7  A    between atoms: S_20  and  C_23
REMARK                            x       y       z     vdW  Elec       q    Type
REMARK                         _______ _______ _______ _____ _____    ______ ____
ROOT
ATOM      1  S   UNL     1      34.190 -17.537 -24.306  0.00  0.00    -0.079 S 
ATOM      2  C   UNL     1      34.290 -15.071 -23.594  0.00  0.00    +0.078 C 
ATOM      3  C   UNL     1      34.673 -17.184 -22.701  0.00  0.00    +0.031 C 
ATOM      4  C   UNL     1      34.683 -15.828 -22.453  0.00  0.00    +0.023 C 
ATOM      5  C   UNL     1      33.994 -15.877 -24.672  0.00  0.00    +0.119 C 
ENDROOT
BRANCH   3   6
ATOM      6  C   UNL     1      35.003 -18.274 -21.815  0.00  0.00    +0.006 C 
ATOM      7  C   UNL     1      36.332 -18.511 -21.466  0.00  0.00    +0.001 C 
ATOM      8  C   UNL     1      33.993 -19.092 -21.311  0.00  0.00    +0.001 C 
ATOM      9  C   UNL     1      36.651 -19.566 -20.612  0.00  0.00    +0.010 C 
ATOM     10  C   UNL     1      34.311 -20.147 -20.456  0.00  0.00    +0.010 C 
ATOM     11  C   UNL     1      35.640 -20.384 -20.107  0.00  0.00    +0.068 C 
BRANCH  11  13
ATOM     12  N   UNL     1      36.234 -22.346 -18.520  0.00  0.00    -0.191 NA
ATOM     13  C   UNL     1      35.967 -21.466 -19.232  0.00  0.00    +0.100 C 
ENDBRANCH  11  13
ENDBRANCH   3   6
BRANCH   5  15
ATOM     14  O   UNL     1      33.899 -14.482 -26.613  0.00  0.00    -0.244 OA
ATOM     15  C   UNL     1      33.567 -15.510 -25.984  0.00  0.00    +0.345 C 
BRANCH  15  16
ATOM     16  O   UNL     1      32.710 -16.417 -26.554  0.00  0.00    -0.477 OA
ATOM     17  H   UNL     1      31.790 -16.365 -26.383  0.00  0.00    +0.295 HD
ENDBRANCH  15  16
ENDBRANCH   5  15
BRANCH   2  18
ATOM     18  N   UNL     1      34.223 -13.666 -23.585  0.00  0.00    -0.214 N 
ATOM     19  H   UNL     1      35.041 -13.168 -23.815  0.00  0.00    +0.174 HD
BRANCH  18  20
ATOM     20  S   UNL     1      32.827 -12.761 -23.203  0.00  0.00    +0.073 S 
ATOM     21  O   UNL     1      32.565 -12.848 -21.779  0.00  0.00    -0.150 OA
ATOM     22  O   UNL     1      31.779 -13.055 -24.162  0.00  0.00    -0.150 OA
BRANCH  20  23
ATOM     23  C   UNL     1      33.394 -11.119 -23.535  0.00  0.00    +0.121 C 
ATOM     24  C   UNL     1      32.692 -10.023 -23.060  0.00  0.00    -0.003 C 
ATOM     25  C   UNL     1      34.553 -10.966 -24.278  0.00  0.00    +0.020 C 
ATOM     26  C   UNL     1      33.161  -8.739 -23.337  0.00  0.00    -0.003 C 
ATOM     27  C   UNL     1      31.440 -10.171 -22.258  0.00  0.00    +0.032 C 
ATOM     28  C   UNL     1      35.023  -9.681 -24.555  0.00  0.00    +0.001 C 
ATOM     29  C   UNL     1      34.327  -8.568 -24.084  0.00  0.00    -0.000 C 
ENDBRANCH  20  23
ENDBRANCH  18  20
ENDBRANCH   2  18
TORSDOF 7
ENDMDL
MODEL 4
REMARK VINA RESULT:      -9.6      8.586     11.815
REMARK  Name = 9543494
REMARK  7 active torsions:
REMARK  status: ('A' for Active; 'I' for Inactive)
REMARK    1  A    between atoms: C_2  and  N_18
REMARK    2  A    between atoms: C_3  and  C_6
REMARK    3  A    between atoms: C_5  and  C_15
REMARK    4  A    between atoms: C_11  and  C_13
REMARK    5  A    between atoms: C_15  and  O_16
REMARK    6  A    between atoms: N_18  and  S_20
REMARK    7  A    between atoms: S_20  and  C_23
REMARK                            x       y       z     vdW  Elec       q    Type
REMARK                         _______ _______ _______ _____ _____    ______ ____
ROOT
ATOM      1  S   UNL     1      31.972 -23.181 -16.488  0.00  0.00    -0.079 S 
ATOM      2  C   UNL     1      33.730 -24.333 -15.012  0.00  0.00    +0.078 C 
ATOM      3  C   UNL     1      33.621 -23.009 -16.920  0.00  0.00    +0.031 C 
ATOM      4  C   UNL     1      34.454 -23.674 -16.047  0.00  0.00    +0.023 C 
ATOM      5  C   UNL     1      32.370 -24.146 -15.132  0.00  0.00    +0.119 C 
ENDROOT
BRANCH   3   6
ATOM      6  C   UNL     1      33.959 -22.231 -18.087  0.00  0.00    +0.006 C 
ATOM      7  C   UNL     1      35.296 -22.015 -18.418  0.00  0.00    +0.001 C 
ATOM      8  C   UNL     1      32.948 -21.693 -18.882  0.00  0.00    +0.001 C 
ATOM      9  C   UNL     1      35.623 -21.260 -19.544  0.00  0.00    +0.010 C 
ATOM     10  C   UNL     1      33.274 -20.939 -20.010  0.00  0.00    +0.010 C 
ATOM     11  C   UNL     1      34.611 -20.723 -20.340  0.00  0.00    +0.068 C 
BRANCH  11  13
ATOM     12  N   UNL     1      35.217 -19.321 -22.434  0.00  0.00    -0.191 NA
ATOM     13  C   UNL     1      34.946 -19.949 -21.495  0.00  0.00    +0.100 C 
ENDBRANCH  11  13
ENDBRANCH   3   6
BRANCH   5  15
ATOM     14  O   UNL     1      31.424 -25.066 -13.136  0.00  0.00    -0.244 OA
ATOM     15  C   UNL     1      31.313 -24.636 -14.305  0.00  0.00    +0.345 C 
BRANCH  15  16
ATOM     16  O   UNL     1      30.084 -24.602 -14.912  0.00  0.00    -0.477 OA
ATOM     17  H   UNL     1      29.908 -25.158 -15.645  0.00  0.00    +0.295 HD
ENDBRANCH  15  16
ENDBRANCH   5  15
BRANCH   2  18
ATOM     18  N   UNL     1      34.363 -25.078 -14.000  0.00  0.00    -0.214 N 
ATOM     19  H   UNL     1      34.162 -26.041 -13.948  0.00  0.00    +0.174 HD
BRANCH  18  20
ATOM     20  S   UNL     1      35.454 -24.433 -12.857  0.00  0.00    +0.073 S 
ATOM     21  O   UNL     1      35.207 -25.030 -11.557  0.00  0.00    -0.150 OA
ATOM     22  O   UNL     1      35.518 -22.992 -13.003  0.00  0.00    -0.150 OA
BRANCH  20  23
ATOM     23  C   UNL     1      36.986 -25.088 -13.453  0.00  0.00    +0.121 C 
ATOM     24  C   UNL     1      38.189 -24.670 -12.908  0.00  0.00    -0.003 C 
ATOM     25  C   UNL     1      36.943 -26.024 -14.474  0.00  0.00    +0.020 C 
ATOM     26  C   UNL     1      39.382 -25.202 -13.398  0.00  0.00    -0.003 C 
ATOM     27  C   UNL     1      38.253 -23.661 -11.809  0.00  0.00    +0.032 C 
ATOM     28  C   UNL     1      38.135 -26.556 -14.964  0.00  0.00    +0.001 C 
ATOM     29  C   UNL     1      39.356 -26.145 -14.426  0.00  0.00    -0.000 C 
ENDBRANCH  20  23
ENDBRANCH  18  20
ENDBRANCH   2  18
TORSDOF 7
ENDMDL
MODEL 5
REMARK VINA RESULT:      -9.3      4.840      9.868
REMARK  Name = 9543494
REMARK  7 active torsions:
REMARK  status: ('A' for Active; 'I' for Inactive)
REMARK    1  A    between atoms: C_2  and  N_18
REMARK    2  A    between atoms: C_3  and  C_6
REMARK    3  A    between atoms: C_5  and  C_15
REMARK    4  A    between atoms: C_11  and  C_13
REMARK    5  A    between atoms: C_15  and  O_16
REMARK    6  A    between atoms: N_18  and  S_20
REMARK    7  A    between atoms: S_20  and  C_23
REMARK                            x       y       z     vdW  Elec       q    Type
REMARK                         _______ _______ _______ _____ _____    ______ ____
ROOT
ATOM      1  S   UNL     1      32.106 -12.233 -20.890  0.00  0.00    -0.079 S 
ATOM      2  C   UNL     1      31.782 -10.009 -22.133  0.00  0.00    +0.078 C 
ATOM      3  C   UNL     1      32.470 -12.188 -22.563  0.00  0.00    +0.031 C 
ATOM      4  C   UNL     1      32.252 -10.939 -23.104  0.00  0.00    +0.023 C 
ATOM      5  C   UNL     1      31.657 -10.582 -20.886  0.00  0.00    +0.119 C 
ENDROOT
BRANCH   3   6
ATOM      6  C   UNL     1      32.942 -13.389 -23.208  0.00  0.00    +0.006 C 
ATOM      7  C   UNL     1      32.849 -13.521 -24.593  0.00  0.00    +0.001 C 
ATOM      8  C   UNL     1      33.488 -14.421 -22.445  0.00  0.00    +0.001 C 
ATOM      9  C   UNL     1      33.302 -14.683 -25.215  0.00  0.00    +0.010 C 
ATOM     10  C   UNL     1      33.942 -15.583 -23.067  0.00  0.00    +0.010 C 
ATOM     11  C   UNL     1      33.849 -15.714 -24.452  0.00  0.00    +0.068 C 
BRANCH  11  13
ATOM     12  N   UNL     1      34.691 -17.876 -25.607  0.00  0.00    -0.191 NA
ATOM     13  C   UNL     1      34.314 -16.907 -25.090  0.00  0.00    +0.100 C 
ENDBRANCH  11  13
ENDBRANCH   3   6
BRANCH   5  15
ATOM     14  O   UNL     1      30.313 -10.418 -18.914  0.00  0.00    -0.244 OA
ATOM     15  C   UNL     1      31.221  -9.993 -19.660  0.00  0.00    +0.345 C 
BRANCH  15  16
ATOM     16  O   UNL     1      31.909  -8.854 -19.326  0.00  0.00    -0.477 OA
ATOM     17  H   UNL     1      32.149  -8.239 -19.991  0.00  0.00    +0.295 HD
ENDBRANCH  15  16
ENDBRANCH   5  15
BRANCH   2  18
ATOM     18  N   UNL     1      31.488  -8.669 -22.446  0.00  0.00    -0.214 N 
ATOM     19  H   UNL     1      30.701  -8.494 -23.012  0.00  0.00    +0.174 HD
BRANCH  18  20
ATOM     20  S   UNL     1      32.398  -7.325 -21.918  0.00  0.00    +0.073 S 
ATOM     21  O   UNL     1      33.645  -7.781 -21.332  0.00  0.00    -0.150 OA
ATOM     22  O   UNL     1      31.538  -6.409 -21.194  0.00  0.00    -0.150 OA
BRANCH  20  23
ATOM     23  C   UNL     1      32.792  -6.562 -23.465  0.00  0.00    +0.121 C 
ATOM     24  C   UNL     1      33.922  -6.944 -24.169  0.00  0.00    -0.003 C 
ATOM     25  C   UNL     1      31.941  -5.579 -23.944  0.00  0.00    +0.020 C 
ATOM     26  C   UNL     1      34.210  -6.324 -25.386  0.00  0.00    -0.003 C 
ATOM     27  C   UNL     1      34.851  -8.000 -23.666  0.00  0.00    +0.032 C 
ATOM     28  C   UNL     1      32.228  -4.960 -25.160  0.00  0.00    +0.001 C 
ATOM     29  C   UNL     1      33.363  -5.333 -25.882  0.00  0.00    -0.000 C 
ENDBRANCH  20  23
ENDBRANCH  18  20
ENDBRANCH   2  18
TORSDOF 7
ENDMDL
MODEL 6
REMARK VINA RESULT:      -9.2      1.147      1.624
REMARK  Name = 9543494
REMARK  7 active torsions:
REMARK  status: ('A' for Active; 'I' for Inactive)
REMARK    1  A    between atoms: C_2  and  N_18
REMARK    2  A    between atoms: C_3  and  C_6
REMARK    3  A    between atoms: C_5  and  C_15
REMARK    4  A    between atoms: C_11  and  C_13
REMARK    5  A    between atoms: C_15  and  O_16
REMARK    6  A    between atoms: N_18  and  S_20
REMARK    7  A    between atoms: S_20  and  C_23
REMARK                            x       y       z     vdW  Elec       q    Type
REMARK                         _______ _______ _______ _____ _____    ______ ____
ROOT
ATOM      1  S   UNL     1      33.318 -13.374 -25.424  0.00  0.00    -0.079 S 
ATOM      2  C   UNL     1      33.878 -15.013 -23.528  0.00  0.00    +0.078 C 
ATOM      3  C   UNL     1      33.502 -12.740 -23.844  0.00  0.00    +0.031 C 
ATOM      4  C   UNL     1      33.800 -13.724 -22.926  0.00  0.00    +0.023 C 
ATOM      5  C   UNL     1      33.637 -14.966 -24.883  0.00  0.00    +0.119 C 
ENDROOT
BRANCH   3   6
ATOM      6  C   UNL     1      33.338 -11.322 -23.637  0.00  0.00    +0.006 C 
ATOM      7  C   UNL     1      32.268 -10.846 -22.880  0.00  0.00    +0.001 C 
ATOM      8  C   UNL     1      34.249 -10.426 -24.197  0.00  0.00    +0.001 C 
ATOM      9  C   UNL     1      32.107  -9.475 -22.683  0.00  0.00    +0.010 C 
ATOM     10  C   UNL     1      34.089  -9.055 -23.999  0.00  0.00    +0.010 C 
ATOM     11  C   UNL     1      33.019  -8.579 -23.242  0.00  0.00    +0.068 C 
BRANCH  11  13
ATOM     12  N   UNL     1      32.722  -6.031 -22.875  0.00  0.00    -0.191 NA
ATOM     13  C   UNL     1      32.855  -7.174 -23.040  0.00  0.00    +0.100 C 
ENDBRANCH  11  13
ENDBRANCH   3   6
BRANCH   5  15
ATOM     14  O   UNL     1      32.688 -16.314 -26.617  0.00  0.00    -0.244 OA
ATOM     15  C   UNL     1      33.622 -16.030 -25.836  0.00  0.00    +0.345 C 
BRANCH  15  16
ATOM     16  O   UNL     1      34.775 -16.772 -25.846  0.00  0.00    -0.477 OA
ATOM     17  H   UNL     1      34.829 -17.561 -25.343  0.00  0.00    +0.295 HD
ENDBRANCH  15  16
ENDBRANCH   5  15
BRANCH   2  18
ATOM     18  N   UNL     1      34.169 -16.176 -22.792  0.00  0.00    -0.214 N 
ATOM     19  H   UNL     1      34.586 -16.929 -23.272  0.00  0.00    +0.174 HD
BRANCH  18  20
ATOM     20  S   UNL     1      33.851 -16.379 -21.127  0.00  0.00    +0.073 S 
ATOM     21  O   UNL     1      32.480 -15.996 -20.844  0.00  0.00    -0.150 OA
ATOM     22  O   UNL     1      34.944 -15.825 -20.352  0.00  0.00    -0.150 OA
BRANCH  20  23
ATOM     23  C   UNL     1      33.946 -18.139 -20.983  0.00  0.00    +0.121 C 
ATOM     24  C   UNL     1      35.123 -18.807 -21.282  0.00  0.00    -0.003 C 
ATOM     25  C   UNL     1      32.815 -18.823 -20.564  0.00  0.00    +0.020 C 
ATOM     26  C   UNL     1      35.170 -20.196 -21.160  0.00  0.00    -0.003 C 
ATOM     27  C   UNL     1      36.349 -18.086 -21.736  0.00  0.00    +0.032 C 
ATOM     28  C   UNL     1      32.862 -20.212 -20.442  0.00  0.00    +0.001 C 
ATOM     29  C   UNL     1      34.040 -20.898 -20.740  0.00  0.00    -0.000 C 
ENDBRANCH  20  23
ENDBRANCH  18  20
ENDBRANCH   2  18
TORSDOF 7
ENDMDL
MODEL 7
REMARK VINA RESULT:      -9.2      8.261     11.110
REMARK  Name = 9543494
REMARK  7 active torsions:
REMARK  status: ('A' for Active; 'I' for Inactive)
REMARK    1  A    between atoms: C_2  and  N_18
REMARK    2  A    between atoms: C_3  and  C_6
REMARK    3  A    between atoms: C_5  and  C_15
REMARK    4  A    between atoms: C_11  and  C_13
REMARK    5  A    between atoms: C_15  and  O_16
REMARK    6  A    between atoms: N_18  and  S_20
REMARK    7  A    between atoms: S_20  and  C_23
REMARK                            x       y       z     vdW  Elec       q    Type
REMARK                         _______ _______ _______ _____ _____    ______ ____
ROOT
ATOM      1  S   UNL     1      35.690 -22.638 -16.479  0.00  0.00    -0.079 S 
ATOM      2  C   UNL     1      33.516 -23.818 -15.787  0.00  0.00    +0.078 C 
ATOM      3  C   UNL     1      34.337 -22.504 -17.521  0.00  0.00    +0.031 C 
ATOM      4  C   UNL     1      33.241 -23.182 -17.032  0.00  0.00    +0.023 C 
ATOM      5  C   UNL     1      34.812 -23.603 -15.372  0.00  0.00    +0.119 C 
ENDROOT
BRANCH   3   6
ATOM      6  C   UNL     1      34.466 -21.740 -18.738  0.00  0.00    +0.006 C 
ATOM      7  C   UNL     1      35.730 -21.473 -19.263  0.00  0.00    +0.001 C 
ATOM      8  C   UNL     1      33.327 -21.267 -19.388  0.00  0.00    +0.001 C 
ATOM      9  C   UNL     1      35.855 -20.732 -20.438  0.00  0.00    +0.010 C 
ATOM     10  C   UNL     1      33.451 -20.527 -20.564  0.00  0.00    +0.010 C 
ATOM     11  C   UNL     1      34.715 -20.259 -21.088  0.00  0.00    +0.068 C 
BRANCH  11  13
ATOM     12  N   UNL     1      34.948 -18.882 -23.272  0.00  0.00    -0.191 NA
ATOM     13  C   UNL     1      34.843 -19.500 -22.293  0.00  0.00    +0.100 C 
ENDBRANCH  11  13
ENDBRANCH   3   6
BRANCH   5  15
ATOM     14  O   UNL     1      36.441 -24.853 -14.144  0.00  0.00    -0.244 OA
ATOM     15  C   UNL     1      35.472 -24.065 -14.192  0.00  0.00    +0.345 C 
BRANCH  15  16
ATOM     16  O   UNL     1      34.942 -23.555 -13.034  0.00  0.00    -0.477 OA
ATOM     17  H   UNL     1      35.501 -23.144 -12.404  0.00  0.00    +0.295 HD
ENDBRANCH  15  16
ENDBRANCH   5  15
BRANCH   2  18
ATOM     18  N   UNL     1      32.552 -24.571 -15.091  0.00  0.00    -0.214 N 
ATOM     19  H   UNL     1      32.503 -25.536 -15.279  0.00  0.00    +0.174 HD
BRANCH  18  20
ATOM     20  S   UNL     1      31.461 -23.931 -13.945  0.00  0.00    +0.073 S 
ATOM     21  O   UNL     1      31.954 -22.655 -13.463  0.00  0.00    -0.150 OA
ATOM     22  O   UNL     1      31.072 -24.969 -13.010  0.00  0.00    -0.150 OA
BRANCH  20  23
ATOM     23  C   UNL     1      30.058 -23.599 -14.972  0.00  0.00    +0.121 C 
ATOM     24  C   UNL     1      29.469 -24.615 -15.707  0.00  0.00    -0.003 C 
ATOM     25  C   UNL     1      29.573 -22.302 -15.015  0.00  0.00    +0.020 C 
ATOM     26  C   UNL     1      28.365 -24.325 -16.509  0.00  0.00    -0.003 C 
ATOM     27  C   UNL     1      29.981 -26.018 -15.673  0.00  0.00    +0.032 C 
ATOM     28  C   UNL     1      28.469 -22.013 -15.817  0.00  0.00    +0.001 C 
ATOM     29  C   UNL     1      27.864 -23.024 -16.564  0.00  0.00    -0.000 C 
ENDBRANCH  20  23
ENDBRANCH  18  20
ENDBRANCH   2  18
TORSDOF 7
ENDMDL
MODEL 8
REMARK VINA RESULT:      -9.2      2.459      8.455
REMARK  Name = 9543494
REMARK  7 active torsions:
REMARK  status: ('A' for Active; 'I' for Inactive)
REMARK    1  A    between atoms: C_2  and  N_18
REMARK    2  A    between atoms: C_3  and  C_6
REMARK    3  A    between atoms: C_5  and  C_15
REMARK    4  A    between atoms: C_11  and  C_13
REMARK    5  A    between atoms: C_15  and  O_16
REMARK    6  A    between atoms: N_18  and  S_20
REMARK    7  A    between atoms: S_20  and  C_23
REMARK                            x       y       z     vdW  Elec       q    Type
REMARK                         _______ _______ _______ _____ _____    ______ ____
ROOT
ATOM      1  S   UNL     1      34.394 -18.528 -23.677  0.00  0.00    -0.079 S 
ATOM      2  C   UNL     1      34.438 -16.083 -22.892  0.00  0.00    +0.078 C 
ATOM      3  C   UNL     1      34.322 -18.225 -21.993  0.00  0.00    +0.031 C 
ATOM      4  C   UNL     1      34.354 -16.876 -21.711  0.00  0.00    +0.023 C 
ATOM      5  C   UNL     1      34.467 -16.856 -24.032  0.00  0.00    +0.119 C 
ENDROOT
BRANCH   3   6
ATOM      6  C   UNL     1      34.241 -19.343 -21.085  0.00  0.00    +0.006 C 
ATOM      7  C   UNL     1      35.404 -19.989 -20.667  0.00  0.00    +0.001 C 
ATOM      8  C   UNL     1      32.998 -19.780 -20.628  0.00  0.00    +0.001 C 
ATOM      9  C   UNL     1      35.325 -21.071 -19.792  0.00  0.00    +0.010 C 
ATOM     10  C   UNL     1      32.919 -20.862 -19.751  0.00  0.00    +0.010 C 
ATOM     11  C   UNL     1      34.082 -21.507 -19.333  0.00  0.00    +0.068 C 
BRANCH  11  13
ATOM     12  N   UNL     1      33.935 -23.519 -17.706  0.00  0.00    -0.191 NA
ATOM     13  C   UNL     1      34.001 -22.617 -18.436  0.00  0.00    +0.100 C 
ENDBRANCH  11  13
ENDBRANCH   3   6
BRANCH   5  15
ATOM     14  O   UNL     1      35.585 -16.132 -26.020  0.00  0.00    -0.244 OA
ATOM     15  C   UNL     1      34.547 -16.448 -25.399  0.00  0.00    +0.345 C 
BRANCH  15  16
ATOM     16  O   UNL     1      33.332 -16.424 -26.034  0.00  0.00    -0.477 OA
ATOM     17  H   UNL     1      33.178 -15.813 -26.728  0.00  0.00    +0.295 HD
ENDBRANCH  15  16
ENDBRANCH   5  15
BRANCH   2  18
ATOM     18  N   UNL     1      34.483 -14.678 -22.859  0.00  0.00    -0.214 N 
ATOM     19  H   UNL     1      35.190 -14.256 -22.318  0.00  0.00    +0.174 HD
BRANCH  18  20
ATOM     20  S   UNL     1      33.402 -13.650 -23.690  0.00  0.00    +0.073 S 
ATOM     21  O   UNL     1      32.349 -14.442 -24.298  0.00  0.00    -0.150 OA
ATOM     22  O   UNL     1      34.150 -12.692 -24.480  0.00  0.00    -0.150 OA
BRANCH  20  23
ATOM     23  C   UNL     1      32.681 -12.765 -22.338  0.00  0.00    +0.121 C 
ATOM     24  C   UNL     1      32.344 -11.428 -22.473  0.00  0.00    -0.003 C 
ATOM     25  C   UNL     1      32.466 -13.447 -21.151  0.00  0.00    +0.020 C 
ATOM     26  C   UNL     1      31.777 -10.754 -21.391  0.00  0.00    -0.003 C 
ATOM     27  C   UNL     1      32.570 -10.679 -23.745  0.00  0.00    +0.032 C 
ATOM     28  C   UNL     1      31.900 -12.773 -20.069  0.00  0.00    +0.001 C 
ATOM     29  C   UNL     1      31.555 -11.426 -20.189  0.00  0.00    -0.000 C 
ENDBRANCH  20  23
ENDBRANCH  18  20
ENDBRANCH   2  18
TORSDOF 7
ENDMDL
MODEL 9
REMARK VINA RESULT:      -9.2      1.487      2.439
REMARK  Name = 9543494
REMARK  7 active torsions:
REMARK  status: ('A' for Active; 'I' for Inactive)
REMARK    1  A    between atoms: C_2  and  N_18
REMARK    2  A    between atoms: C_3  and  C_6
REMARK    3  A    between atoms: C_5  and  C_15
REMARK    4  A    between atoms: C_11  and  C_13
REMARK    5  A    between atoms: C_15  and  O_16
REMARK    6  A    between atoms: N_18  and  S_20
REMARK    7  A    between atoms: S_20  and  C_23
REMARK                            x       y       z     vdW  Elec       q    Type
REMARK                         _______ _______ _______ _____ _____    ______ ____
ROOT
ATOM      1  S   UNL     1      33.879 -14.842 -24.521  0.00  0.00    -0.079 S 
ATOM      2  C   UNL     1      34.294 -16.299 -22.447  0.00  0.00    +0.078 C 
ATOM      3  C   UNL     1      33.539 -14.166 -22.984  0.00  0.00    +0.031 C 
ATOM      4  C   UNL     1      33.805 -15.052 -21.962  0.00  0.00    +0.023 C 
ATOM      5  C   UNL     1      34.383 -16.320 -23.821  0.00  0.00    +0.119 C 
ENDROOT
BRANCH   3   6
ATOM      6  C   UNL     1      33.037 -12.816 -22.911  0.00  0.00    +0.006 C 
ATOM      7  C   UNL     1      31.996 -12.505 -22.036  0.00  0.00    +0.001 C 
ATOM      8  C   UNL     1      33.591 -11.822 -23.717  0.00  0.00    +0.001 C 
ATOM      9  C   UNL     1      31.509 -11.200 -21.968  0.00  0.00    +0.010 C 
ATOM     10  C   UNL     1      33.105 -10.516 -23.647  0.00  0.00    +0.010 C 
ATOM     11  C   UNL     1      32.064 -10.206 -22.773  0.00  0.00    +0.068 C 
BRANCH  11  13
ATOM     12  N   UNL     1      31.159  -7.780 -22.647  0.00  0.00    -0.191 NA
ATOM     13  C   UNL     1      31.564  -8.868 -22.703  0.00  0.00    +0.100 C 
ENDBRANCH  11  13
ENDBRANCH   3   6
BRANCH   5  15
ATOM     14  O   UNL     1      34.423 -17.592 -25.847  0.00  0.00    -0.244 OA
ATOM     15  C   UNL     1      34.821 -17.372 -24.683  0.00  0.00    +0.345 C 
BRANCH  15  16
ATOM     16  O   UNL     1      35.774 -18.181 -24.117  0.00  0.00    -0.477 OA
ATOM     17  H   UNL     1      35.575 -19.077 -23.928  0.00  0.00    +0.295 HD
ENDBRANCH  15  16
ENDBRANCH   5  15
BRANCH   2  18
ATOM     18  N   UNL     1      34.635 -17.363 -21.592  0.00  0.00    -0.214 N 
ATOM     19  H   UNL     1      35.444 -17.264 -21.039  0.00  0.00    +0.174 HD
BRANCH  18  20
ATOM     20  S   UNL     1      33.748 -18.815 -21.445  0.00  0.00    +0.073 S 
ATOM     21  O   UNL     1      33.563 -19.407 -22.757  0.00  0.00    -0.150 OA
ATOM     22  O   UNL     1      32.613 -18.605 -20.567  0.00  0.00    -0.150 OA
BRANCH  20  23
ATOM     23  C   UNL     1      34.907 -19.825 -20.570  0.00  0.00    +0.121 C 
ATOM     24  C   UNL     1      34.477 -20.931 -19.856  0.00  0.00    -0.003 C 
ATOM     25  C   UNL     1      36.247 -19.477 -20.623  0.00  0.00    +0.020 C 
ATOM     26  C   UNL     1      35.413 -21.710 -19.174  0.00  0.00    -0.003 C 
ATOM     27  C   UNL     1      33.036 -21.319 -19.787  0.00  0.00    +0.032 C 
ATOM     28  C   UNL     1      37.183 -20.256 -19.942  0.00  0.00    +0.001 C 
ATOM     29  C   UNL     1      36.766 -21.373 -19.217  0.00  0.00    -0.000 C 
ENDBRANCH  20  23
ENDBRANCH  18  20
ENDBRANCH   2  18
TORSDOF 7
ENDMDL
