MODEL 1
REMARK VINA RESULT:      -8.4      0.000      0.000
REMARK  Name = 4723
REMARK  1 active torsions:
REMARK  status: ('A' for Active; 'I' for Inactive)
REMARK    1  A    between atoms: C_5  and  C_10
REMARK                            x       y       z     vdW  Elec       q    Type
REMARK                         _______ _______ _______ _____ _____    ______ ____
ROOT
ATOM      1  O   UNL     1      35.475 -18.707 -23.163  0.00  0.00    -0.422 OA
ATOM      2  O   UNL     1      35.189 -16.595 -20.431  0.00  0.00    -0.210 OA
ATOM      3  N   UNL     1      34.824 -16.596 -22.718  0.00  0.00    -0.282 NA
ATOM      4  N   UNL     1      34.717 -17.485 -24.942  0.00  0.00    -0.302 N 
ATOM      5  C   UNL     1      35.735 -18.536 -21.766  0.00  0.00    +0.308 C 
ATOM      6  C   UNL     1      35.228 -17.141 -21.527  0.00  0.00    +0.229 C 
ATOM      7  C   UNL     1      34.980 -17.518 -23.607  0.00  0.00    +0.348 C 
ATOM      8  H   UNL     1      34.890 -18.279 -25.498  0.00  0.00    +0.148 HD
ATOM      9  H   UNL     1      34.355 -16.666 -25.353  0.00  0.00    +0.148 HD
ENDROOT
BRANCH   5  10
ATOM     10  C   UNL     1      34.979 -19.562 -20.989  0.00  0.00    +0.035 C 
ATOM     11  C   UNL     1      33.584 -19.536 -20.972  0.00  0.00    +0.000 C 
ATOM     12  C   UNL     1      35.667 -20.546 -20.279  0.00  0.00    +0.000 C 
ATOM     13  C   UNL     1      32.877 -20.495 -20.247  0.00  0.00    -0.000 C 
ATOM     14  C   UNL     1      34.960 -21.505 -19.554  0.00  0.00    -0.000 C 
ATOM     15  C   UNL     1      33.566 -21.480 -19.538  0.00  0.00    -0.000 C 
ENDBRANCH   5  10
TORSDOF 1
ENDMDL
MODEL 2
REMARK VINA RESULT:      -8.4      0.024      1.341
REMARK  Name = 4723
REMARK  1 active torsions:
REMARK  status: ('A' for Active; 'I' for Inactive)
REMARK    1  A    between atoms: C_5  and  C_10
REMARK                            x       y       z     vdW  Elec       q    Type
REMARK                         _______ _______ _______ _____ _____    ______ ____
ROOT
ATOM      1  O   UNL     1      35.460 -18.735 -23.165  0.00  0.00    -0.422 OA
ATOM      2  O   UNL     1      35.206 -16.611 -20.439  0.00  0.00    -0.210 OA
ATOM      3  N   UNL     1      34.825 -16.618 -22.722  0.00  0.00    -0.282 NA
ATOM      4  N   UNL     1      34.697 -17.514 -24.943  0.00  0.00    -0.302 N 
ATOM      5  C   UNL     1      35.730 -18.561 -21.770  0.00  0.00    +0.308 C 
ATOM      6  C   UNL     1      35.234 -17.162 -21.533  0.00  0.00    +0.229 C 
ATOM      7  C   UNL     1      34.969 -17.544 -23.610  0.00  0.00    +0.348 C 
ATOM      8  H   UNL     1      34.862 -18.311 -25.497  0.00  0.00    +0.148 HD
ATOM      9  H   UNL     1      34.337 -16.694 -25.354  0.00  0.00    +0.148 HD
ENDROOT
BRANCH   5  10
ATOM     10  C   UNL     1      34.974 -19.579 -20.985  0.00  0.00    +0.035 C 
ATOM     11  C   UNL     1      35.661 -20.561 -20.271  0.00  0.00    +0.000 C 
ATOM     12  C   UNL     1      33.579 -19.550 -20.966  0.00  0.00    +0.000 C 
ATOM     13  C   UNL     1      34.954 -21.513 -19.537  0.00  0.00    -0.000 C 
ATOM     14  C   UNL     1      32.872 -20.503 -20.232  0.00  0.00    -0.000 C 
ATOM     15  C   UNL     1      33.559 -21.483 -19.517  0.00  0.00    -0.000 C 
ENDBRANCH   5  10
TORSDOF 1
ENDMDL
MODEL 3
REMARK VINA RESULT:      -7.6      2.596      4.598
REMARK  Name = 4723
REMARK  1 active torsions:
REMARK  status: ('A' for Active; 'I' for Inactive)
REMARK    1  A    between atoms: C_5  and  C_10
REMARK                            x       y       z     vdW  Elec       q    Type
REMARK                         _______ _______ _______ _____ _____    ______ ____
ROOT
ATOM      1  O   UNL     1      33.537 -19.220 -20.821  0.00  0.00    -0.422 OA
ATOM      2  O   UNL     1      36.999 -19.248 -20.958  0.00  0.00    -0.210 OA
ATOM      3  N   UNL     1      35.240 -20.607 -20.312  0.00  0.00    -0.282 NA
ATOM      4  N   UNL     1      32.958 -21.273 -19.991  0.00  0.00    -0.302 N 
ATOM      5  C   UNL     1      34.717 -18.459 -21.095  0.00  0.00    +0.308 C 
ATOM      6  C   UNL     1      35.803 -19.454 -20.792  0.00  0.00    +0.229 C 
ATOM      7  C   UNL     1      33.963 -20.427 -20.350  0.00  0.00    +0.348 C 
ATOM      8  H   UNL     1      32.020 -20.989 -20.080  0.00  0.00    +0.148 HD
ATOM      9  H   UNL     1      33.171 -22.169 -19.641  0.00  0.00    +0.148 HD
ENDROOT
BRANCH   5  10
ATOM     10  C   UNL     1      34.713 -18.031 -22.524  0.00  0.00    +0.035 C 
ATOM     11  C   UNL     1      34.582 -18.981 -23.537  0.00  0.00    +0.000 C 
ATOM     12  C   UNL     1      34.842 -16.680 -22.848  0.00  0.00    +0.000 C 
ATOM     13  C   UNL     1      34.578 -18.581 -24.873  0.00  0.00    -0.000 C 
ATOM     14  C   UNL     1      34.838 -16.280 -24.184  0.00  0.00    -0.000 C 
ATOM     15  C   UNL     1      34.705 -17.230 -25.196  0.00  0.00    -0.000 C 
ENDBRANCH   5  10
TORSDOF 1
ENDMDL
MODEL 4
REMARK VINA RESULT:      -7.5      1.093      2.527
REMARK  Name = 4723
REMARK  1 active torsions:
REMARK  status: ('A' for Active; 'I' for Inactive)
REMARK    1  A    between atoms: C_5  and  C_10
REMARK                            x       y       z     vdW  Elec       q    Type
REMARK                         _______ _______ _______ _____ _____    ______ ____
ROOT
ATOM      1  O   UNL     1      33.820 -17.375 -20.944  0.00  0.00    -0.422 OA
ATOM      2  O   UNL     1      35.437 -18.983 -23.553  0.00  0.00    -0.210 OA
ATOM      3  N   UNL     1      35.382 -16.919 -22.505  0.00  0.00    -0.282 NA
ATOM      4  N   UNL     1      34.724 -15.274 -20.889  0.00  0.00    -0.302 N 
ATOM      5  C   UNL     1      33.895 -18.564 -21.738  0.00  0.00    +0.308 C 
ATOM      6  C   UNL     1      34.986 -18.215 -22.712  0.00  0.00    +0.229 C 
ATOM      7  C   UNL     1      34.699 -16.491 -21.497  0.00  0.00    +0.348 C 
ATOM      8  H   UNL     1      34.136 -15.095 -20.120  0.00  0.00    +0.148 HD
ATOM      9  H   UNL     1      35.331 -14.571 -21.219  0.00  0.00    +0.148 HD
ENDROOT
BRANCH   5  10
ATOM     10  C   UNL     1      34.252 -19.722 -20.868  0.00  0.00    +0.035 C 
ATOM     11  C   UNL     1      35.592 -20.041 -20.646  0.00  0.00    +0.000 C 
ATOM     12  C   UNL     1      33.246 -20.486 -20.276  0.00  0.00    +0.000 C 
ATOM     13  C   UNL     1      35.926 -21.123 -19.832  0.00  0.00    -0.000 C 
ATOM     14  C   UNL     1      33.580 -21.568 -19.462  0.00  0.00    -0.000 C 
ATOM     15  C   UNL     1      34.919 -21.887 -19.240  0.00  0.00    -0.000 C 
ENDBRANCH   5  10
TORSDOF 1
ENDMDL
MODEL 5
REMARK VINA RESULT:      -7.4      3.153      4.266
REMARK  Name = 4723
REMARK  1 active torsions:
REMARK  status: ('A' for Active; 'I' for Inactive)
REMARK    1  A    between atoms: C_5  and  C_10
REMARK                            x       y       z     vdW  Elec       q    Type
REMARK                         _______ _______ _______ _____ _____    ______ ____
ROOT
ATOM      1  O   UNL     1      34.817 -14.303 -23.039  0.00  0.00    -0.422 OA
ATOM      2  O   UNL     1      32.095 -15.591 -21.325  0.00  0.00    -0.210 OA
ATOM      3  N   UNL     1      32.659 -13.778 -22.650  0.00  0.00    -0.282 NA
ATOM      4  N   UNL     1      34.042 -12.397 -24.040  0.00  0.00    -0.302 N 
ATOM      5  C   UNL     1      34.355 -15.317 -22.141  0.00  0.00    +0.308 C 
ATOM      6  C   UNL     1      32.909 -14.943 -21.971  0.00  0.00    +0.229 C 
ATOM      7  C   UNL     1      33.764 -13.460 -23.237  0.00  0.00    +0.348 C 
ATOM      8  H   UNL     1      34.944 -12.289 -24.419  0.00  0.00    +0.148 HD
ATOM      9  H   UNL     1      33.340 -11.735 -24.240  0.00  0.00    +0.148 HD
ENDROOT
BRANCH   5  10
ATOM     10  C   UNL     1      34.531 -16.658 -22.771  0.00  0.00    +0.035 C 
ATOM     11  C   UNL     1      34.709 -17.787 -21.971  0.00  0.00    +0.000 C 
ATOM     12  C   UNL     1      34.517 -16.783 -24.160  0.00  0.00    +0.000 C 
ATOM     13  C   UNL     1      34.873 -19.040 -22.559  0.00  0.00    -0.000 C 
ATOM     14  C   UNL     1      34.682 -18.037 -24.749  0.00  0.00    -0.000 C 
ATOM     15  C   UNL     1      34.859 -19.166 -23.949  0.00  0.00    -0.000 C 
ENDBRANCH   5  10
TORSDOF 1
ENDMDL
MODEL 6
REMARK VINA RESULT:      -7.2      3.665      5.361
REMARK  Name = 4723
REMARK  1 active torsions:
REMARK  status: ('A' for Active; 'I' for Inactive)
REMARK    1  A    between atoms: C_5  and  C_10
REMARK                            x       y       z     vdW  Elec       q    Type
REMARK                         _______ _______ _______ _____ _____    ______ ____
ROOT
ATOM      1  O   UNL     1      35.130 -17.169 -23.377  0.00  0.00    -0.422 OA
ATOM      2  O   UNL     1      33.838 -15.716 -26.244  0.00  0.00    -0.210 OA
ATOM      3  N   UNL     1      34.252 -17.811 -25.351  0.00  0.00    -0.282 NA
ATOM      4  N   UNL     1      34.939 -19.424 -23.715  0.00  0.00    -0.302 N 
ATOM      5  C   UNL     1      34.902 -15.947 -24.085  0.00  0.00    +0.308 C 
ATOM      6  C   UNL     1      34.268 -16.441 -25.356  0.00  0.00    +0.229 C 
ATOM      7  C   UNL     1      34.745 -18.173 -24.215  0.00  0.00    +0.348 C 
ATOM      8  H   UNL     1      35.330 -19.542 -22.819  0.00  0.00    +0.148 HD
ATOM      9  H   UNL     1      34.688 -20.212 -24.250  0.00  0.00    +0.148 HD
ENDROOT
BRANCH   5  10
ATOM     10  C   UNL     1      33.990 -15.074 -23.291  0.00  0.00    +0.035 C 
ATOM     11  C   UNL     1      33.696 -13.784 -23.734  0.00  0.00    +0.000 C 
ATOM     12  C   UNL     1      33.431 -15.547 -22.103  0.00  0.00    +0.000 C 
ATOM     13  C   UNL     1      32.843 -12.968 -22.992  0.00  0.00    -0.000 C 
ATOM     14  C   UNL     1      32.578 -14.730 -21.360  0.00  0.00    -0.000 C 
ATOM     15  C   UNL     1      32.284 -13.441 -21.805  0.00  0.00    -0.000 C 
ENDBRANCH   5  10
TORSDOF 1
ENDMDL
MODEL 7
REMARK VINA RESULT:      -7.2      5.306      6.821
REMARK  Name = 4723
REMARK  1 active torsions:
REMARK  status: ('A' for Active; 'I' for Inactive)
REMARK    1  A    between atoms: C_5  and  C_10
REMARK                            x       y       z     vdW  Elec       q    Type
REMARK                         _______ _______ _______ _____ _____    ______ ____
ROOT
ATOM      1  O   UNL     1      34.651 -23.631 -17.093  0.00  0.00    -0.422 OA
ATOM      2  O   UNL     1      31.404 -22.465 -17.418  0.00  0.00    -0.210 OA
ATOM      3  N   UNL     1      32.910 -23.081 -15.771  0.00  0.00    -0.282 NA
ATOM      4  N   UNL     1      34.995 -23.812 -14.839  0.00  0.00    -0.302 N 
ATOM      5  C   UNL     1      33.595 -23.305 -18.003  0.00  0.00    +0.308 C 
ATOM      6  C   UNL     1      32.495 -22.896 -17.064  0.00  0.00    +0.229 C 
ATOM      7  C   UNL     1      34.131 -23.493 -15.840  0.00  0.00    +0.348 C 
ATOM      8  H   UNL     1      35.907 -24.115 -15.052  0.00  0.00    +0.148 HD
ATOM      9  H   UNL     1      34.708 -23.741 -13.899  0.00  0.00    +0.148 HD
ENDROOT
BRANCH   5  10
ATOM     10  C   UNL     1      34.032 -22.192 -18.895  0.00  0.00    +0.035 C 
ATOM     11  C   UNL     1      35.391 -21.948 -19.091  0.00  0.00    +0.000 C 
ATOM     12  C   UNL     1      33.080 -21.395 -19.533  0.00  0.00    +0.000 C 
ATOM     13  C   UNL     1      35.799 -20.908 -19.925  0.00  0.00    -0.000 C 
ATOM     14  C   UNL     1      33.489 -20.355 -20.367  0.00  0.00    -0.000 C 
ATOM     15  C   UNL     1      34.848 -20.111 -20.564  0.00  0.00    -0.000 C 
ENDBRANCH   5  10
TORSDOF 1
ENDMDL
MODEL 8
REMARK VINA RESULT:      -7.2      2.612      4.785
REMARK  Name = 4723
REMARK  1 active torsions:
REMARK  status: ('A' for Active; 'I' for Inactive)
REMARK    1  A    between atoms: C_5  and  C_10
REMARK                            x       y       z     vdW  Elec       q    Type
REMARK                         _______ _______ _______ _____ _____    ______ ____
ROOT
ATOM      1  O   UNL     1      35.554 -17.931 -20.941  0.00  0.00    -0.422 OA
ATOM      2  O   UNL     1      34.657 -18.096 -24.283  0.00  0.00    -0.210 OA
ATOM      3  N   UNL     1      34.909 -19.481 -22.445  0.00  0.00    -0.282 NA
ATOM      4  N   UNL     1      35.351 -20.074 -20.164  0.00  0.00    -0.302 N 
ATOM      5  C   UNL     1      35.443 -17.213 -22.174  0.00  0.00    +0.308 C 
ATOM      6  C   UNL     1      34.958 -18.284 -23.111  0.00  0.00    +0.229 C 
ATOM      7  C   UNL     1      35.250 -19.229 -21.226  0.00  0.00    +0.348 C 
ATOM      8  H   UNL     1      35.626 -19.729 -19.285  0.00  0.00    +0.148 HD
ATOM      9  H   UNL     1      35.148 -21.032 -20.276  0.00  0.00    +0.148 HD
ENDROOT
BRANCH   5  10
ATOM     10  C   UNL     1      34.462 -16.101 -22.016  0.00  0.00    +0.035 C 
ATOM     11  C   UNL     1      34.529 -14.987 -22.853  0.00  0.00    +0.000 C 
ATOM     12  C   UNL     1      33.477 -16.174 -21.031  0.00  0.00    +0.000 C 
ATOM     13  C   UNL     1      33.612 -13.947 -22.706  0.00  0.00    -0.000 C 
ATOM     14  C   UNL     1      32.559 -15.134 -20.884  0.00  0.00    -0.000 C 
ATOM     15  C   UNL     1      32.626 -14.021 -21.722  0.00  0.00    -0.000 C 
ENDBRANCH   5  10
TORSDOF 1
ENDMDL
MODEL 9
REMARK VINA RESULT:      -7.2      4.103      5.510
REMARK  Name = 4723
REMARK  1 active torsions:
REMARK  status: ('A' for Active; 'I' for Inactive)
REMARK    1  A    between atoms: C_5  and  C_10
REMARK                            x       y       z     vdW  Elec       q    Type
REMARK                         _______ _______ _______ _____ _____    ______ ____
ROOT
ATOM      1  O   UNL     1      36.702 -21.560 -18.716  0.00  0.00    -0.422 OA
ATOM      2  O   UNL     1      33.503 -22.845 -19.064  0.00  0.00    -0.210 OA
ATOM      3  N   UNL     1      35.150 -22.600 -17.456  0.00  0.00    -0.282 NA
ATOM      4  N   UNL     1      37.247 -21.906 -16.521  0.00  0.00    -0.302 N 
ATOM      5  C   UNL     1      35.638 -21.856 -19.626  0.00  0.00    +0.308 C 
ATOM      6  C   UNL     1      34.623 -22.490 -18.716  0.00  0.00    +0.229 C 
ATOM      7  C   UNL     1      36.321 -22.060 -17.506  0.00  0.00    +0.348 C 
ATOM      8  H   UNL     1      38.106 -21.467 -16.716  0.00  0.00    +0.148 HD
ATOM      9  H   UNL     1      37.057 -22.235 -15.612  0.00  0.00    +0.148 HD
ENDROOT
BRANCH   5  10
ATOM     10  C   UNL     1      35.144 -20.592 -20.244  0.00  0.00    +0.035 C 
ATOM     11  C   UNL     1      36.053 -19.630 -20.687  0.00  0.00    +0.000 C 
ATOM     12  C   UNL     1      33.773 -20.369 -20.377  0.00  0.00    +0.000 C 
ATOM     13  C   UNL     1      35.591 -18.448 -21.265  0.00  0.00    -0.000 C 
ATOM     14  C   UNL     1      33.312 -19.186 -20.955  0.00  0.00    -0.000 C 
ATOM     15  C   UNL     1      34.220 -18.226 -21.399  0.00  0.00    -0.000 C 
ENDBRANCH   5  10
TORSDOF 1
ENDMDL
