MODEL 1
REMARK VINA RESULT:     -11.5      0.000      0.000
REMARK  Name = 45375953
REMARK  2 active torsions:
REMARK  status: ('A' for Active; 'I' for Inactive)
REMARK    1  A    between atoms: N_1  and  C_25
REMARK    2  A    between atoms: C_7  and  C_13
REMARK                            x       y       z     vdW  Elec       q    Type
REMARK                         _______ _______ _______ _____ _____    ______ ____
ROOT
ATOM      1  N   UNL     1      33.842 -15.643 -22.141  0.00  0.00    -0.200 N 
ATOM      2  N   UNL     1      33.993 -16.562 -21.170  0.00  0.00    -0.181 NA
ATOM      3  N   UNL     1      33.987 -15.455 -24.551  0.00  0.00    -0.232 NA
ATOM      4  N   UNL     1      34.597 -17.578 -25.586  0.00  0.00    -0.234 NA
ATOM      5  C   UNL     1      34.383 -17.469 -23.231  0.00  0.00    +0.150 C 
ATOM      6  C   UNL     1      34.063 -16.132 -23.394  0.00  0.00    +0.137 C 
ATOM      7  C   UNL     1      34.322 -17.672 -21.839  0.00  0.00    +0.086 C 
ATOM      8  C   UNL     1      34.655 -18.198 -24.383  0.00  0.00    +0.112 C 
ATOM      9  C   UNL     1      34.271 -16.264 -25.594  0.00  0.00    +0.252 C 
ATOM     10  N   UNL     1      34.990 -19.564 -24.321  0.00  0.00    -0.346 N 
ATOM     11  H   UNL     1      35.179 -20.062 -25.148  0.00  0.00    +0.143 HD
ATOM     12  H   UNL     1      35.033 -20.021 -23.450  0.00  0.00    +0.143 HD
ENDROOT
BRANCH   7  16
ATOM     13  O   UNL     1      35.089 -22.381 -19.068  0.00  0.00    -0.414 OA
ATOM     14  N   UNL     1      32.931 -21.777 -19.406  0.00  0.00    -0.356 NA
ATOM     15  N   UNL     1      33.489 -23.796 -18.221  0.00  0.00    -0.302 N 
ATOM     16  C   UNL     1      34.573 -18.891 -21.121  0.00  0.00    +0.001 C 
ATOM     17  C   UNL     1      33.488 -19.653 -20.664  0.00  0.00    +0.090 C 
ATOM     18  C   UNL     1      35.893 -19.298 -20.893  0.00  0.00    +0.001 C 
ATOM     19  C   UNL     1      33.762 -20.839 -19.967  0.00  0.00    +0.153 C 
ATOM     20  C   UNL     1      35.084 -21.204 -19.762  0.00  0.00    +0.175 C 
ATOM     21  C   UNL     1      36.185 -20.478 -20.200  0.00  0.00    +0.040 C 
ATOM     22  C   UNL     1      33.765 -22.655 -18.895  0.00  0.00    +0.341 C 
ATOM     23  H   UNL     1      34.223 -24.362 -17.892  0.00  0.00    +0.148 HD
ATOM     24  H   UNL     1      32.554 -24.057 -18.059  0.00  0.00    +0.148 HD
ENDBRANCH   7  16
BRANCH   1  25
ATOM     25  C   UNL     1      33.482 -14.289 -21.791  0.00  0.00    +0.098 C 
ATOM     26  C   UNL     1      32.927 -14.204 -20.368  0.00  0.00    +0.024 C 
ATOM     27  C   UNL     1      32.496 -13.691 -22.798  0.00  0.00    +0.024 C 
ENDBRANCH   1  25
TORSDOF 2
ENDMDL
MODEL 2
REMARK VINA RESULT:     -10.5      7.926     10.343
REMARK  Name = 45375953
REMARK  2 active torsions:
REMARK  status: ('A' for Active; 'I' for Inactive)
REMARK    1  A    between atoms: N_1  and  C_25
REMARK    2  A    between atoms: C_7  and  C_13
REMARK                            x       y       z     vdW  Elec       q    Type
REMARK                         _______ _______ _______ _____ _____    ______ ____
ROOT
ATOM      1  N   UNL     1      35.052 -24.108 -13.106  0.00  0.00    -0.200 N 
ATOM      2  N   UNL     1      33.718 -24.271 -13.036  0.00  0.00    -0.181 NA
ATOM      3  N   UNL     1      36.754 -23.432 -14.690  0.00  0.00    -0.232 NA
ATOM      4  N   UNL     1      35.792 -22.853 -16.856  0.00  0.00    -0.234 NA
ATOM      5  C   UNL     1      34.353 -23.553 -15.111  0.00  0.00    +0.150 C 
ATOM      6  C   UNL     1      35.486 -23.680 -14.326  0.00  0.00    +0.137 C 
ATOM      7  C   UNL     1      33.298 -23.931 -14.259  0.00  0.00    +0.086 C 
ATOM      8  C   UNL     1      34.537 -23.122 -16.420  0.00  0.00    +0.112 C 
ATOM      9  C   UNL     1      36.807 -23.023 -15.976  0.00  0.00    +0.252 C 
ATOM     10  N   UNL     1      33.448 -22.961 -17.296  0.00  0.00    -0.346 N 
ATOM     11  H   UNL     1      33.600 -22.656 -18.219  0.00  0.00    +0.143 HD
ATOM     12  H   UNL     1      32.534 -23.154 -16.985  0.00  0.00    +0.143 HD
ENDROOT
BRANCH   7  16
ATOM     13  O   UNL     1      27.919 -23.938 -15.488  0.00  0.00    -0.414 OA
ATOM     14  N   UNL     1      28.918 -21.904 -15.451  0.00  0.00    -0.356 NA
ATOM     15  N   UNL     1      26.579 -22.134 -15.965  0.00  0.00    -0.302 N 
ATOM     16  C   UNL     1      31.897 -23.984 -14.574  0.00  0.00    +0.001 C 
ATOM     17  C   UNL     1      31.208 -22.792 -14.844  0.00  0.00    +0.090 C 
ATOM     18  C   UNL     1      31.244 -25.222 -14.607  0.00  0.00    +0.001 C 
ATOM     19  C   UNL     1      29.842 -22.874 -15.149  0.00  0.00    +0.153 C 
ATOM     20  C   UNL     1      29.235 -24.121 -15.170  0.00  0.00    +0.175 C 
ATOM     21  C   UNL     1      29.882 -25.323 -14.909  0.00  0.00    +0.040 C 
ATOM     22  C   UNL     1      27.811 -22.588 -15.639  0.00  0.00    +0.341 C 
ATOM     23  H   UNL     1      25.834 -22.768 -16.074  0.00  0.00    +0.148 HD
ATOM     24  H   UNL     1      26.427 -21.170 -16.090  0.00  0.00    +0.148 HD
ENDBRANCH   7  16
BRANCH   1  25
ATOM     25  C   UNL     1      35.866 -24.391 -11.947  0.00  0.00    +0.098 C 
ATOM     26  C   UNL     1      36.654 -23.159 -11.499  0.00  0.00    +0.024 C 
ATOM     27  C   UNL     1      36.802 -25.578 -12.194  0.00  0.00    +0.024 C 
ENDBRANCH   1  25
TORSDOF 2
ENDMDL
MODEL 3
REMARK VINA RESULT:     -10.3      1.337      1.970
REMARK  Name = 45375953
REMARK  2 active torsions:
REMARK  status: ('A' for Active; 'I' for Inactive)
REMARK    1  A    between atoms: N_1  and  C_25
REMARK    2  A    between atoms: C_7  and  C_13
REMARK                            x       y       z     vdW  Elec       q    Type
REMARK                         _______ _______ _______ _____ _____    ______ ____
ROOT
ATOM      1  N   UNL     1      32.893 -14.356 -22.702  0.00  0.00    -0.200 N 
ATOM      2  N   UNL     1      33.318 -15.270 -21.811  0.00  0.00    -0.181 NA
ATOM      3  N   UNL     1      32.829 -13.993 -25.095  0.00  0.00    -0.232 NA
ATOM      4  N   UNL     1      33.845 -15.845 -26.315  0.00  0.00    -0.234 NA
ATOM      5  C   UNL     1      33.769 -15.933 -23.951  0.00  0.00    +0.150 C 
ATOM      6  C   UNL     1      33.137 -14.702 -23.998  0.00  0.00    +0.137 C 
ATOM      7  C   UNL     1      33.850 -16.228 -22.577  0.00  0.00    +0.086 C 
ATOM      8  C   UNL     1      34.126 -16.506 -25.166  0.00  0.00    +0.112 C 
ATOM      9  C   UNL     1      33.223 -14.647 -26.209  0.00  0.00    +0.252 C 
ATOM     10  N   UNL     1      34.771 -17.755 -25.224  0.00  0.00    -0.346 N 
ATOM     11  H   UNL     1      35.016 -18.143 -26.094  0.00  0.00    +0.143 HD
ATOM     12  H   UNL     1      34.978 -18.240 -24.392  0.00  0.00    +0.143 HD
ENDROOT
BRANCH   7  16
ATOM     13  O   UNL     1      35.873 -20.768 -20.181  0.00  0.00    -0.414 OA
ATOM     14  N   UNL     1      33.621 -20.529 -20.096  0.00  0.00    -0.356 NA
ATOM     15  N   UNL     1      34.709 -22.437 -19.114  0.00  0.00    -0.302 N 
ATOM     16  C   UNL     1      34.425 -17.395 -21.966  0.00  0.00    +0.001 C 
ATOM     17  C   UNL     1      33.582 -18.331 -21.349  0.00  0.00    +0.090 C 
ATOM     18  C   UNL     1      35.812 -17.578 -21.998  0.00  0.00    +0.001 C 
ATOM     19  C   UNL     1      34.170 -19.461 -20.761  0.00  0.00    +0.153 C 
ATOM     20  C   UNL     1      35.548 -19.603 -20.815  0.00  0.00    +0.175 C 
ATOM     21  C   UNL     1      36.415 -18.698 -21.417  0.00  0.00    +0.040 C 
ATOM     22  C   UNL     1      34.667 -21.260 -19.781  0.00  0.00    +0.341 C 
ATOM     23  H   UNL     1      35.574 -22.877 -18.946  0.00  0.00    +0.148 HD
ATOM     24  H   UNL     1      33.876 -22.852 -18.795  0.00  0.00    +0.148 HD
ENDBRANCH   7  16
BRANCH   1  25
ATOM     25  C   UNL     1      32.253 -13.149 -22.234  0.00  0.00    +0.098 C 
ATOM     26  C   UNL     1      32.883 -11.900 -22.854  0.00  0.00    +0.024 C 
ATOM     27  C   UNL     1      32.263 -13.064 -20.705  0.00  0.00    +0.024 C 
ENDBRANCH   1  25
TORSDOF 2
ENDMDL
MODEL 4
REMARK VINA RESULT:      -9.9      6.169      9.156
REMARK  Name = 45375953
REMARK  2 active torsions:
REMARK  status: ('A' for Active; 'I' for Inactive)
REMARK    1  A    between atoms: N_1  and  C_25
REMARK    2  A    between atoms: C_7  and  C_13
REMARK                            x       y       z     vdW  Elec       q    Type
REMARK                         _______ _______ _______ _____ _____    ______ ____
ROOT
ATOM      1  N   UNL     1      32.304 -23.752 -15.754  0.00  0.00    -0.200 N 
ATOM      2  N   UNL     1      33.264 -24.159 -14.903  0.00  0.00    -0.181 NA
ATOM      3  N   UNL     1      32.073 -22.575 -17.857  0.00  0.00    -0.232 NA
ATOM      4  N   UNL     1      34.237 -21.892 -18.751  0.00  0.00    -0.234 NA
ATOM      5  C   UNL     1      34.163 -23.065 -16.696  0.00  0.00    +0.150 C 
ATOM      6  C   UNL     1      32.786 -23.093 -16.845  0.00  0.00    +0.137 C 
ATOM      7  C   UNL     1      34.393 -23.738 -15.482  0.00  0.00    +0.086 C 
ATOM      8  C   UNL     1      34.893 -22.437 -17.699  0.00  0.00    +0.112 C 
ATOM      9  C   UNL     1      32.887 -21.993 -18.764  0.00  0.00    +0.252 C 
ATOM     10  N   UNL     1      36.297 -22.358 -17.640  0.00  0.00    -0.346 N 
ATOM     11  H   UNL     1      36.795 -21.908 -18.359  0.00  0.00    +0.143 HD
ATOM     12  H   UNL     1      36.780 -22.753 -16.878  0.00  0.00    +0.143 HD
ENDROOT
BRANCH   7  16
ATOM     13  O   UNL     1      39.281 -24.857 -13.180  0.00  0.00    -0.414 OA
ATOM     14  N   UNL     1      38.693 -26.171 -14.930  0.00  0.00    -0.356 NA
ATOM     15  N   UNL     1      40.784 -26.487 -13.783  0.00  0.00    -0.302 N 
ATOM     16  C   UNL     1      35.658 -23.991 -14.849  0.00  0.00    +0.001 C 
ATOM     17  C   UNL     1      36.471 -25.027 -15.331  0.00  0.00    +0.090 C 
ATOM     18  C   UNL     1      36.057 -23.200 -13.765  0.00  0.00    +0.001 C 
ATOM     19  C   UNL     1      37.701 -25.251 -14.694  0.00  0.00    +0.153 C 
ATOM     20  C   UNL     1      38.057 -24.444 -13.624  0.00  0.00    +0.175 C 
ATOM     21  C   UNL     1      37.280 -23.410 -13.118  0.00  0.00    +0.040 C 
ATOM     22  C   UNL     1      39.591 -25.890 -14.013  0.00  0.00    +0.341 C 
ATOM     23  H   UNL     1      41.360 -26.168 -13.052  0.00  0.00    +0.148 HD
ATOM     24  H   UNL     1      41.073 -27.241 -14.345  0.00  0.00    +0.148 HD
ENDBRANCH   7  16
BRANCH   1  25
ATOM     25  C   UNL     1      30.920 -24.031 -15.452  0.00  0.00    +0.098 C 
ATOM     26  C   UNL     1      30.193 -22.784 -14.942  0.00  0.00    +0.024 C 
ATOM     27  C   UNL     1      30.783 -25.187 -14.458  0.00  0.00    +0.024 C 
ENDBRANCH   1  25
TORSDOF 2
ENDMDL
MODEL 5
REMARK VINA RESULT:      -9.8      2.658      4.934
REMARK  Name = 45375953
REMARK  2 active torsions:
REMARK  status: ('A' for Active; 'I' for Inactive)
REMARK    1  A    between atoms: N_1  and  C_25
REMARK    2  A    between atoms: C_7  and  C_13
REMARK                            x       y       z     vdW  Elec       q    Type
REMARK                         _______ _______ _______ _____ _____    ______ ____
ROOT
ATOM      1  N   UNL     1      33.601 -12.614 -24.465  0.00  0.00    -0.200 N 
ATOM      2  N   UNL     1      34.172 -13.828 -24.571  0.00  0.00    -0.181 NA
ATOM      3  N   UNL     1      32.281 -11.319 -22.902  0.00  0.00    -0.232 NA
ATOM      4  N   UNL     1      31.816 -12.570 -20.861  0.00  0.00    -0.234 NA
ATOM      5  C   UNL     1      33.092 -13.597 -22.571  0.00  0.00    +0.150 C 
ATOM      6  C   UNL     1      32.942 -12.422 -23.288  0.00  0.00    +0.137 C 
ATOM      7  C   UNL     1      33.859 -14.421 -23.414  0.00  0.00    +0.086 C 
ATOM      8  C   UNL     1      32.499 -13.649 -21.314  0.00  0.00    +0.112 C 
ATOM      9  C   UNL     1      31.751 -11.488 -21.672  0.00  0.00    +0.252 C 
ATOM     10  N   UNL     1      32.596 -14.798 -20.507  0.00  0.00    -0.346 N 
ATOM     11  H   UNL     1      32.169 -14.815 -19.621  0.00  0.00    +0.143 HD
ATOM     12  H   UNL     1      33.092 -15.585 -20.831  0.00  0.00    +0.143 HD
ENDROOT
BRANCH   7  16
ATOM     13  O   UNL     1      35.597 -19.525 -22.240  0.00  0.00    -0.414 OA
ATOM     14  N   UNL     1      35.666 -18.042 -20.527  0.00  0.00    -0.356 NA
ATOM     15  N   UNL     1      36.377 -20.322 -20.231  0.00  0.00    -0.302 N 
ATOM     16  C   UNL     1      34.302 -15.764 -23.157  0.00  0.00    +0.001 C 
ATOM     17  C   UNL     1      34.754 -16.104 -21.874  0.00  0.00    +0.090 C 
ATOM     18  C   UNL     1      34.274 -16.709 -24.190  0.00  0.00    +0.001 C 
ATOM     19  C   UNL     1      35.180 -17.421 -21.651  0.00  0.00    +0.153 C 
ATOM     20  C   UNL     1      35.135 -18.325 -22.702  0.00  0.00    +0.175 C 
ATOM     21  C   UNL     1      34.695 -18.028 -23.986  0.00  0.00    +0.040 C 
ATOM     22  C   UNL     1      35.892 -19.272 -20.934  0.00  0.00    +0.341 C 
ATOM     23  H   UNL     1      36.496 -21.194 -20.670  0.00  0.00    +0.148 HD
ATOM     24  H   UNL     1      36.612 -20.212 -19.282  0.00  0.00    +0.148 HD
ENDBRANCH   7  16
BRANCH   1  25
ATOM     25  C   UNL     1      33.725 -11.672 -25.552  0.00  0.00    +0.098 C 
ATOM     26  C   UNL     1      33.802 -12.380 -26.906  0.00  0.00    +0.024 C 
ATOM     27  C   UNL     1      34.925 -10.741 -25.355  0.00  0.00    +0.024 C 
ENDBRANCH   1  25
TORSDOF 2
ENDMDL
MODEL 6
REMARK VINA RESULT:      -9.8      4.574      7.247
REMARK  Name = 45375953
REMARK  2 active torsions:
REMARK  status: ('A' for Active; 'I' for Inactive)
REMARK    1  A    between atoms: N_1  and  C_25
REMARK    2  A    between atoms: C_7  and  C_13
REMARK                            x       y       z     vdW  Elec       q    Type
REMARK                         _______ _______ _______ _____ _____    ______ ____
ROOT
ATOM      1  N   UNL     1      32.232 -10.488 -22.174  0.00  0.00    -0.200 N 
ATOM      2  N   UNL     1      32.177 -11.777 -22.556  0.00  0.00    -0.181 NA
ATOM      3  N   UNL     1      33.394  -8.438 -22.734  0.00  0.00    -0.232 NA
ATOM      4  N   UNL     1      34.975  -8.769 -24.561  0.00  0.00    -0.234 NA
ATOM      5  C   UNL     1      33.696 -10.612 -23.803  0.00  0.00    +0.150 C 
ATOM      6  C   UNL     1      33.124  -9.744 -22.888  0.00  0.00    +0.137 C 
ATOM      7  C   UNL     1      33.071 -11.846 -23.548  0.00  0.00    +0.086 C 
ATOM      8  C   UNL     1      34.654 -10.082 -24.661  0.00  0.00    +0.112 C 
ATOM      9  C   UNL     1      34.335  -8.040 -23.618  0.00  0.00    +0.252 C 
ATOM     10  N   UNL     1      35.293 -10.881 -25.627  0.00  0.00    -0.346 N 
ATOM     11  H   UNL     1      35.968 -10.487 -26.224  0.00  0.00    +0.143 HD
ATOM     12  H   UNL     1      35.063 -11.836 -25.705  0.00  0.00    +0.143 HD
ENDROOT
BRANCH   7  16
ATOM     13  O   UNL     1      34.014 -16.726 -25.946  0.00  0.00    -0.414 OA
ATOM     14  N   UNL     1      34.497 -16.605 -23.735  0.00  0.00    -0.356 NA
ATOM     15  N   UNL     1      34.832 -18.640 -24.974  0.00  0.00    -0.302 N 
ATOM     16  C   UNL     1      33.300 -13.097 -24.218  0.00  0.00    +0.001 C 
ATOM     17  C   UNL     1      33.807 -14.183 -23.488  0.00  0.00    +0.090 C 
ATOM     18  C   UNL     1      33.013 -13.211 -25.583  0.00  0.00    +0.001 C 
ATOM     19  C   UNL     1      34.020 -15.391 -24.167  0.00  0.00    +0.153 C 
ATOM     20  C   UNL     1      33.723 -15.461 -25.520  0.00  0.00    +0.175 C 
ATOM     21  C   UNL     1      33.221 -14.409 -26.276  0.00  0.00    +0.040 C 
ATOM     22  C   UNL     1      34.470 -17.345 -24.821  0.00  0.00    +0.341 C 
ATOM     23  H   UNL     1      34.759 -19.070 -25.856  0.00  0.00    +0.148 HD
ATOM     24  H   UNL     1      35.171 -19.150 -24.204  0.00  0.00    +0.148 HD
ENDBRANCH   7  16
BRANCH   1  25
ATOM     25  C   UNL     1      31.388 -10.028 -21.096  0.00  0.00    +0.098 C 
ATOM     26  C   UNL     1      32.211  -9.427 -19.955  0.00  0.00    +0.024 C 
ATOM     27  C   UNL     1      30.475 -11.144 -20.582  0.00  0.00    +0.024 C 
ENDBRANCH   1  25
TORSDOF 2
ENDMDL
MODEL 7
REMARK VINA RESULT:      -9.8      3.634      7.641
REMARK  Name = 45375953
REMARK  2 active torsions:
REMARK  status: ('A' for Active; 'I' for Inactive)
REMARK    1  A    between atoms: N_1  and  C_25
REMARK    2  A    between atoms: C_7  and  C_13
REMARK                            x       y       z     vdW  Elec       q    Type
REMARK                         _______ _______ _______ _____ _____    ______ ____
ROOT
ATOM      1  N   UNL     1      34.567 -17.153 -21.932  0.00  0.00    -0.200 N 
ATOM      2  N   UNL     1      34.123 -15.968 -21.475  0.00  0.00    -0.181 NA
ATOM      3  N   UNL     1      34.885 -18.327 -24.026  0.00  0.00    -0.232 NA
ATOM      4  N   UNL     1      34.199 -16.971 -25.934  0.00  0.00    -0.234 NA
ATOM      5  C   UNL     1      33.996 -16.071 -23.754  0.00  0.00    +0.150 C 
ATOM      6  C   UNL     1      34.513 -17.269 -23.290  0.00  0.00    +0.137 C 
ATOM      7  C   UNL     1      33.778 -15.313 -22.588  0.00  0.00    +0.086 C 
ATOM      8  C   UNL     1      33.843 -15.941 -25.130  0.00  0.00    +0.112 C 
ATOM      9  C   UNL     1      34.690 -18.085 -25.340  0.00  0.00    +0.252 C 
ATOM     10  N   UNL     1      33.327 -14.762 -25.699  0.00  0.00    -0.346 N 
ATOM     11  H   UNL     1      33.226 -14.690 -26.675  0.00  0.00    +0.143 HD
ATOM     12  H   UNL     1      33.067 -14.009 -25.120  0.00  0.00    +0.143 HD
ENDROOT
BRANCH   7  16
ATOM     13  O   UNL     1      31.844 -10.149 -22.392  0.00  0.00    -0.414 OA
ATOM     14  N   UNL     1      33.413 -10.554 -23.977  0.00  0.00    -0.356 NA
ATOM     15  N   UNL     1      32.437  -8.370 -23.720  0.00  0.00    -0.302 N 
ATOM     16  C   UNL     1      33.244 -13.982 -22.498  0.00  0.00    +0.001 C 
ATOM     17  C   UNL     1      33.706 -12.996 -23.382  0.00  0.00    +0.090 C 
ATOM     18  C   UNL     1      32.272 -13.693 -21.532  0.00  0.00    +0.001 C 
ATOM     19  C   UNL     1      33.167 -11.706 -23.271  0.00  0.00    +0.153 C 
ATOM     20  C   UNL     1      32.207 -11.463 -22.300  0.00  0.00    +0.175 C 
ATOM     21  C   UNL     1      31.724 -12.412 -21.407  0.00  0.00    +0.040 C 
ATOM     22  C   UNL     1      32.609  -9.678 -23.416  0.00  0.00    +0.341 C 
ATOM     23  H   UNL     1      31.793  -7.828 -23.210  0.00  0.00    +0.148 HD
ATOM     24  H   UNL     1      32.956  -7.961 -24.448  0.00  0.00    +0.148 HD
ENDBRANCH   7  16
BRANCH   1  25
ATOM     25  C   UNL     1      35.032 -18.150 -20.996  0.00  0.00    +0.098 C 
ATOM     26  C   UNL     1      36.440 -18.637 -21.346  0.00  0.00    +0.024 C 
ATOM     27  C   UNL     1      34.057 -19.326 -20.897  0.00  0.00    +0.024 C 
ENDBRANCH   1  25
TORSDOF 2
ENDMDL
MODEL 8
REMARK VINA RESULT:      -9.6      5.303      9.310
REMARK  Name = 45375953
REMARK  2 active torsions:
REMARK  status: ('A' for Active; 'I' for Inactive)
REMARK    1  A    between atoms: N_1  and  C_25
REMARK    2  A    between atoms: C_7  and  C_13
REMARK                            x       y       z     vdW  Elec       q    Type
REMARK                         _______ _______ _______ _____ _____    ______ ____
ROOT
ATOM      1  N   UNL     1      33.450 -14.526 -22.778  0.00  0.00    -0.200 N 
ATOM      2  N   UNL     1      33.483 -13.223 -22.442  0.00  0.00    -0.181 NA
ATOM      3  N   UNL     1      33.427 -15.928 -24.752  0.00  0.00    -0.232 NA
ATOM      4  N   UNL     1      33.476 -14.604 -26.800  0.00  0.00    -0.234 NA
ATOM      5  C   UNL     1      33.491 -13.489 -24.711  0.00  0.00    +0.150 C 
ATOM      6  C   UNL     1      33.454 -14.742 -24.124  0.00  0.00    +0.137 C 
ATOM      7  C   UNL     1      33.508 -12.597 -23.623  0.00  0.00    +0.086 C 
ATOM      8  C   UNL     1      33.502 -13.443 -26.101  0.00  0.00    +0.112 C 
ATOM      9  C   UNL     1      33.440 -15.757 -26.091  0.00  0.00    +0.252 C 
ATOM     10  N   UNL     1      33.540 -12.218 -26.792  0.00  0.00    -0.346 N 
ATOM     11  H   UNL     1      33.547 -12.207 -27.776  0.00  0.00    +0.143 HD
ATOM     12  H   UNL     1      33.560 -11.371 -26.290  0.00  0.00    +0.143 HD
ENDROOT
BRANCH   7  16
ATOM     13  O   UNL     1      33.463  -7.080 -23.714  0.00  0.00    -0.414 OA
ATOM     14  N   UNL     1      31.638  -8.065 -22.800  0.00  0.00    -0.356 NA
ATOM     15  N   UNL     1      31.823  -5.670 -22.939  0.00  0.00    -0.302 N 
ATOM     16  C   UNL     1      33.542 -11.161 -23.670  0.00  0.00    +0.001 C 
ATOM     17  C   UNL     1      32.461 -10.432 -23.154  0.00  0.00    +0.090 C 
ATOM     18  C   UNL     1      34.653 -10.516 -24.226  0.00  0.00    +0.001 C 
ATOM     19  C   UNL     1      32.522  -9.032 -23.213  0.00  0.00    +0.153 C 
ATOM     20  C   UNL     1      33.641  -8.433 -23.773  0.00  0.00    +0.175 C 
ATOM     21  C   UNL     1      34.731  -9.120 -24.293  0.00  0.00    +0.040 C 
ATOM     22  C   UNL     1      32.244  -6.944 -23.120  0.00  0.00    +0.341 C 
ATOM     23  H   UNL     1      32.388  -4.919 -23.231  0.00  0.00    +0.148 HD
ATOM     24  H   UNL     1      30.952  -5.496 -22.516  0.00  0.00    +0.148 HD
ENDBRANCH   7  16
BRANCH   1  25
ATOM     25  C   UNL     1      33.412 -15.529 -21.740  0.00  0.00    +0.098 C 
ATOM     26  C   UNL     1      32.763 -14.992 -20.462  0.00  0.00    +0.024 C 
ATOM     27  C   UNL     1      34.806 -16.090 -21.449  0.00  0.00    +0.024 C 
ENDBRANCH   1  25
TORSDOF 2
ENDMDL
MODEL 9
REMARK VINA RESULT:      -9.4      2.807      4.461
REMARK  Name = 45375953
REMARK  2 active torsions:
REMARK  status: ('A' for Active; 'I' for Inactive)
REMARK    1  A    between atoms: N_1  and  C_25
REMARK    2  A    between atoms: C_7  and  C_13
REMARK                            x       y       z     vdW  Elec       q    Type
REMARK                         _______ _______ _______ _____ _____    ______ ____
ROOT
ATOM      1  N   UNL     1      33.569 -12.021 -24.302  0.00  0.00    -0.200 N 
ATOM      2  N   UNL     1      33.782 -12.781 -23.211  0.00  0.00    -0.181 NA
ATOM      3  N   UNL     1      33.222 -12.260 -26.686  0.00  0.00    -0.232 NA
ATOM      4  N   UNL     1      33.265 -14.600 -27.374  0.00  0.00    -0.234 NA
ATOM      5  C   UNL     1      33.579 -14.069 -25.088  0.00  0.00    +0.150 C 
ATOM      6  C   UNL     1      33.440 -12.741 -25.452  0.00  0.00    +0.137 C 
ATOM      7  C   UNL     1      33.787 -14.027 -23.697  0.00  0.00    +0.086 C 
ATOM      8  C   UNL     1      33.484 -15.015 -26.103  0.00  0.00    +0.112 C 
ATOM      9  C   UNL     1      33.150 -13.267 -27.583  0.00  0.00    +0.252 C 
ATOM     10  N   UNL     1      33.611 -16.391 -25.834  0.00  0.00    -0.346 N 
ATOM     11  H   UNL     1      33.541 -17.044 -26.566  0.00  0.00    +0.143 HD
ATOM     12  H   UNL     1      33.769 -16.699 -24.912  0.00  0.00    +0.143 HD
ENDROOT
BRANCH   7  16
ATOM     13  O   UNL     1      34.750 -18.341 -20.394  0.00  0.00    -0.414 OA
ATOM     14  N   UNL     1      36.230 -18.045 -22.085  0.00  0.00    -0.356 NA
ATOM     15  N   UNL     1      36.465 -19.864 -20.528  0.00  0.00    -0.302 N 
ATOM     16  C   UNL     1      33.995 -15.138 -22.809  0.00  0.00    +0.001 C 
ATOM     17  C   UNL     1      35.093 -15.986 -23.018  0.00  0.00    +0.090 C 
ATOM     18  C   UNL     1      33.103 -15.353 -21.752  0.00  0.00    +0.001 C 
ATOM     19  C   UNL     1      35.272 -17.062 -22.137  0.00  0.00    +0.153 C 
ATOM     20  C   UNL     1      34.364 -17.239 -21.104  0.00  0.00    +0.175 C 
ATOM     21  C   UNL     1      33.266 -16.422 -20.864  0.00  0.00    +0.040 C 
ATOM     22  C   UNL     1      35.871 -18.763 -21.044  0.00  0.00    +0.341 C 
ATOM     23  H   UNL     1      36.081 -20.304 -19.736  0.00  0.00    +0.148 HD
ATOM     24  H   UNL     1      37.279 -20.226 -20.946  0.00  0.00    +0.148 HD
ENDBRANCH   7  16
BRANCH   1  25
ATOM     25  C   UNL     1      33.504 -10.585 -24.167  0.00  0.00    +0.098 C 
ATOM     26  C   UNL     1      34.893  -9.948 -24.239  0.00  0.00    +0.024 C 
ATOM     27  C   UNL     1      32.781 -10.173 -22.881  0.00  0.00    +0.024 C 
ENDBRANCH   1  25
TORSDOF 2
ENDMDL
