MODEL 1
REMARK VINA RESULT:      -9.1      0.000      0.000
REMARK  Name = 5327096
REMARK  3 active torsions:
REMARK  status: ('A' for Active; 'I' for Inactive)
REMARK    1  A    between atoms: C_5  and  C_10
REMARK    2  A    between atoms: C_8  and  C_13
REMARK    3  A    between atoms: C_13  and  C_15
REMARK                            x       y       z     vdW  Elec       q    Type
REMARK                         _______ _______ _______ _____ _____    ______ ____
ROOT
ATOM      1  S   UNL     1      34.072 -15.770 -24.619  0.00  0.00    -0.056 S 
ATOM      2  O   UNL     1      35.444 -17.069 -20.377  0.00  0.00    -0.274 OA
ATOM      3  N   UNL     1      34.974 -17.278 -22.674  0.00  0.00    -0.264 N 
ATOM      4  N   UNL     1      34.400 -14.992 -22.176  0.00  0.00    -0.223 NA
ATOM      5  C   UNL     1      33.670 -14.149 -24.233  0.00  0.00    +0.029 C 
ATOM      6  C   UNL     1      33.911 -13.919 -22.894  0.00  0.00    +0.103 C 
ATOM      7  C   UNL     1      34.515 -15.997 -22.989  0.00  0.00    +0.165 C 
ATOM      8  C   UNL     1      35.396 -17.713 -21.421  0.00  0.00    +0.232 C 
ATOM      9  H   UNL     1      35.003 -17.935 -23.407  0.00  0.00    +0.157 HD
ENDROOT
BRANCH   5  10
ATOM     10  C   UNL     1      33.157 -13.235 -25.271  0.00  0.00    +0.030 C 
ATOM     11  C   UNL     1      33.133 -13.868 -26.683  0.00  0.00    +0.005 C 
ATOM     12  C   UNL     1      33.916 -11.888 -25.328  0.00  0.00    +0.005 C 
ENDBRANCH   5  10
BRANCH   8  13
ATOM     13  C   UNL     1      35.825 -19.180 -21.470  0.00  0.00    +0.113 C 
BRANCH  13  15
ATOM     14  N   UNL     1      32.769 -20.771 -19.943  0.00  0.00    -0.243 NA
ATOM     15  C   UNL     1      34.977 -20.089 -20.652  0.00  0.00    +0.006 C 
ATOM     16  C   UNL     1      35.547 -21.074 -19.854  0.00  0.00    -0.001 C 
ATOM     17  C   UNL     1      33.596 -19.979 -20.662  0.00  0.00    +0.095 C 
ATOM     18  C   UNL     1      34.729 -21.908 -19.100  0.00  0.00    +0.020 C 
ATOM     19  C   UNL     1      33.359 -21.717 -19.178  0.00  0.00    +0.099 C 
ENDBRANCH  13  15
ENDBRANCH   8  13
TORSDOF 3
ENDMDL
MODEL 2
REMARK VINA RESULT:      -9.0      1.359      1.586
REMARK  Name = 5327096
REMARK  3 active torsions:
REMARK  status: ('A' for Active; 'I' for Inactive)
REMARK    1  A    between atoms: C_5  and  C_10
REMARK    2  A    between atoms: C_8  and  C_13
REMARK    3  A    between atoms: C_13  and  C_15
REMARK                            x       y       z     vdW  Elec       q    Type
REMARK                         _______ _______ _______ _____ _____    ______ ____
ROOT
ATOM      1  S   UNL     1      34.217 -14.811 -23.378  0.00  0.00    -0.056 S 
ATOM      2  O   UNL     1      35.209 -19.343 -23.576  0.00  0.00    -0.274 OA
ATOM      3  N   UNL     1      35.025 -17.192 -22.637  0.00  0.00    -0.264 N 
ATOM      4  N   UNL     1      34.201 -16.912 -24.884  0.00  0.00    -0.223 NA
ATOM      5  C   UNL     1      33.637 -14.643 -24.983  0.00  0.00    +0.029 C 
ATOM      6  C   UNL     1      33.703 -15.860 -25.628  0.00  0.00    +0.103 C 
ATOM      7  C   UNL     1      34.495 -16.461 -23.703  0.00  0.00    +0.165 C 
ATOM      8  C   UNL     1      35.337 -18.549 -22.649  0.00  0.00    +0.232 C 
ATOM      9  H   UNL     1      35.193 -16.703 -21.800  0.00  0.00    +0.157 HD
ENDROOT
BRANCH   5  10
ATOM     10  C   UNL     1      33.163 -13.336 -25.477  0.00  0.00    +0.030 C 
ATOM     11  C   UNL     1      33.290 -13.182 -27.011  0.00  0.00    +0.005 C 
ATOM     12  C   UNL     1      33.851 -12.136 -24.784  0.00  0.00    +0.005 C 
ENDBRANCH   5  10
BRANCH   8  13
ATOM     13  C   UNL     1      35.899 -18.989 -21.296  0.00  0.00    +0.113 C 
BRANCH  13  15
ATOM     14  N   UNL     1      32.876 -20.831 -20.005  0.00  0.00    -0.243 NA
ATOM     15  C   UNL     1      35.071 -20.006 -20.595  0.00  0.00    +0.006 C 
ATOM     16  C   UNL     1      35.662 -21.050 -19.893  0.00  0.00    -0.001 C 
ATOM     17  C   UNL     1      33.686 -19.942 -20.621  0.00  0.00    +0.095 C 
ATOM     18  C   UNL     1      34.861 -21.986 -19.247  0.00  0.00    +0.020 C 
ATOM     19  C   UNL     1      33.487 -21.833 -19.332  0.00  0.00    +0.099 C 
ENDBRANCH  13  15
ENDBRANCH   8  13
TORSDOF 3
ENDMDL
MODEL 3
REMARK VINA RESULT:      -8.9      1.670      2.135
REMARK  Name = 5327096
REMARK  3 active torsions:
REMARK  status: ('A' for Active; 'I' for Inactive)
REMARK    1  A    between atoms: C_5  and  C_10
REMARK    2  A    between atoms: C_8  and  C_13
REMARK    3  A    between atoms: C_13  and  C_15
REMARK                            x       y       z     vdW  Elec       q    Type
REMARK                         _______ _______ _______ _____ _____    ______ ____
ROOT
ATOM      1  S   UNL     1      34.140 -14.715 -22.077  0.00  0.00    -0.056 S 
ATOM      2  O   UNL     1      35.587 -18.931 -23.376  0.00  0.00    -0.274 OA
ATOM      3  N   UNL     1      35.210 -17.105 -21.942  0.00  0.00    -0.264 N 
ATOM      4  N   UNL     1      34.297 -16.377 -24.050  0.00  0.00    -0.223 NA
ATOM      5  C   UNL     1      33.501 -14.226 -23.591  0.00  0.00    +0.029 C 
ATOM      6  C   UNL     1      33.673 -15.236 -24.514  0.00  0.00    +0.103 C 
ATOM      7  C   UNL     1      34.577 -16.197 -22.795  0.00  0.00    +0.165 C 
ATOM      8  C   UNL     1      35.659 -18.377 -22.284  0.00  0.00    +0.232 C 
ATOM      9  H   UNL     1      35.350 -16.817 -21.010  0.00  0.00    +0.157 HD
ENDROOT
BRANCH   5  10
ATOM     10  C   UNL     1      32.881 -12.896 -23.750  0.00  0.00    +0.030 C 
ATOM     11  C   UNL     1      33.858 -11.830 -24.300  0.00  0.00    +0.005 C 
ATOM     12  C   UNL     1      32.228 -12.368 -22.450  0.00  0.00    +0.005 C 
ENDBRANCH   5  10
BRANCH   8  13
ATOM     13  C   UNL     1      36.301 -19.069 -21.081  0.00  0.00    +0.113 C 
BRANCH  13  15
ATOM     14  N   UNL     1      35.312 -22.205 -19.241  0.00  0.00    -0.243 NA
ATOM     15  C   UNL     1      35.454 -20.124 -20.463  0.00  0.00    +0.006 C 
ATOM     16  C   UNL     1      34.067 -20.048 -20.512  0.00  0.00    -0.001 C 
ATOM     17  C   UNL     1      36.023 -21.212 -19.821  0.00  0.00    +0.095 C 
ATOM     18  C   UNL     1      33.302 -21.050 -19.925  0.00  0.00    +0.020 C 
ATOM     19  C   UNL     1      33.966 -22.097 -19.308  0.00  0.00    +0.099 C 
ENDBRANCH  13  15
ENDBRANCH   8  13
TORSDOF 3
ENDMDL
MODEL 4
REMARK VINA RESULT:      -8.4      2.916      8.010
REMARK  Name = 5327096
REMARK  3 active torsions:
REMARK  status: ('A' for Active; 'I' for Inactive)
REMARK    1  A    between atoms: C_5  and  C_10
REMARK    2  A    between atoms: C_8  and  C_13
REMARK    3  A    between atoms: C_13  and  C_15
REMARK                            x       y       z     vdW  Elec       q    Type
REMARK                         _______ _______ _______ _____ _____    ______ ____
ROOT
ATOM      1  S   UNL     1      33.609 -21.706 -19.467  0.00  0.00    -0.056 S 
ATOM      2  O   UNL     1      37.071 -19.060 -21.069  0.00  0.00    -0.274 OA
ATOM      3  N   UNL     1      34.912 -19.988 -20.957  0.00  0.00    -0.264 N 
ATOM      4  N   UNL     1      36.081 -21.031 -19.126  0.00  0.00    -0.223 NA
ATOM      5  C   UNL     1      34.468 -22.432 -18.173  0.00  0.00    +0.029 C 
ATOM      6  C   UNL     1      35.761 -21.952 -18.148  0.00  0.00    +0.103 C 
ATOM      7  C   UNL     1      35.025 -20.842 -19.858  0.00  0.00    +0.165 C 
ATOM      8  C   UNL     1      35.919 -19.176 -21.472  0.00  0.00    +0.232 C 
ATOM      9  H   UNL     1      34.038 -19.956 -21.410  0.00  0.00    +0.157 HD
ENDROOT
BRANCH   5  10
ATOM     10  C   UNL     1      33.806 -23.409 -17.287  0.00  0.00    +0.030 C 
ATOM     11  C   UNL     1      32.311 -23.094 -17.041  0.00  0.00    +0.005 C 
ATOM     12  C   UNL     1      34.522 -23.581 -15.926  0.00  0.00    +0.005 C 
ENDBRANCH   5  10
BRANCH   8  13
ATOM     13  C   UNL     1      35.416 -18.387 -22.682  0.00  0.00    +0.113 C 
BRANCH  13  15
ATOM     14  N   UNL     1      34.672 -14.725 -23.173  0.00  0.00    -0.243 NA
ATOM     15  C   UNL     1      35.050 -16.977 -22.378  0.00  0.00    +0.006 C 
ATOM     16  C   UNL     1      34.753 -16.578 -21.080  0.00  0.00    -0.001 C 
ATOM     17  C   UNL     1      34.996 -16.021 -23.380  0.00  0.00    +0.095 C 
ATOM     18  C   UNL     1      34.415 -15.253 -20.827  0.00  0.00    +0.020 C 
ATOM     19  C   UNL     1      34.390 -14.374 -21.898  0.00  0.00    +0.099 C 
ENDBRANCH  13  15
ENDBRANCH   8  13
TORSDOF 3
ENDMDL
MODEL 5
REMARK VINA RESULT:      -8.4      2.035      7.757
REMARK  Name = 5327096
REMARK  3 active torsions:
REMARK  status: ('A' for Active; 'I' for Inactive)
REMARK    1  A    between atoms: C_5  and  C_10
REMARK    2  A    between atoms: C_8  and  C_13
REMARK    3  A    between atoms: C_13  and  C_15
REMARK                            x       y       z     vdW  Elec       q    Type
REMARK                         _______ _______ _______ _____ _____    ______ ____
ROOT
ATOM      1  S   UNL     1      33.699 -19.318 -20.854  0.00  0.00    -0.056 S 
ATOM      2  O   UNL     1      35.517 -15.623 -22.999  0.00  0.00    -0.274 OA
ATOM      3  N   UNL     1      33.847 -17.017 -22.100  0.00  0.00    -0.264 N 
ATOM      4  N   UNL     1      35.893 -18.208 -21.652  0.00  0.00    -0.223 NA
ATOM      5  C   UNL     1      35.172 -20.142 -20.551  0.00  0.00    +0.029 C 
ATOM      6  C   UNL     1      36.226 -19.402 -21.043  0.00  0.00    +0.103 C 
ATOM      7  C   UNL     1      34.602 -18.081 -21.601  0.00  0.00    +0.165 C 
ATOM      8  C   UNL     1      34.346 -15.890 -22.748  0.00  0.00    +0.232 C 
ATOM      9  H   UNL     1      32.871 -17.068 -21.982  0.00  0.00    +0.157 HD
ENDROOT
BRANCH   5  10
ATOM     10  C   UNL     1      35.175 -21.443 -19.853  0.00  0.00    +0.030 C 
ATOM     11  C   UNL     1      33.792 -21.826 -19.273  0.00  0.00    +0.005 C 
ATOM     12  C   UNL     1      36.241 -21.533 -18.734  0.00  0.00    +0.005 C 
ENDBRANCH   5  10
BRANCH   8  13
ATOM     13  C   UNL     1      33.211 -14.947 -23.150  0.00  0.00    +0.113 C 
BRANCH  13  15
ATOM     14  N   UNL     1      33.395 -14.859 -26.913  0.00  0.00    -0.243 NA
ATOM     15  C   UNL     1      33.321 -14.420 -24.537  0.00  0.00    +0.006 C 
ATOM     16  C   UNL     1      33.452 -13.057 -24.776  0.00  0.00    -0.001 C 
ATOM     17  C   UNL     1      33.298 -15.272 -25.630  0.00  0.00    +0.095 C 
ATOM     18  C   UNL     1      33.554 -12.594 -26.083  0.00  0.00    +0.020 C 
ATOM     19  C   UNL     1      33.522 -13.527 -27.107  0.00  0.00    +0.099 C 
ENDBRANCH  13  15
ENDBRANCH   8  13
TORSDOF 3
ENDMDL
MODEL 6
REMARK VINA RESULT:      -8.2      3.829      8.420
REMARK  Name = 5327096
REMARK  3 active torsions:
REMARK  status: ('A' for Active; 'I' for Inactive)
REMARK    1  A    between atoms: C_5  and  C_10
REMARK    2  A    between atoms: C_8  and  C_13
REMARK    3  A    between atoms: C_13  and  C_15
REMARK                            x       y       z     vdW  Elec       q    Type
REMARK                         _______ _______ _______ _____ _____    ______ ____
ROOT
ATOM      1  S   UNL     1      33.535 -14.886 -23.802  0.00  0.00    -0.056 S 
ATOM      2  O   UNL     1      31.969 -12.505 -20.135  0.00  0.00    -0.274 OA
ATOM      3  N   UNL     1      32.312 -13.037 -22.402  0.00  0.00    -0.264 N 
ATOM      4  N   UNL     1      33.482 -14.780 -21.219  0.00  0.00    -0.223 NA
ATOM      5  C   UNL     1      34.359 -16.112 -22.931  0.00  0.00    +0.029 C 
ATOM      6  C   UNL     1      34.220 -15.891 -21.577  0.00  0.00    +0.103 C 
ATOM      7  C   UNL     1      33.086 -14.196 -22.309  0.00  0.00    +0.165 C 
ATOM      8  C   UNL     1      31.820 -12.292 -21.334  0.00  0.00    +0.232 C 
ATOM      9  H   UNL     1      32.093 -12.718 -23.308  0.00  0.00    +0.157 HD
ENDROOT
BRANCH   5  10
ATOM     10  C   UNL     1      35.071 -17.189 -23.645  0.00  0.00    +0.030 C 
ATOM     11  C   UNL     1      34.569 -17.397 -25.094  0.00  0.00    +0.005 C 
ATOM     12  C   UNL     1      35.039 -18.543 -22.894  0.00  0.00    +0.005 C 
ENDBRANCH   5  10
BRANCH   8  13
ATOM     13  C   UNL     1      31.018 -11.089 -21.834  0.00  0.00    +0.113 C 
BRANCH  13  15
ATOM     14  N   UNL     1      33.097  -8.330 -23.339  0.00  0.00    -0.243 NA
ATOM     15  C   UNL     1      31.811  -9.836 -21.953  0.00  0.00    +0.006 C 
ATOM     16  C   UNL     1      32.020  -9.014 -20.851  0.00  0.00    -0.001 C 
ATOM     17  C   UNL     1      32.366  -9.453 -23.164  0.00  0.00    +0.095 C 
ATOM     18  C   UNL     1      32.766  -7.849 -20.993  0.00  0.00    +0.020 C 
ATOM     19  C   UNL     1      33.279  -7.555 -22.246  0.00  0.00    +0.099 C 
ENDBRANCH  13  15
ENDBRANCH   8  13
TORSDOF 3
ENDMDL
MODEL 7
REMARK VINA RESULT:      -8.2      4.081      8.455
REMARK  Name = 5327096
REMARK  3 active torsions:
REMARK  status: ('A' for Active; 'I' for Inactive)
REMARK    1  A    between atoms: C_5  and  C_10
REMARK    2  A    between atoms: C_8  and  C_13
REMARK    3  A    between atoms: C_13  and  C_15
REMARK                            x       y       z     vdW  Elec       q    Type
REMARK                         _______ _______ _______ _____ _____    ______ ____
ROOT
ATOM      1  S   UNL     1      33.385 -15.971 -21.303  0.00  0.00    -0.056 S 
ATOM      2  O   UNL     1      32.806 -11.814 -23.289  0.00  0.00    -0.274 OA
ATOM      3  N   UNL     1      32.460 -13.558 -21.748  0.00  0.00    -0.264 N 
ATOM      4  N   UNL     1      34.152 -14.426 -23.229  0.00  0.00    -0.223 NA
ATOM      5  C   UNL     1      34.587 -16.561 -22.374  0.00  0.00    +0.029 C 
ATOM      6  C   UNL     1      34.866 -15.604 -23.328  0.00  0.00    +0.103 C 
ATOM      7  C   UNL     1      33.358 -14.526 -22.207  0.00  0.00    +0.165 C 
ATOM      8  C   UNL     1      32.253 -12.301 -22.308  0.00  0.00    +0.232 C 
ATOM      9  H   UNL     1      31.925 -13.787 -20.954  0.00  0.00    +0.157 HD
ENDROOT
BRANCH   5  10
ATOM     10  C   UNL     1      35.159 -17.908 -22.192  0.00  0.00    +0.030 C 
ATOM     11  C   UNL     1      35.366 -18.668 -23.524  0.00  0.00    +0.005 C 
ATOM     12  C   UNL     1      34.340 -18.793 -21.221  0.00  0.00    +0.005 C 
ENDBRANCH   5  10
BRANCH   8  13
ATOM     13  C   UNL     1      31.189 -11.527 -21.528  0.00  0.00    +0.113 C 
BRANCH  13  15
ATOM     14  N   UNL     1      32.225  -8.646 -19.331  0.00  0.00    -0.243 NA
ATOM     15  C   UNL     1      31.613 -10.164 -21.111  0.00  0.00    +0.006 C 
ATOM     16  C   UNL     1      31.792  -9.151 -22.047  0.00  0.00    -0.001 C 
ATOM     17  C   UNL     1      31.840  -9.863 -19.777  0.00  0.00    +0.095 C 
ATOM     18  C   UNL     1      32.188  -7.886 -21.625  0.00  0.00    +0.020 C 
ATOM     19  C   UNL     1      32.389  -7.687 -20.270  0.00  0.00    +0.099 C 
ENDBRANCH  13  15
ENDBRANCH   8  13
TORSDOF 3
ENDMDL
MODEL 8
REMARK VINA RESULT:      -8.1     10.402     11.904
REMARK  Name = 5327096
REMARK  3 active torsions:
REMARK  status: ('A' for Active; 'I' for Inactive)
REMARK    1  A    between atoms: C_5  and  C_10
REMARK    2  A    between atoms: C_8  and  C_13
REMARK    3  A    between atoms: C_13  and  C_15
REMARK                            x       y       z     vdW  Elec       q    Type
REMARK                         _______ _______ _______ _____ _____    ______ ____
ROOT
ATOM      1  S   UNL     1      32.573 -23.437 -15.233  0.00  0.00    -0.056 S 
ATOM      2  O   UNL     1      34.853 -24.858 -11.445  0.00  0.00    -0.274 OA
ATOM      3  N   UNL     1      34.495 -23.716 -13.471  0.00  0.00    -0.264 N 
ATOM      4  N   UNL     1      32.420 -24.883 -13.095  0.00  0.00    -0.223 NA
ATOM      5  C   UNL     1      31.110 -24.281 -14.938  0.00  0.00    +0.029 C 
ATOM      6  C   UNL     1      31.215 -24.991 -13.760  0.00  0.00    +0.103 C 
ATOM      7  C   UNL     1      33.188 -24.096 -13.786  0.00  0.00    +0.165 C 
ATOM      8  C   UNL     1      35.217 -24.114 -12.349  0.00  0.00    +0.232 C 
ATOM      9  H   UNL     1      34.947 -23.108 -14.101  0.00  0.00    +0.157 HD
ENDROOT
BRANCH   5  10
ATOM     10  C   UNL     1      29.980 -24.176 -15.880  0.00  0.00    +0.030 C 
ATOM     11  C   UNL     1      29.798 -22.751 -16.458  0.00  0.00    +0.005 C 
ATOM     12  C   UNL     1      28.638 -24.659 -15.280  0.00  0.00    +0.005 C 
ENDBRANCH   5  10
BRANCH   8  13
ATOM     13  C   UNL     1      36.614 -23.491 -12.353  0.00  0.00    +0.113 C 
BRANCH  13  15
ATOM     14  N   UNL     1      39.211 -26.024 -13.374  0.00  0.00    -0.243 NA
ATOM     15  C   UNL     1      37.605 -24.227 -13.184  0.00  0.00    +0.006 C 
ATOM     16  C   UNL     1      37.865 -23.844 -14.495  0.00  0.00    -0.001 C 
ATOM     17  C   UNL     1      38.298 -25.314 -12.675  0.00  0.00    +0.095 C 
ATOM     18  C   UNL     1      38.798 -24.551 -15.246  0.00  0.00    +0.020 C 
ATOM     19  C   UNL     1      39.438 -25.622 -14.645  0.00  0.00    +0.099 C 
ENDBRANCH  13  15
ENDBRANCH   8  13
TORSDOF 3
ENDMDL
MODEL 9
REMARK VINA RESULT:      -8.1      3.214      4.722
REMARK  Name = 5327096
REMARK  3 active torsions:
REMARK  status: ('A' for Active; 'I' for Inactive)
REMARK    1  A    between atoms: C_5  and  C_10
REMARK    2  A    between atoms: C_8  and  C_13
REMARK    3  A    between atoms: C_13  and  C_15
REMARK                            x       y       z     vdW  Elec       q    Type
REMARK                         _______ _______ _______ _____ _____    ______ ____
ROOT
ATOM      1  S   UNL     1      33.842 -10.619 -23.998  0.00  0.00    -0.056 S 
ATOM      2  O   UNL     1      32.440 -14.796 -22.534  0.00  0.00    -0.274 OA
ATOM      3  N   UNL     1      33.738 -13.222 -23.707  0.00  0.00    -0.264 N 
ATOM      4  N   UNL     1      32.130 -11.873 -22.522  0.00  0.00    -0.223 NA
ATOM      5  C   UNL     1      32.684  -9.687 -23.143  0.00  0.00    +0.029 C 
ATOM      6  C   UNL     1      31.863 -10.523 -22.415  0.00  0.00    +0.103 C 
ATOM      7  C   UNL     1      33.141 -12.019 -23.324  0.00  0.00    +0.165 C 
ATOM      8  C   UNL     1      33.354 -14.495 -23.294  0.00  0.00    +0.232 C 
ATOM      9  H   UNL     1      34.502 -13.164 -24.325  0.00  0.00    +0.157 HD
ENDROOT
BRANCH   5  10
ATOM     10  C   UNL     1      32.676  -8.216 -23.252  0.00  0.00    +0.030 C 
ATOM     11  C   UNL     1      34.079  -7.616 -23.511  0.00  0.00    +0.005 C 
ATOM     12  C   UNL     1      32.040  -7.516 -22.027  0.00  0.00    +0.005 C 
ENDBRANCH   5  10
BRANCH   8  13
ATOM     13  C   UNL     1      34.246 -15.563 -23.929  0.00  0.00    +0.113 C 
BRANCH  13  15
ATOM     14  N   UNL     1      35.260 -17.369 -20.780  0.00  0.00    -0.243 NA
ATOM     15  C   UNL     1      34.626 -16.665 -23.005  0.00  0.00    +0.006 C 
ATOM     16  C   UNL     1      34.712 -17.979 -23.453  0.00  0.00    -0.001 C 
ATOM     17  C   UNL     1      34.908 -16.415 -21.671  0.00  0.00    +0.095 C 
ATOM     18  C   UNL     1      35.071 -18.987 -22.566  0.00  0.00    +0.020 C 
ATOM     19  C   UNL     1      35.333 -18.633 -21.253  0.00  0.00    +0.099 C 
ENDBRANCH  13  15
ENDBRANCH   8  13
TORSDOF 3
ENDMDL
