MODEL 1
REMARK VINA RESULT:     -10.5      0.000      0.000
REMARK  Name = 4437
REMARK  3 active torsions:
REMARK  status: ('A' for Active; 'I' for Inactive)
REMARK    1  A    between atoms: C_3  and  S_11
REMARK    2  A    between atoms: C_4  and  S_15
REMARK    3  A    between atoms: C_9  and  S_19
REMARK                            x       y       z     vdW  Elec       q    Type
REMARK                         _______ _______ _______ _____ _____    ______ ____
ROOT
ATOM      1  C   UNL     1      33.842 -23.706 -14.610  0.00  0.00    +0.018 C 
ATOM      2  C   UNL     1      35.063 -23.302 -15.202  0.00  0.00    +0.004 C 
ATOM      3  C   UNL     1      32.675 -23.727 -15.391  0.00  0.00    +0.114 C 
ATOM      4  C   UNL     1      33.911 -22.958 -17.316  0.00  0.00    +0.114 C 
ATOM      5  C   UNL     1      35.081 -22.931 -16.556  0.00  0.00    +0.019 C 
ATOM      6  C   UNL     1      32.711 -23.355 -16.735  0.00  0.00    +0.038 C 
ATOM      7  C   UNL     1      36.231 -23.280 -14.421  0.00  0.00    +0.019 C 
ATOM      8  C   UNL     1      33.825 -24.077 -13.256  0.00  0.00    +0.003 C 
ATOM      9  C   UNL     1      36.194 -23.652 -13.076  0.00  0.00    +0.112 C 
ATOM     10  C   UNL     1      34.994 -24.050 -12.495  0.00  0.00    +0.019 C 
ENDROOT
BRANCH   3  11
ATOM     11  S   UNL     1      31.111 -24.212 -14.753  0.00  0.00    +0.042 S 
ATOM     12  O   UNL     1      30.244 -24.202 -15.938  0.00  0.00    -0.065 OA
ATOM     13  O   UNL     1      31.321 -25.547 -14.178  0.00  0.00    -0.065 OA
ATOM     14  O   UNL     1      30.812 -23.175 -13.758  0.00  0.00    -0.065 OA
ENDBRANCH   3  11
BRANCH   4  15
ATOM     15  S   UNL     1      33.955 -22.494 -19.000  0.00  0.00    +0.042 S 
ATOM     16  O   UNL     1      32.681 -21.788 -19.202  0.00  0.00    -0.065 OA
ATOM     17  O   UNL     1      35.138 -21.631 -19.147  0.00  0.00    -0.065 OA
ATOM     18  O   UNL     1      34.066 -23.774 -19.716  0.00  0.00    -0.065 OA
ENDBRANCH   4  15
BRANCH   9  19
ATOM     19  S   UNL     1      37.657 -23.619 -12.123  0.00  0.00    +0.042 S 
ATOM     20  O   UNL     1      38.657 -24.257 -12.993  0.00  0.00    -0.065 OA
ATOM     21  O   UNL     1      37.928 -22.197 -11.856  0.00  0.00    -0.065 OA
ATOM     22  O   UNL     1      37.311 -24.389 -10.919  0.00  0.00    -0.065 OA
ENDBRANCH   9  19
TORSDOF 3
ENDMDL
MODEL 2
REMARK VINA RESULT:     -10.2      1.534      4.183
REMARK  Name = 4437
REMARK  3 active torsions:
REMARK  status: ('A' for Active; 'I' for Inactive)
REMARK    1  A    between atoms: C_3  and  S_11
REMARK    2  A    between atoms: C_4  and  S_15
REMARK    3  A    between atoms: C_9  and  S_19
REMARK                            x       y       z     vdW  Elec       q    Type
REMARK                         _______ _______ _______ _____ _____    ______ ____
ROOT
ATOM      1  C   UNL     1      33.708 -23.470 -15.860  0.00  0.00    +0.018 C 
ATOM      2  C   UNL     1      32.991 -23.706 -14.662  0.00  0.00    +0.004 C 
ATOM      3  C   UNL     1      33.006 -23.107 -17.020  0.00  0.00    +0.114 C 
ATOM      4  C   UNL     1      30.912 -23.209 -15.824  0.00  0.00    +0.114 C 
ATOM      5  C   UNL     1      31.593 -23.571 -14.661  0.00  0.00    +0.019 C 
ATOM      6  C   UNL     1      31.617 -22.977 -17.001  0.00  0.00    +0.038 C 
ATOM      7  C   UNL     1      33.693 -24.069 -13.501  0.00  0.00    +0.019 C 
ATOM      8  C   UNL     1      35.106 -23.605 -15.861  0.00  0.00    +0.003 C 
ATOM      9  C   UNL     1      35.083 -24.198 -13.521  0.00  0.00    +0.112 C 
ATOM     10  C   UNL     1      35.787 -23.966 -14.698  0.00  0.00    +0.019 C 
ENDROOT
BRANCH   3  11
ATOM     11  S   UNL     1      33.801 -22.793 -18.556  0.00  0.00    +0.042 S 
ATOM     12  O   UNL     1      32.912 -21.820 -19.204  0.00  0.00    -0.065 OA
ATOM     13  O   UNL     1      35.122 -22.255 -18.208  0.00  0.00    -0.065 OA
ATOM     14  O   UNL     1      33.844 -24.114 -19.194  0.00  0.00    -0.065 OA
ENDBRANCH   3  11
BRANCH   4  15
ATOM     15  S   UNL     1      29.173 -23.046 -15.800  0.00  0.00    +0.042 S 
ATOM     16  O   UNL     1      28.711 -24.306 -15.200  0.00  0.00    -0.065 OA
ATOM     17  O   UNL     1      28.893 -21.860 -14.975  0.00  0.00    -0.065 OA
ATOM     18  O   UNL     1      28.816 -22.876 -17.217  0.00  0.00    -0.065 OA
ENDBRANCH   4  15
BRANCH   9  19
ATOM     19  S   UNL     1      35.937 -24.651 -12.067  0.00  0.00    +0.042 S 
ATOM     20  O   UNL     1      36.770 -23.475 -11.770  0.00  0.00    -0.065 OA
ATOM     21  O   UNL     1      34.899 -24.910 -11.057  0.00  0.00    -0.065 OA
ATOM     22  O   UNL     1      36.689 -25.852 -12.459  0.00  0.00    -0.065 OA
ENDBRANCH   9  19
TORSDOF 3
ENDMDL
MODEL 3
REMARK VINA RESULT:      -8.8      1.596      5.772
REMARK  Name = 4437
REMARK  3 active torsions:
REMARK  status: ('A' for Active; 'I' for Inactive)
REMARK    1  A    between atoms: C_3  and  S_11
REMARK    2  A    between atoms: C_4  and  S_15
REMARK    3  A    between atoms: C_9  and  S_19
REMARK                            x       y       z     vdW  Elec       q    Type
REMARK                         _______ _______ _______ _____ _____    ______ ____
ROOT
ATOM      1  C   UNL     1      34.692 -23.415 -15.370  0.00  0.00    +0.018 C 
ATOM      2  C   UNL     1      33.617 -23.181 -16.261  0.00  0.00    +0.004 C 
ATOM      3  C   UNL     1      34.435 -24.015 -14.126  0.00  0.00    +0.114 C 
ATOM      4  C   UNL     1      32.081 -24.149 -14.641  0.00  0.00    +0.114 C 
ATOM      5  C   UNL     1      32.317 -23.554 -15.881  0.00  0.00    +0.019 C 
ATOM      6  C   UNL     1      33.137 -24.379 -13.766  0.00  0.00    +0.038 C 
ATOM      7  C   UNL     1      33.874 -22.581 -17.504  0.00  0.00    +0.019 C 
ATOM      8  C   UNL     1      35.992 -23.042 -15.750  0.00  0.00    +0.003 C 
ATOM      9  C   UNL     1      35.172 -22.217 -17.865  0.00  0.00    +0.112 C 
ATOM     10  C   UNL     1      36.229 -22.447 -16.989  0.00  0.00    +0.019 C 
ENDROOT
BRANCH   3  11
ATOM     11  S   UNL     1      35.698 -24.348 -12.951  0.00  0.00    +0.042 S 
ATOM     12  O   UNL     1      36.528 -25.356 -13.622  0.00  0.00    -0.065 OA
ATOM     13  O   UNL     1      36.377 -23.065 -12.733  0.00  0.00    -0.065 OA
ATOM     14  O   UNL     1      34.956 -24.836 -11.782  0.00  0.00    -0.065 OA
ENDBRANCH   3  11
BRANCH   4  15
ATOM     15  S   UNL     1      30.457 -24.605 -14.189  0.00  0.00    +0.042 S 
ATOM     16  O   UNL     1      30.288 -25.938 -14.787  0.00  0.00    -0.065 OA
ATOM     17  O   UNL     1      30.437 -24.611 -12.718  0.00  0.00    -0.065 OA
ATOM     18  O   UNL     1      29.616 -23.556 -14.786  0.00  0.00    -0.065 OA
ENDBRANCH   4  15
BRANCH   9  19
ATOM     19  S   UNL     1      35.470 -21.473 -19.415  0.00  0.00    +0.042 S 
ATOM     20  O   UNL     1      35.810 -22.607 -20.289  0.00  0.00    -0.065 OA
ATOM     21  O   UNL     1      34.215 -20.798 -19.784  0.00  0.00    -0.065 OA
ATOM     22  O   UNL     1      36.581 -20.545 -19.155  0.00  0.00    -0.065 OA
ENDBRANCH   9  19
TORSDOF 3
ENDMDL
MODEL 4
REMARK VINA RESULT:      -7.8      9.240     12.614
REMARK  Name = 4437
REMARK  3 active torsions:
REMARK  status: ('A' for Active; 'I' for Inactive)
REMARK    1  A    between atoms: C_3  and  S_11
REMARK    2  A    between atoms: C_4  and  S_15
REMARK    3  A    between atoms: C_9  and  S_19
REMARK                            x       y       z     vdW  Elec       q    Type
REMARK                         _______ _______ _______ _____ _____    ______ ____
ROOT
ATOM      1  C   UNL     1      33.230 -14.788 -23.302  0.00  0.00    +0.018 C 
ATOM      2  C   UNL     1      33.162 -14.925 -21.895  0.00  0.00    +0.004 C 
ATOM      3  C   UNL     1      33.767 -15.835 -24.068  0.00  0.00    +0.114 C 
ATOM      4  C   UNL     1      34.164 -17.135 -22.073  0.00  0.00    +0.114 C 
ATOM      5  C   UNL     1      33.633 -16.105 -21.296  0.00  0.00    +0.019 C 
ATOM      6  C   UNL     1      34.231 -17.000 -23.456  0.00  0.00    +0.038 C 
ATOM      7  C   UNL     1      32.625 -13.878 -21.128  0.00  0.00    +0.019 C 
ATOM      8  C   UNL     1      32.759 -13.609 -23.901  0.00  0.00    +0.003 C 
ATOM      9  C   UNL     1      32.161 -12.713 -21.741  0.00  0.00    +0.112 C 
ATOM     10  C   UNL     1      32.228 -12.578 -23.124  0.00  0.00    +0.019 C 
ENDROOT
BRANCH   3  11
ATOM     11  S   UNL     1      33.897 -15.765 -25.820  0.00  0.00    +0.042 S 
ATOM     12  O   UNL     1      32.591 -16.259 -26.276  0.00  0.00    -0.065 OA
ATOM     13  O   UNL     1      34.144 -14.353 -26.136  0.00  0.00    -0.065 OA
ATOM     14  O   UNL     1      35.030 -16.650 -26.114  0.00  0.00    -0.065 OA
ENDBRANCH   3  11
BRANCH   4  15
ATOM     15  S   UNL     1      34.743 -18.594 -21.308  0.00  0.00    +0.042 S 
ATOM     16  O   UNL     1      35.174 -19.434 -22.436  0.00  0.00    -0.065 OA
ATOM     17  O   UNL     1      35.846 -18.175 -20.428  0.00  0.00    -0.065 OA
ATOM     18  O   UNL     1      33.569 -19.101 -20.581  0.00  0.00    -0.065 OA
ENDBRANCH   4  15
BRANCH   9  19
ATOM     19  S   UNL     1      31.497 -11.423 -20.770  0.00  0.00    +0.042 S 
ATOM     20  O   UNL     1      31.854 -11.801 -19.394  0.00  0.00    -0.065 OA
ATOM     21  O   UNL     1      32.157 -10.191 -21.234  0.00  0.00    -0.065 OA
ATOM     22  O   UNL     1      30.057 -11.465 -21.064  0.00  0.00    -0.065 OA
ENDBRANCH   9  19
TORSDOF 3
ENDMDL
MODEL 5
REMARK VINA RESULT:      -7.5      9.553     12.608
REMARK  Name = 4437
REMARK  3 active torsions:
REMARK  status: ('A' for Active; 'I' for Inactive)
REMARK    1  A    between atoms: C_3  and  S_11
REMARK    2  A    between atoms: C_4  and  S_15
REMARK    3  A    between atoms: C_9  and  S_19
REMARK                            x       y       z     vdW  Elec       q    Type
REMARK                         _______ _______ _______ _____ _____    ______ ____
ROOT
ATOM      1  C   UNL     1      33.523 -15.138 -23.756  0.00  0.00    +0.018 C 
ATOM      2  C   UNL     1      33.384 -15.166 -22.347  0.00  0.00    +0.004 C 
ATOM      3  C   UNL     1      33.095 -14.004 -24.465  0.00  0.00    +0.114 C 
ATOM      4  C   UNL     1      32.402 -12.941 -22.411  0.00  0.00    +0.114 C 
ATOM      5  C   UNL     1      32.822 -14.060 -21.690  0.00  0.00    +0.019 C 
ATOM      6  C   UNL     1      32.539 -12.913 -23.796  0.00  0.00    +0.038 C 
ATOM      7  C   UNL     1      33.812 -16.300 -21.637  0.00  0.00    +0.019 C 
ATOM      8  C   UNL     1      34.086 -16.244 -24.412  0.00  0.00    +0.003 C 
ATOM      9  C   UNL     1      34.369 -17.391 -22.307  0.00  0.00    +0.112 C 
ATOM     10  C   UNL     1      34.506 -17.363 -23.692  0.00  0.00    +0.019 C 
ENDROOT
BRANCH   3  11
ATOM     11  S   UNL     1      33.223 -13.869 -26.212  0.00  0.00    +0.042 S 
ATOM     12  O   UNL     1      33.744 -12.510 -26.410  0.00  0.00    -0.065 OA
ATOM     13  O   UNL     1      34.153 -14.930 -26.619  0.00  0.00    -0.065 OA
ATOM     14  O   UNL     1      31.845 -14.077 -26.672  0.00  0.00    -0.065 OA
ENDBRANCH   3  11
BRANCH   4  15
ATOM     15  S   UNL     1      31.706 -11.575 -21.574  0.00  0.00    +0.042 S 
ATOM     16  O   UNL     1      32.500 -10.432 -22.048  0.00  0.00    -0.065 OA
ATOM     17  O   UNL     1      30.295 -11.527 -21.990  0.00  0.00    -0.065 OA
ATOM     18  O   UNL     1      31.890 -11.902 -20.152  0.00  0.00    -0.065 OA
ENDBRANCH   4  15
BRANCH   9  19
ATOM     19  S   UNL     1      34.895 -18.791 -21.407  0.00  0.00    +0.042 S 
ATOM     20  O   UNL     1      35.962 -18.268 -20.539  0.00  0.00    -0.065 OA
ATOM     21  O   UNL     1      33.711 -19.260 -20.669  0.00  0.00    -0.065 OA
ATOM     22  O   UNL     1      35.352 -19.727 -22.444  0.00  0.00    -0.065 OA
ENDBRANCH   9  19
TORSDOF 3
ENDMDL
