MODEL 1
REMARK VINA RESULT:      -8.1      0.000      0.000
REMARK  Name = 5411
REMARK  9 active torsions:
REMARK  status: ('A' for Active; 'I' for Inactive)
REMARK    1  A    between atoms: C_1  and  N_16
REMARK    2  A    between atoms: C_2  and  C_8
REMARK    3  A    between atoms: C_8  and  O_9
REMARK    4  A    between atoms: O_9  and  C_10
REMARK    5  A    between atoms: C_10  and  C_11
REMARK    6  A    between atoms: C_11  and  N_12
REMARK    7  A    between atoms: N_16  and  C_18
REMARK    8  A    between atoms: C_18  and  C_19
REMARK    9  A    between atoms: C_19  and  C_20
REMARK                            x       y       z     vdW  Elec       q    Type
REMARK                         _______ _______ _______ _____ _____    ______ ____
ROOT
ATOM      1  C   UNL     1      34.742 -19.304 -20.981  0.00  0.00    +0.045 C 
ATOM      2  C   UNL     1      33.873 -21.563 -19.547  0.00  0.00    +0.076 C 
ATOM      3  C   UNL     1      33.372 -19.537 -20.763  0.00  0.00    +0.015 C 
ATOM      4  C   UNL     1      35.666 -20.229 -20.463  0.00  0.00    +0.015 C 
ATOM      5  C   UNL     1      32.940 -20.657 -20.053  0.00  0.00    +0.008 C 
ATOM      6  C   UNL     1      35.236 -21.350 -19.752  0.00  0.00    +0.008 C 
ENDROOT
BRANCH   2   8
ATOM      7  O   UNL     1      33.926 -23.858 -18.905  0.00  0.00    -0.245 OA
ATOM      8  C   UNL     1      33.423 -22.731 -18.806  0.00  0.00    +0.341 C 
BRANCH   8   9
ATOM      9  O   UNL     1      32.373 -22.431 -17.983  0.00  0.00    -0.448 OA
BRANCH   9  10
ATOM     10  C   UNL     1      32.253 -23.200 -16.781  0.00  0.00    +0.186 C 
BRANCH  10  11
ATOM     11  C   UNL     1      30.826 -23.090 -16.270  0.00  0.00    -0.029 C 
BRANCH  11  12
ATOM     12  N   UNL     1      30.342 -24.383 -15.811  0.00  0.00    +0.387 N 
ATOM     13  C   UNL     1      28.879 -24.393 -15.734  0.00  0.00    -0.101 C 
ATOM     14  C   UNL     1      30.918 -24.720 -14.507  0.00  0.00    -0.101 C 
ATOM     15  H   UNL     1      30.636 -25.088 -16.488  0.00  0.00    -0.080 HD
ENDBRANCH  11  12
ENDBRANCH  10  11
ENDBRANCH   9  10
ENDBRANCH   8   9
ENDBRANCH   2   8
BRANCH   1  16
ATOM     16  N   UNL     1      35.171 -18.191 -21.689  0.00  0.00    -0.333 N 
ATOM     17  H   UNL     1      35.062 -17.306 -21.271  0.00  0.00    +0.147 HD
BRANCH  16  18
ATOM     18  C   UNL     1      35.764 -18.256 -23.001  0.00  0.00    +0.087 C 
BRANCH  18  19
ATOM     19  C   UNL     1      34.896 -19.080 -23.948  0.00  0.00    +0.021 C 
BRANCH  19  20
ATOM     20  C   UNL     1      34.372 -18.261 -25.131  0.00  0.00    +0.002 C 
ATOM     21  C   UNL     1      34.676 -16.781 -24.960  0.00  0.00    +0.000 C 
ENDBRANCH  19  20
ENDBRANCH  18  19
ENDBRANCH  16  18
ENDBRANCH   1  16
TORSDOF 9
ENDMDL
MODEL 2
REMARK VINA RESULT:      -8.0      3.194      3.954
REMARK  Name = 5411
REMARK  9 active torsions:
REMARK  status: ('A' for Active; 'I' for Inactive)
REMARK    1  A    between atoms: C_1  and  N_16
REMARK    2  A    between atoms: C_2  and  C_8
REMARK    3  A    between atoms: C_8  and  O_9
REMARK    4  A    between atoms: O_9  and  C_10
REMARK    5  A    between atoms: C_10  and  C_11
REMARK    6  A    between atoms: C_11  and  N_12
REMARK    7  A    between atoms: N_16  and  C_18
REMARK    8  A    between atoms: C_18  and  C_19
REMARK    9  A    between atoms: C_19  and  C_20
REMARK                            x       y       z     vdW  Elec       q    Type
REMARK                         _______ _______ _______ _____ _____    ______ ____
ROOT
ATOM      1  C   UNL     1      34.362 -19.268 -21.300  0.00  0.00    +0.045 C 
ATOM      2  C   UNL     1      34.433 -21.429 -19.499  0.00  0.00    +0.076 C 
ATOM      3  C   UNL     1      35.587 -19.825 -20.889  0.00  0.00    +0.015 C 
ATOM      4  C   UNL     1      33.174 -19.820 -20.787  0.00  0.00    +0.015 C 
ATOM      5  C   UNL     1      35.623 -20.896 -19.996  0.00  0.00    +0.008 C 
ATOM      6  C   UNL     1      33.209 -20.891 -19.894  0.00  0.00    +0.008 C 
ENDROOT
BRANCH   2   8
ATOM      7  O   UNL     1      33.652 -23.474 -18.555  0.00  0.00    -0.245 OA
ATOM      8  C   UNL     1      34.470 -22.545 -18.567  0.00  0.00    +0.341 C 
BRANCH   8   9
ATOM      9  O   UNL     1      35.526 -22.444 -17.702  0.00  0.00    -0.448 OA
BRANCH   9  10
ATOM     10  C   UNL     1      35.316 -22.914 -16.366  0.00  0.00    +0.186 C 
BRANCH  10  11
ATOM     11  C   UNL     1      36.666 -23.102 -15.696  0.00  0.00    -0.029 C 
BRANCH  11  12
ATOM     12  N   UNL     1      36.909 -24.509 -15.414  0.00  0.00    +0.387 N 
ATOM     13  C   UNL     1      35.674 -25.175 -14.994  0.00  0.00    -0.101 C 
ATOM     14  C   UNL     1      37.940 -24.661 -14.384  0.00  0.00    -0.101 C 
ATOM     15  H   UNL     1      37.240 -24.950 -16.273  0.00  0.00    -0.080 HD
ENDBRANCH  11  12
ENDBRANCH  10  11
ENDBRANCH   9  10
ENDBRANCH   8   9
ENDBRANCH   2   8
BRANCH   1  16
ATOM     16  N   UNL     1      34.327 -18.203 -22.186  0.00  0.00    -0.333 N 
ATOM     17  H   UNL     1      33.714 -18.260 -22.956  0.00  0.00    +0.147 HD
BRANCH  16  18
ATOM     18  C   UNL     1      35.136 -17.018 -22.047  0.00  0.00    +0.087 C 
BRANCH  18  19
ATOM     19  C   UNL     1      34.836 -16.309 -20.729  0.00  0.00    +0.021 C 
BRANCH  19  20
ATOM     20  C   UNL     1      34.203 -14.930 -20.931  0.00  0.00    +0.002 C 
ATOM     21  C   UNL     1      32.749 -14.916 -20.485  0.00  0.00    +0.000 C 
ENDBRANCH  19  20
ENDBRANCH  18  19
ENDBRANCH  16  18
ENDBRANCH   1  16
TORSDOF 9
ENDMDL
MODEL 3
REMARK VINA RESULT:      -8.0      2.796      3.789
REMARK  Name = 5411
REMARK  9 active torsions:
REMARK  status: ('A' for Active; 'I' for Inactive)
REMARK    1  A    between atoms: C_1  and  N_16
REMARK    2  A    between atoms: C_2  and  C_8
REMARK    3  A    between atoms: C_8  and  O_9
REMARK    4  A    between atoms: O_9  and  C_10
REMARK    5  A    between atoms: C_10  and  C_11
REMARK    6  A    between atoms: C_11  and  N_12
REMARK    7  A    between atoms: N_16  and  C_18
REMARK    8  A    between atoms: C_18  and  C_19
REMARK    9  A    between atoms: C_19  and  C_20
REMARK                            x       y       z     vdW  Elec       q    Type
REMARK                         _______ _______ _______ _____ _____    ______ ____
ROOT
ATOM      1  C   UNL     1      34.893 -19.734 -21.028  0.00  0.00    +0.045 C 
ATOM      2  C   UNL     1      33.894 -21.610 -19.184  0.00  0.00    +0.076 C 
ATOM      3  C   UNL     1      33.513 -19.824 -20.766  0.00  0.00    +0.015 C 
ATOM      4  C   UNL     1      35.760 -20.605 -20.345  0.00  0.00    +0.015 C 
ATOM      5  C   UNL     1      33.018 -20.754 -19.852  0.00  0.00    +0.008 C 
ATOM      6  C   UNL     1      35.265 -21.536 -19.431  0.00  0.00    +0.008 C 
ENDROOT
BRANCH   2   8
ATOM      7  O   UNL     1      32.179 -22.725 -17.960  0.00  0.00    -0.245 OA
ATOM      8  C   UNL     1      33.378 -22.581 -18.232  0.00  0.00    +0.341 C 
BRANCH   8   9
ATOM      9  O   UNL     1      34.385 -23.319 -17.671  0.00  0.00    -0.448 OA
BRANCH   9  10
ATOM     10  C   UNL     1      34.282 -23.594 -16.270  0.00  0.00    +0.186 C 
BRANCH  10  11
ATOM     11  C   UNL     1      35.315 -22.759 -15.531  0.00  0.00    -0.029 C 
BRANCH  11  12
ATOM     12  N   UNL     1      36.645 -22.989 -16.074  0.00  0.00    +0.387 N 
ATOM     13  C   UNL     1      37.485 -23.701 -15.107  0.00  0.00    -0.101 C 
ATOM     14  C   UNL     1      37.276 -21.723 -16.455  0.00  0.00    -0.101 C 
ATOM     15  H   UNL     1      36.550 -23.569 -16.908  0.00  0.00    -0.080 HD
ENDBRANCH  11  12
ENDBRANCH  10  11
ENDBRANCH   9  10
ENDBRANCH   8   9
ENDBRANCH   2   8
BRANCH   1  16
ATOM     16  N   UNL     1      35.384 -18.810 -21.938  0.00  0.00    -0.333 N 
ATOM     17  H   UNL     1      36.193 -19.047 -22.447  0.00  0.00    +0.147 HD
BRANCH  16  18
ATOM     18  C   UNL     1      34.779 -17.524 -22.180  0.00  0.00    +0.087 C 
BRANCH  18  19
ATOM     19  C   UNL     1      34.960 -16.605 -20.974  0.00  0.00    +0.021 C 
BRANCH  19  20
ATOM     20  C   UNL     1      34.211 -15.279 -21.126  0.00  0.00    +0.002 C 
ATOM     21  C   UNL     1      32.754 -15.412 -20.711  0.00  0.00    +0.000 C 
ENDBRANCH  19  20
ENDBRANCH  18  19
ENDBRANCH  16  18
ENDBRANCH   1  16
TORSDOF 9
ENDMDL
MODEL 4
REMARK VINA RESULT:      -7.9      1.542      2.290
REMARK  Name = 5411
REMARK  9 active torsions:
REMARK  status: ('A' for Active; 'I' for Inactive)
REMARK    1  A    between atoms: C_1  and  N_16
REMARK    2  A    between atoms: C_2  and  C_8
REMARK    3  A    between atoms: C_8  and  O_9
REMARK    4  A    between atoms: O_9  and  C_10
REMARK    5  A    between atoms: C_10  and  C_11
REMARK    6  A    between atoms: C_11  and  N_12
REMARK    7  A    between atoms: N_16  and  C_18
REMARK    8  A    between atoms: C_18  and  C_19
REMARK    9  A    between atoms: C_19  and  C_20
REMARK                            x       y       z     vdW  Elec       q    Type
REMARK                         _______ _______ _______ _____ _____    ______ ____
ROOT
ATOM      1  C   UNL     1      35.089 -19.394 -20.951  0.00  0.00    +0.045 C 
ATOM      2  C   UNL     1      34.009 -21.578 -19.543  0.00  0.00    +0.076 C 
ATOM      3  C   UNL     1      35.927 -20.346 -20.342  0.00  0.00    +0.015 C 
ATOM      4  C   UNL     1      33.697 -19.563 -20.837  0.00  0.00    +0.015 C 
ATOM      5  C   UNL     1      35.392 -21.429 -19.644  0.00  0.00    +0.008 C 
ATOM      6  C   UNL     1      33.161 -20.645 -20.139  0.00  0.00    +0.008 C 
ENDROOT
BRANCH   2   8
ATOM      7  O   UNL     1      33.883 -23.865 -18.879  0.00  0.00    -0.245 OA
ATOM      8  C   UNL     1      33.451 -22.706 -18.814  0.00  0.00    +0.341 C 
BRANCH   8   9
ATOM      9  O   UNL     1      32.385 -22.330 -18.043  0.00  0.00    -0.448 OA
BRANCH   9  10
ATOM     10  C   UNL     1      32.153 -23.084 -16.848  0.00  0.00    +0.186 C 
BRANCH  10  11
ATOM     11  C   UNL     1      30.678 -22.996 -16.493  0.00  0.00    -0.029 C 
BRANCH  11  12
ATOM     12  N   UNL     1      30.487 -23.104 -15.055  0.00  0.00    +0.387 N 
ATOM     13  C   UNL     1      31.746 -22.870 -14.345  0.00  0.00    -0.101 C 
ATOM     14  C   UNL     1      29.945 -24.418 -14.701  0.00  0.00    -0.101 C 
ATOM     15  H   UNL     1      29.816 -22.389 -14.771  0.00  0.00    -0.080 HD
ENDBRANCH  11  12
ENDBRANCH  10  11
ENDBRANCH   9  10
ENDBRANCH   8   9
ENDBRANCH   2   8
BRANCH   1  16
ATOM     16  N   UNL     1      35.621 -18.318 -21.643  0.00  0.00    -0.333 N 
ATOM     17  H   UNL     1      36.548 -18.050 -21.443  0.00  0.00    +0.147 HD
BRANCH  16  18
ATOM     18  C   UNL     1      34.895 -17.567 -22.637  0.00  0.00    +0.087 C 
BRANCH  18  19
ATOM     19  C   UNL     1      34.893 -16.079 -22.298  0.00  0.00    +0.021 C 
BRANCH  19  20
ATOM     20  C   UNL     1      34.483 -15.805 -20.849  0.00  0.00    +0.002 C 
ATOM     21  C   UNL     1      33.023 -15.390 -20.753  0.00  0.00    +0.000 C 
ENDBRANCH  19  20
ENDBRANCH  18  19
ENDBRANCH  16  18
ENDBRANCH   1  16
TORSDOF 9
ENDMDL
MODEL 5
REMARK VINA RESULT:      -7.9      3.090      8.120
REMARK  Name = 5411
REMARK  9 active torsions:
REMARK  status: ('A' for Active; 'I' for Inactive)
REMARK    1  A    between atoms: C_1  and  N_16
REMARK    2  A    between atoms: C_2  and  C_8
REMARK    3  A    between atoms: C_8  and  O_9
REMARK    4  A    between atoms: O_9  and  C_10
REMARK    5  A    between atoms: C_10  and  C_11
REMARK    6  A    between atoms: C_11  and  N_12
REMARK    7  A    between atoms: N_16  and  C_18
REMARK    8  A    between atoms: C_18  and  C_19
REMARK    9  A    between atoms: C_19  and  C_20
REMARK                            x       y       z     vdW  Elec       q    Type
REMARK                         _______ _______ _______ _____ _____    ______ ____
ROOT
ATOM      1  C   UNL     1      33.537 -21.498 -19.390  0.00  0.00    +0.045 C 
ATOM      2  C   UNL     1      34.966 -19.659 -20.969  0.00  0.00    +0.076 C 
ATOM      3  C   UNL     1      34.939 -21.563 -19.482  0.00  0.00    +0.015 C 
ATOM      4  C   UNL     1      32.868 -20.489 -20.107  0.00  0.00    +0.015 C 
ATOM      5  C   UNL     1      35.648 -20.652 -20.265  0.00  0.00    +0.008 C 
ATOM      6  C   UNL     1      33.576 -19.578 -20.890  0.00  0.00    +0.008 C 
ENDROOT
BRANCH   2   8
ATOM      7  O   UNL     1      36.938 -18.604 -21.794  0.00  0.00    -0.245 OA
ATOM      8  C   UNL     1      35.705 -18.710 -21.786  0.00  0.00    +0.341 C 
BRANCH   8   9
ATOM      9  O   UNL     1      34.867 -17.945 -22.550  0.00  0.00    -0.448 OA
BRANCH   9  10
ATOM     10  C   UNL     1      35.110 -16.533 -22.563  0.00  0.00    +0.186 C 
BRANCH  10  11
ATOM     11  C   UNL     1      34.634 -15.944 -21.245  0.00  0.00    -0.029 C 
BRANCH  11  12
ATOM     12  N   UNL     1      34.216 -14.562 -21.421  0.00  0.00    +0.387 N 
ATOM     13  C   UNL     1      32.887 -14.343 -20.844  0.00  0.00    -0.101 C 
ATOM     14  C   UNL     1      34.216 -14.196 -22.840  0.00  0.00    -0.101 C 
ATOM     15  H   UNL     1      34.884 -13.965 -20.932  0.00  0.00    -0.080 HD
ENDBRANCH  11  12
ENDBRANCH  10  11
ENDBRANCH   9  10
ENDBRANCH   8   9
ENDBRANCH   2   8
BRANCH   1  16
ATOM     16  N   UNL     1      32.832 -22.404 -18.613  0.00  0.00    -0.333 N 
ATOM     17  H   UNL     1      31.850 -22.417 -18.690  0.00  0.00    +0.147 HD
BRANCH  16  18
ATOM     18  C   UNL     1      33.455 -23.329 -17.698  0.00  0.00    +0.087 C 
BRANCH  18  19
ATOM     19  C   UNL     1      32.756 -23.303 -16.341  0.00  0.00    +0.021 C 
BRANCH  19  20
ATOM     20  C   UNL     1      31.266 -22.970 -16.451  0.00  0.00    +0.002 C 
ATOM     21  C   UNL     1      30.619 -22.862 -15.079  0.00  0.00    +0.000 C 
ENDBRANCH  19  20
ENDBRANCH  18  19
ENDBRANCH  16  18
ENDBRANCH   1  16
TORSDOF 9
ENDMDL
MODEL 6
REMARK VINA RESULT:      -7.9      2.351      3.076
REMARK  Name = 5411
REMARK  9 active torsions:
REMARK  status: ('A' for Active; 'I' for Inactive)
REMARK    1  A    between atoms: C_1  and  N_16
REMARK    2  A    between atoms: C_2  and  C_8
REMARK    3  A    between atoms: C_8  and  O_9
REMARK    4  A    between atoms: O_9  and  C_10
REMARK    5  A    between atoms: C_10  and  C_11
REMARK    6  A    between atoms: C_11  and  N_12
REMARK    7  A    between atoms: N_16  and  C_18
REMARK    8  A    between atoms: C_18  and  C_19
REMARK    9  A    between atoms: C_19  and  C_20
REMARK                            x       y       z     vdW  Elec       q    Type
REMARK                         _______ _______ _______ _____ _____    ______ ____
ROOT
ATOM      1  C   UNL     1      34.621 -19.251 -20.976  0.00  0.00    +0.045 C 
ATOM      2  C   UNL     1      34.404 -21.650 -19.521  0.00  0.00    +0.076 C 
ATOM      3  C   UNL     1      35.770 -19.946 -20.554  0.00  0.00    +0.015 C 
ATOM      4  C   UNL     1      33.361 -19.788 -20.652  0.00  0.00    +0.015 C 
ATOM      5  C   UNL     1      35.663 -21.134 -19.832  0.00  0.00    +0.008 C 
ATOM      6  C   UNL     1      33.254 -20.976 -19.930  0.00  0.00    +0.008 C 
ENDROOT
BRANCH   2   8
ATOM      7  O   UNL     1      33.749 -23.918 -19.190  0.00  0.00    -0.245 OA
ATOM      8  C   UNL     1      34.292 -22.889 -18.768  0.00  0.00    +0.341 C 
BRANCH   8   9
ATOM      9  O   UNL     1      34.865 -22.779 -17.530  0.00  0.00    -0.448 OA
BRANCH   9  10
ATOM     10  C   UNL     1      34.081 -23.211 -16.413  0.00  0.00    +0.186 C 
BRANCH  10  11
ATOM     11  C   UNL     1      34.937 -23.145 -15.159  0.00  0.00    -0.029 C 
BRANCH  11  12
ATOM     12  N   UNL     1      36.155 -23.923 -15.327  0.00  0.00    +0.387 N 
ATOM     13  C   UNL     1      35.915 -25.336 -15.025  0.00  0.00    -0.101 C 
ATOM     14  C   UNL     1      37.227 -23.400 -14.476  0.00  0.00    -0.101 C 
ATOM     15  H   UNL     1      36.447 -23.845 -16.302  0.00  0.00    -0.080 HD
ENDBRANCH  11  12
ENDBRANCH  10  11
ENDBRANCH   9  10
ENDBRANCH   8   9
ENDBRANCH   2   8
BRANCH   1  16
ATOM     16  N   UNL     1      34.728 -18.069 -21.692  0.00  0.00    -0.333 N 
ATOM     17  H   UNL     1      34.240 -17.280 -21.359  0.00  0.00    +0.147 HD
BRANCH  16  18
ATOM     18  C   UNL     1      35.510 -17.929 -22.895  0.00  0.00    +0.087 C 
BRANCH  18  19
ATOM     19  C   UNL     1      35.040 -18.911 -23.964  0.00  0.00    +0.021 C 
BRANCH  19  20
ATOM     20  C   UNL     1      34.319 -18.220 -25.124  0.00  0.00    +0.002 C 
ATOM     21  C   UNL     1      34.687 -16.747 -25.208  0.00  0.00    +0.000 C 
ENDBRANCH  19  20
ENDBRANCH  18  19
ENDBRANCH  16  18
ENDBRANCH   1  16
TORSDOF 9
ENDMDL
MODEL 7
REMARK VINA RESULT:      -7.6      5.149     10.369
REMARK  Name = 5411
REMARK  9 active torsions:
REMARK  status: ('A' for Active; 'I' for Inactive)
REMARK    1  A    between atoms: C_1  and  N_16
REMARK    2  A    between atoms: C_2  and  C_8
REMARK    3  A    between atoms: C_8  and  O_9
REMARK    4  A    between atoms: O_9  and  C_10
REMARK    5  A    between atoms: C_10  and  C_11
REMARK    6  A    between atoms: C_11  and  N_12
REMARK    7  A    between atoms: N_16  and  C_18
REMARK    8  A    between atoms: C_18  and  C_19
REMARK    9  A    between atoms: C_19  and  C_20
REMARK                            x       y       z     vdW  Elec       q    Type
REMARK                         _______ _______ _______ _____ _____    ______ ____
ROOT
ATOM      1  C   UNL     1      35.090 -17.269 -22.207  0.00  0.00    +0.045 C 
ATOM      2  C   UNL     1      34.091 -15.719 -24.332  0.00  0.00    +0.076 C 
ATOM      3  C   UNL     1      34.476 -16.025 -21.967  0.00  0.00    +0.015 C 
ATOM      4  C   UNL     1      35.191 -17.717 -23.536  0.00  0.00    +0.015 C 
ATOM      5  C   UNL     1      33.981 -15.257 -23.020  0.00  0.00    +0.008 C 
ATOM      6  C   UNL     1      34.696 -16.948 -24.590  0.00  0.00    +0.008 C 
ENDROOT
BRANCH   2   8
ATOM      7  O   UNL     1      33.481 -15.311 -26.600  0.00  0.00    -0.245 OA
ATOM      8  C   UNL     1      33.575 -14.917 -25.431  0.00  0.00    +0.341 C 
BRANCH   8   9
ATOM      9  O   UNL     1      33.204 -13.669 -25.011  0.00  0.00    -0.448 OA
BRANCH   9  10
ATOM     10  C   UNL     1      33.814 -12.555 -25.674  0.00  0.00    +0.186 C 
BRANCH  10  11
ATOM     11  C   UNL     1      33.753 -11.347 -24.754  0.00  0.00    -0.029 C 
BRANCH  11  12
ATOM     12  N   UNL     1      35.011 -10.616 -24.782  0.00  0.00    +0.387 N 
ATOM     13  C   UNL     1      34.866  -9.307 -24.142  0.00  0.00    -0.101 C 
ATOM     14  C   UNL     1      35.487 -10.455 -26.158  0.00  0.00    -0.101 C 
ATOM     15  H   UNL     1      35.702 -11.158 -24.260  0.00  0.00    -0.080 HD
ENDBRANCH  11  12
ENDBRANCH  10  11
ENDBRANCH   9  10
ENDBRANCH   8   9
ENDBRANCH   2   8
BRANCH   1  16
ATOM     16  N   UNL     1      35.584 -18.031 -21.160  0.00  0.00    -0.333 N 
ATOM     17  H   UNL     1      36.258 -17.625 -20.567  0.00  0.00    +0.147 HD
BRANCH  16  18
ATOM     18  C   UNL     1      35.169 -19.385 -20.890  0.00  0.00    +0.087 C 
BRANCH  18  19
ATOM     19  C   UNL     1      33.646 -19.489 -20.857  0.00  0.00    +0.021 C 
BRANCH  19  20
ATOM     20  C   UNL     1      33.154 -20.697 -20.057  0.00  0.00    +0.002 C 
ATOM     21  C   UNL     1      34.315 -21.529 -19.535  0.00  0.00    +0.000 C 
ENDBRANCH  19  20
ENDBRANCH  18  19
ENDBRANCH  16  18
ENDBRANCH   1  16
TORSDOF 9
ENDMDL
MODEL 8
REMARK VINA RESULT:      -7.6      5.780      9.347
REMARK  Name = 5411
REMARK  9 active torsions:
REMARK  status: ('A' for Active; 'I' for Inactive)
REMARK    1  A    between atoms: C_1  and  N_16
REMARK    2  A    between atoms: C_2  and  C_8
REMARK    3  A    between atoms: C_8  and  O_9
REMARK    4  A    between atoms: O_9  and  C_10
REMARK    5  A    between atoms: C_10  and  C_11
REMARK    6  A    between atoms: C_11  and  N_12
REMARK    7  A    between atoms: N_16  and  C_18
REMARK    8  A    between atoms: C_18  and  C_19
REMARK    9  A    between atoms: C_19  and  C_20
REMARK                            x       y       z     vdW  Elec       q    Type
REMARK                         _______ _______ _______ _____ _____    ______ ____
ROOT
ATOM      1  C   UNL     1      35.099 -16.960 -21.357  0.00  0.00    +0.045 C 
ATOM      2  C   UNL     1      34.016 -14.671 -22.586  0.00  0.00    +0.076 C 
ATOM      3  C   UNL     1      34.442 -15.975 -20.597  0.00  0.00    +0.015 C 
ATOM      4  C   UNL     1      35.200 -16.771 -22.747  0.00  0.00    +0.015 C 
ATOM      5  C   UNL     1      33.906 -14.840 -21.205  0.00  0.00    +0.008 C 
ATOM      6  C   UNL     1      34.664 -15.637 -23.357  0.00  0.00    +0.008 C 
ENDROOT
BRANCH   2   8
ATOM      7  O   UNL     1      33.993 -12.876 -24.153  0.00  0.00    -0.245 OA
ATOM      8  C   UNL     1      33.458 -13.488 -23.221  0.00  0.00    +0.341 C 
BRANCH   8   9
ATOM      9  O   UNL     1      32.261 -13.134 -22.660  0.00  0.00    -0.448 OA
BRANCH   9  10
ATOM     10  C   UNL     1      32.081 -11.750 -22.340  0.00  0.00    +0.186 C 
BRANCH  10  11
ATOM     11  C   UNL     1      31.062 -11.636 -21.218  0.00  0.00    -0.029 C 
BRANCH  11  12
ATOM     12  N   UNL     1      31.195 -10.361 -20.529  0.00  0.00    +0.387 N 
ATOM     13  C   UNL     1      32.012  -9.431 -21.313  0.00  0.00    -0.101 C 
ATOM     14  C   UNL     1      31.779 -10.548 -19.199  0.00  0.00    -0.101 C 
ATOM     15  H   UNL     1      30.262  -9.962 -20.422  0.00  0.00    -0.080 HD
ENDBRANCH  11  12
ENDBRANCH  10  11
ENDBRANCH   9  10
ENDBRANCH   8   9
ENDBRANCH   2   8
BRANCH   1  16
ATOM     16  N   UNL     1      35.634 -18.087 -20.752  0.00  0.00    -0.333 N 
ATOM     17  H   UNL     1      36.331 -17.958 -20.068  0.00  0.00    +0.147 HD
BRANCH  16  18
ATOM     18  C   UNL     1      35.228 -19.434 -21.066  0.00  0.00    +0.087 C 
BRANCH  18  19
ATOM     19  C   UNL     1      33.715 -19.515 -21.252  0.00  0.00    +0.021 C 
BRANCH  19  20
ATOM     20  C   UNL     1      33.029 -20.337 -20.159  0.00  0.00    +0.002 C 
ATOM     21  C   UNL     1      33.959 -21.403 -19.600  0.00  0.00    +0.000 C 
ENDBRANCH  19  20
ENDBRANCH  18  19
ENDBRANCH  16  18
ENDBRANCH   1  16
TORSDOF 9
ENDMDL
MODEL 9
REMARK VINA RESULT:      -7.6      4.250      8.573
REMARK  Name = 5411
REMARK  9 active torsions:
REMARK  status: ('A' for Active; 'I' for Inactive)
REMARK    1  A    between atoms: C_1  and  N_16
REMARK    2  A    between atoms: C_2  and  C_8
REMARK    3  A    between atoms: C_8  and  O_9
REMARK    4  A    between atoms: O_9  and  C_10
REMARK    5  A    between atoms: C_10  and  C_11
REMARK    6  A    between atoms: C_11  and  N_12
REMARK    7  A    between atoms: N_16  and  C_18
REMARK    8  A    between atoms: C_18  and  C_19
REMARK    9  A    between atoms: C_19  and  C_20
REMARK                            x       y       z     vdW  Elec       q    Type
REMARK                         _______ _______ _______ _____ _____    ______ ____
ROOT
ATOM      1  C   UNL     1      35.370 -18.926 -21.332  0.00  0.00    +0.045 C 
ATOM      2  C   UNL     1      34.815 -17.276 -23.543  0.00  0.00    +0.076 C 
ATOM      3  C   UNL     1      35.312 -17.527 -21.192  0.00  0.00    +0.015 C 
ATOM      4  C   UNL     1      35.144 -19.478 -22.606  0.00  0.00    +0.015 C 
ATOM      5  C   UNL     1      35.037 -16.709 -22.287  0.00  0.00    +0.008 C 
ATOM      6  C   UNL     1      34.869 -18.660 -23.702  0.00  0.00    +0.008 C 
ENDROOT
BRANCH   2   8
ATOM      7  O   UNL     1      34.376 -16.832 -25.844  0.00  0.00    -0.245 OA
ATOM      8  C   UNL     1      34.529 -16.423 -24.685  0.00  0.00    +0.341 C 
BRANCH   8   9
ATOM      9  O   UNL     1      34.448 -15.106 -24.322  0.00  0.00    -0.448 OA
BRANCH   9  10
ATOM     10  C   UNL     1      33.188 -14.456 -24.524  0.00  0.00    +0.186 C 
BRANCH  10  11
ATOM     11  C   UNL     1      33.147 -13.196 -23.676  0.00  0.00    -0.029 C 
BRANCH  11  12
ATOM     12  N   UNL     1      32.081 -13.275 -22.689  0.00  0.00    +0.387 N 
ATOM     13  C   UNL     1      31.784 -11.950 -22.137  0.00  0.00    -0.101 C 
ATOM     14  C   UNL     1      32.438 -14.201 -21.612  0.00  0.00    -0.101 C 
ATOM     15  H   UNL     1      31.244 -13.626 -23.156  0.00  0.00    -0.080 HD
ENDBRANCH  11  12
ENDBRANCH  10  11
ENDBRANCH   9  10
ENDBRANCH   8   9
ENDBRANCH   2   8
BRANCH   1  16
ATOM     16  N   UNL     1      35.645 -19.739 -20.243  0.00  0.00    -0.333 N 
ATOM     17  H   UNL     1      35.734 -19.314 -19.359  0.00  0.00    +0.147 HD
BRANCH  16  18
ATOM     18  C   UNL     1      35.810 -21.168 -20.332  0.00  0.00    +0.087 C 
BRANCH  18  19
ATOM     19  C   UNL     1      35.265 -21.855 -19.083  0.00  0.00    +0.021 C 
BRANCH  19  20
ATOM     20  C   UNL     1      33.747 -22.048 -19.129  0.00  0.00    +0.002 C 
ATOM     21  C   UNL     1      33.255 -22.870 -17.948  0.00  0.00    +0.000 C 
ENDBRANCH  19  20
ENDBRANCH  18  19
ENDBRANCH  16  18
ENDBRANCH   1  16
TORSDOF 9
ENDMDL
