MODEL 1
REMARK VINA RESULT:      -6.1      0.000      0.000
REMARK  Name = 1548992
REMARK  7 active torsions:
REMARK  status: ('A' for Active; 'I' for Inactive)
REMARK    1  A    between atoms: S_1  and  C_2
REMARK    2  A    between atoms: S_1  and  C_11
REMARK    3  A    between atoms: C_2  and  C_5
REMARK    4  A    between atoms: C_11  and  C_12
REMARK    5  A    between atoms: C_12  and  N_13
REMARK    6  A    between atoms: N_13  and  C_16
REMARK    7  A    between atoms: C_16  and  N_17
REMARK                            x       y       z     vdW  Elec       q    Type
REMARK                         _______ _______ _______ _____ _____    ______ ____
ROOT
ATOM      1  S   UNL     1      35.991 -18.158 -22.911  0.00  0.00    -0.132 S 
ENDROOT
BRANCH   1   2
ATOM      2  C   UNL     1      35.244 -18.138 -21.265  0.00  0.00    +0.099 C 
BRANCH   2   5
ATOM      3  N   UNL     1      34.969 -21.413 -19.753  0.00  0.00    -0.319 N 
ATOM      4  N   UNL     1      36.564 -19.938 -20.213  0.00  0.00    -0.318 N 
ATOM      5  C   UNL     1      35.347 -19.477 -20.615  0.00  0.00    +0.043 C 
ATOM      6  C   UNL     1      34.341 -20.357 -20.349  0.00  0.00    +0.033 C 
ATOM      7  C   UNL     1      32.888 -20.329 -20.582  0.00  0.00    +0.048 C 
ATOM      8  C   UNL     1      36.303 -21.117 -19.694  0.00  0.00    +0.181 C 
ATOM      9  H   UNL     1      34.541 -22.237 -19.427  0.00  0.00    +0.148 HD
ATOM     10  H   UNL     1      37.438 -19.492 -20.294  0.00  0.00    +0.148 HD
ENDBRANCH   2   5
ENDBRANCH   1   2
BRANCH   1  11
ATOM     11  C   UNL     1      34.566 -18.803 -23.837  0.00  0.00    +0.079 C 
BRANCH  11  12
ATOM     12  C   UNL     1      34.371 -18.087 -25.166  0.00  0.00    +0.100 C 
BRANCH  12  13
ATOM     13  N   UNL     1      34.673 -16.671 -25.097  0.00  0.00    -0.315 N 
ATOM     14  H   UNL     1      35.617 -16.414 -25.214  0.00  0.00    +0.148 HD
BRANCH  13  16
ATOM     15  S   UNL     1      33.057 -14.909 -26.216  0.00  0.00    -0.019 S 
ATOM     16  C   UNL     1      33.774 -15.644 -24.883  0.00  0.00    +0.131 C 
BRANCH  16  17
ATOM     17  N   UNL     1      33.539 -15.308 -23.562  0.00  0.00    -0.315 N 
ATOM     18  C   UNL     1      34.404 -14.502 -22.719  0.00  0.00    +0.110 C 
ATOM     19  H   UNL     1      32.711 -15.649 -23.155  0.00  0.00    +0.148 HD
ENDBRANCH  16  17
ENDBRANCH  13  16
ENDBRANCH  12  13
ENDBRANCH  11  12
ENDBRANCH   1  11
TORSDOF 7
ENDMDL
MODEL 2
REMARK VINA RESULT:      -6.0      1.402      1.684
REMARK  Name = 1548992
REMARK  7 active torsions:
REMARK  status: ('A' for Active; 'I' for Inactive)
REMARK    1  A    between atoms: S_1  and  C_2
REMARK    2  A    between atoms: S_1  and  C_11
REMARK    3  A    between atoms: C_2  and  C_5
REMARK    4  A    between atoms: C_11  and  C_12
REMARK    5  A    between atoms: C_12  and  N_13
REMARK    6  A    between atoms: N_13  and  C_16
REMARK    7  A    between atoms: C_16  and  N_17
REMARK                            x       y       z     vdW  Elec       q    Type
REMARK                         _______ _______ _______ _____ _____    ______ ____
ROOT
ATOM      1  S   UNL     1      34.966 -18.713 -23.530  0.00  0.00    -0.132 S 
ENDROOT
BRANCH   1   2
ATOM      2  C   UNL     1      35.186 -18.198 -21.811  0.00  0.00    +0.099 C 
BRANCH   2   5
ATOM      3  N   UNL     1      35.052 -21.118 -19.679  0.00  0.00    -0.319 N 
ATOM      4  N   UNL     1      36.587 -19.718 -20.465  0.00  0.00    -0.318 N 
ATOM      5  C   UNL     1      35.346 -19.379 -20.914  0.00  0.00    +0.043 C 
ATOM      6  C   UNL     1      34.376 -20.216 -20.452  0.00  0.00    +0.033 C 
ATOM      7  C   UNL     1      32.918 -20.275 -20.645  0.00  0.00    +0.048 C 
ATOM      8  C   UNL     1      36.376 -20.779 -19.718  0.00  0.00    +0.181 C 
ATOM      9  H   UNL     1      34.658 -21.873 -19.186  0.00  0.00    +0.148 HD
ATOM     10  H   UNL     1      37.444 -19.273 -20.657  0.00  0.00    +0.148 HD
ENDBRANCH   2   5
ENDBRANCH   1   2
BRANCH   1  11
ATOM     11  C   UNL     1      34.939 -17.065 -24.296  0.00  0.00    +0.079 C 
BRANCH  11  12
ATOM     12  C   UNL     1      34.797 -15.953 -23.265  0.00  0.00    +0.100 C 
BRANCH  12  13
ATOM     13  N   UNL     1      33.644 -15.107 -23.498  0.00  0.00    -0.315 N 
ATOM     14  H   UNL     1      32.834 -15.311 -22.977  0.00  0.00    +0.148 HD
BRANCH  13  16
ATOM     15  S   UNL     1      32.936 -14.316 -25.915  0.00  0.00    -0.019 S 
ATOM     16  C   UNL     1      33.563 -14.044 -24.377  0.00  0.00    +0.131 C 
BRANCH  16  17
ATOM     17  N   UNL     1      34.013 -12.826 -23.900  0.00  0.00    -0.315 N 
ATOM     18  C   UNL     1      33.974 -11.562 -24.613  0.00  0.00    +0.110 C 
ATOM     19  H   UNL     1      34.397 -12.815 -22.994  0.00  0.00    +0.148 HD
ENDBRANCH  16  17
ENDBRANCH  13  16
ENDBRANCH  12  13
ENDBRANCH  11  12
ENDBRANCH   1  11
TORSDOF 7
ENDMDL
MODEL 3
REMARK VINA RESULT:      -6.0      2.337      3.605
REMARK  Name = 1548992
REMARK  7 active torsions:
REMARK  status: ('A' for Active; 'I' for Inactive)
REMARK    1  A    between atoms: S_1  and  C_2
REMARK    2  A    between atoms: S_1  and  C_11
REMARK    3  A    between atoms: C_2  and  C_5
REMARK    4  A    between atoms: C_11  and  C_12
REMARK    5  A    between atoms: C_12  and  N_13
REMARK    6  A    between atoms: N_13  and  C_16
REMARK    7  A    between atoms: C_16  and  N_17
REMARK                            x       y       z     vdW  Elec       q    Type
REMARK                         _______ _______ _______ _____ _____    ______ ____
ROOT
ATOM      1  S   UNL     1      34.412 -15.151 -20.949  0.00  0.00    -0.132 S 
ENDROOT
BRANCH   1   2
ATOM      2  C   UNL     1      34.904 -16.067 -22.426  0.00  0.00    +0.099 C 
BRANCH   2   5
ATOM      3  N   UNL     1      34.979 -19.681 -22.272  0.00  0.00    -0.319 N 
ATOM      4  N   UNL     1      35.209 -17.965 -20.881  0.00  0.00    -0.318 N 
ATOM      5  C   UNL     1      34.973 -17.532 -22.150  0.00  0.00    +0.043 C 
ATOM      6  C   UNL     1      34.826 -18.558 -23.034  0.00  0.00    +0.033 C 
ATOM      7  C   UNL     1      34.566 -18.613 -24.482  0.00  0.00    +0.048 C 
ATOM      8  C   UNL     1      35.208 -19.276 -20.986  0.00  0.00    +0.181 C 
ATOM      9  H   UNL     1      34.934 -20.611 -22.590  0.00  0.00    +0.148 HD
ATOM     10  H   UNL     1      35.349 -17.423 -20.071  0.00  0.00    +0.148 HD
ENDBRANCH   2   5
ENDBRANCH   1   2
BRANCH   1  11
ATOM     11  C   UNL     1      32.646 -14.959 -21.336  0.00  0.00    +0.079 C 
BRANCH  11  12
ATOM     12  C   UNL     1      32.296 -13.533 -21.738  0.00  0.00    +0.100 C 
BRANCH  12  13
ATOM     13  N   UNL     1      32.125 -13.373 -23.169  0.00  0.00    -0.315 N 
ATOM     14  H   UNL     1      31.200 -13.287 -23.496  0.00  0.00    +0.148 HD
BRANCH  13  16
ATOM     15  S   UNL     1      33.084 -14.439 -25.385  0.00  0.00    -0.019 S 
ATOM     16  C   UNL     1      33.126 -13.330 -24.121  0.00  0.00    +0.131 C 
BRANCH  16  17
ATOM     17  N   UNL     1      34.091 -12.355 -23.942  0.00  0.00    -0.315 N 
ATOM     18  C   UNL     1      33.910 -10.927 -24.135  0.00  0.00    +0.110 C 
ATOM     19  H   UNL     1      34.984 -12.657 -23.660  0.00  0.00    +0.148 HD
ENDBRANCH  16  17
ENDBRANCH  13  16
ENDBRANCH  12  13
ENDBRANCH  11  12
ENDBRANCH   1  11
TORSDOF 7
ENDMDL
MODEL 4
REMARK VINA RESULT:      -5.9      6.150      8.760
REMARK  Name = 1548992
REMARK  7 active torsions:
REMARK  status: ('A' for Active; 'I' for Inactive)
REMARK    1  A    between atoms: S_1  and  C_2
REMARK    2  A    between atoms: S_1  and  C_11
REMARK    3  A    between atoms: C_2  and  C_5
REMARK    4  A    between atoms: C_11  and  C_12
REMARK    5  A    between atoms: C_12  and  N_13
REMARK    6  A    between atoms: N_13  and  C_16
REMARK    7  A    between atoms: C_16  and  N_17
REMARK                            x       y       z     vdW  Elec       q    Type
REMARK                         _______ _______ _______ _____ _____    ______ ____
ROOT
ATOM      1  S   UNL     1      33.874 -24.116 -14.815  0.00  0.00    -0.132 S 
ENDROOT
BRANCH   1   2
ATOM      2  C   UNL     1      35.470 -23.882 -13.999  0.00  0.00    +0.099 C 
BRANCH   2   5
ATOM      3  N   UNL     1      37.861 -26.597 -13.992  0.00  0.00    -0.319 N 
ATOM      4  N   UNL     1      35.989 -26.050 -15.055  0.00  0.00    -0.318 N 
ATOM      5  C   UNL     1      36.331 -25.091 -14.151  0.00  0.00    +0.043 C 
ATOM      6  C   UNL     1      37.477 -25.391 -13.478  0.00  0.00    +0.033 C 
ATOM      7  C   UNL     1      38.242 -24.699 -12.428  0.00  0.00    +0.048 C 
ATOM      8  C   UNL     1      36.937 -26.953 -14.935  0.00  0.00    +0.181 C 
ATOM      9  H   UNL     1      38.656 -27.115 -13.731  0.00  0.00    +0.148 HD
ATOM     10  H   UNL     1      35.211 -26.065 -15.658  0.00  0.00    +0.148 HD
ENDBRANCH   2   5
ENDBRANCH   1   2
BRANCH   1  11
ATOM     11  C   UNL     1      34.236 -23.222 -16.357  0.00  0.00    +0.079 C 
BRANCH  11  12
ATOM     12  C   UNL     1      33.078 -23.281 -17.342  0.00  0.00    +0.100 C 
BRANCH  12  13
ATOM     13  N   UNL     1      33.486 -23.049 -18.713  0.00  0.00    -0.315 N 
ATOM     14  H   UNL     1      33.481 -23.830 -19.314  0.00  0.00    +0.148 HD
BRANCH  13  16
ATOM     15  S   UNL     1      35.523 -21.592 -19.548  0.00  0.00    -0.019 S 
ATOM     16  C   UNL     1      33.884 -21.847 -19.265  0.00  0.00    +0.131 C 
BRANCH  16  17
ATOM     17  N   UNL     1      32.874 -20.943 -19.543  0.00  0.00    -0.315 N 
ATOM     18  C   UNL     1      32.844 -20.011 -20.656  0.00  0.00    +0.110 C 
ATOM     19  H   UNL     1      32.106 -20.929 -18.928  0.00  0.00    +0.148 HD
ENDBRANCH  16  17
ENDBRANCH  13  16
ENDBRANCH  12  13
ENDBRANCH  11  12
ENDBRANCH   1  11
TORSDOF 7
ENDMDL
MODEL 5
REMARK VINA RESULT:      -5.9      2.444      6.721
REMARK  Name = 1548992
REMARK  7 active torsions:
REMARK  status: ('A' for Active; 'I' for Inactive)
REMARK    1  A    between atoms: S_1  and  C_2
REMARK    2  A    between atoms: S_1  and  C_11
REMARK    3  A    between atoms: C_2  and  C_5
REMARK    4  A    between atoms: C_11  and  C_12
REMARK    5  A    between atoms: C_12  and  N_13
REMARK    6  A    between atoms: N_13  and  C_16
REMARK    7  A    between atoms: C_16  and  N_17
REMARK                            x       y       z     vdW  Elec       q    Type
REMARK                         _______ _______ _______ _____ _____    ______ ____
ROOT
ATOM      1  S   UNL     1      34.710 -19.051 -22.717  0.00  0.00    -0.132 S 
ENDROOT
BRANCH   1   2
ATOM      2  C   UNL     1      35.662 -17.526 -22.528  0.00  0.00    +0.099 C 
BRANCH   2   5
ATOM      3  N   UNL     1      33.691 -14.513 -22.887  0.00  0.00    -0.319 N 
ATOM      4  N   UNL     1      34.468 -16.140 -24.184  0.00  0.00    -0.318 N 
ATOM      5  C   UNL     1      34.840 -16.334 -22.888  0.00  0.00    +0.043 C 
ATOM      6  C   UNL     1      34.381 -15.354 -22.060  0.00  0.00    +0.033 C 
ATOM      7  C   UNL     1      34.509 -15.113 -20.614  0.00  0.00    +0.048 C 
ATOM      8  C   UNL     1      33.772 -15.025 -24.152  0.00  0.00    +0.181 C 
ATOM      9  H   UNL     1      33.223 -13.689 -22.621  0.00  0.00    +0.148 HD
ATOM     10  H   UNL     1      34.674 -16.703 -24.965  0.00  0.00    +0.148 HD
ENDBRANCH   2   5
ENDBRANCH   1   2
BRANCH   1  11
ATOM     11  C   UNL     1      33.777 -18.971 -21.159  0.00  0.00    +0.079 C 
BRANCH  11  12
ATOM     12  C   UNL     1      32.842 -20.160 -20.986  0.00  0.00    +0.100 C 
BRANCH  12  13
ATOM     13  N   UNL     1      32.768 -20.629 -19.616  0.00  0.00    -0.315 N 
ATOM     14  H   UNL     1      32.168 -20.133 -19.012  0.00  0.00    +0.148 HD
BRANCH  13  16
ATOM     15  S   UNL     1      35.094 -21.858 -19.401  0.00  0.00    -0.019 S 
ATOM     16  C   UNL     1      33.452 -21.698 -19.071  0.00  0.00    +0.131 C 
BRANCH  16  17
ATOM     17  N   UNL     1      32.707 -22.557 -18.282  0.00  0.00    -0.315 N 
ATOM     18  C   UNL     1      33.222 -23.414 -17.230  0.00  0.00    +0.110 C 
ATOM     19  H   UNL     1      31.738 -22.591 -18.451  0.00  0.00    +0.148 HD
ENDBRANCH  16  17
ENDBRANCH  13  16
ENDBRANCH  12  13
ENDBRANCH  11  12
ENDBRANCH   1  11
TORSDOF 7
ENDMDL
MODEL 6
REMARK VINA RESULT:      -5.9      2.095      6.529
REMARK  Name = 1548992
REMARK  7 active torsions:
REMARK  status: ('A' for Active; 'I' for Inactive)
REMARK    1  A    between atoms: S_1  and  C_2
REMARK    2  A    between atoms: S_1  and  C_11
REMARK    3  A    between atoms: C_2  and  C_5
REMARK    4  A    between atoms: C_11  and  C_12
REMARK    5  A    between atoms: C_12  and  N_13
REMARK    6  A    between atoms: N_13  and  C_16
REMARK    7  A    between atoms: C_16  and  N_17
REMARK                            x       y       z     vdW  Elec       q    Type
REMARK                         _______ _______ _______ _____ _____    ______ ____
ROOT
ATOM      1  S   UNL     1      33.425 -15.333 -21.662  0.00  0.00    -0.132 S 
ENDROOT
BRANCH   1   2
ATOM      2  C   UNL     1      34.485 -14.681 -22.972  0.00  0.00    +0.099 C 
BRANCH   2   5
ATOM      3  N   UNL     1      33.148 -15.498 -26.233  0.00  0.00    -0.319 N 
ATOM      4  N   UNL     1      33.046 -13.820 -24.781  0.00  0.00    -0.318 N 
ATOM      5  C   UNL     1      33.836 -14.824 -24.307  0.00  0.00    +0.043 C 
ATOM      6  C   UNL     1      33.923 -15.873 -25.171  0.00  0.00    +0.033 C 
ATOM      7  C   UNL     1      34.630 -17.163 -25.125  0.00  0.00    +0.048 C 
ATOM      8  C   UNL     1      32.642 -14.259 -25.953  0.00  0.00    +0.181 C 
ATOM      9  H   UNL     1      32.983 -16.024 -27.048  0.00  0.00    +0.148 HD
ATOM     10  H   UNL     1      32.827 -12.964 -24.347  0.00  0.00    +0.148 HD
ENDBRANCH   2   5
ENDBRANCH   1   2
BRANCH   1  11
ATOM     11  C   UNL     1      34.691 -16.248 -20.732  0.00  0.00    +0.079 C 
BRANCH  11  12
ATOM     12  C   UNL     1      35.292 -17.386 -21.544  0.00  0.00    +0.100 C 
BRANCH  12  13
ATOM     13  N   UNL     1      35.788 -18.471 -20.721  0.00  0.00    -0.315 N 
ATOM     14  H   UNL     1      36.551 -18.266 -20.133  0.00  0.00    +0.148 HD
BRANCH  13  16
ATOM     15  S   UNL     1      36.243 -20.954 -19.949  0.00  0.00    -0.019 S 
ATOM     16  C   UNL     1      35.302 -19.764 -20.677  0.00  0.00    +0.131 C 
BRANCH  16  17
ATOM     17  N   UNL     1      34.058 -19.964 -21.246  0.00  0.00    -0.315 N 
ATOM     18  C   UNL     1      32.793 -20.025 -20.536  0.00  0.00    +0.110 C 
ATOM     19  H   UNL     1      34.026 -20.077 -22.223  0.00  0.00    +0.148 HD
ENDBRANCH  16  17
ENDBRANCH  13  16
ENDBRANCH  12  13
ENDBRANCH  11  12
ENDBRANCH   1  11
TORSDOF 7
ENDMDL
MODEL 7
REMARK VINA RESULT:      -5.9      1.986      2.722
REMARK  Name = 1548992
REMARK  7 active torsions:
REMARK  status: ('A' for Active; 'I' for Inactive)
REMARK    1  A    between atoms: S_1  and  C_2
REMARK    2  A    between atoms: S_1  and  C_11
REMARK    3  A    between atoms: C_2  and  C_5
REMARK    4  A    between atoms: C_11  and  C_12
REMARK    5  A    between atoms: C_12  and  N_13
REMARK    6  A    between atoms: N_13  and  C_16
REMARK    7  A    between atoms: C_16  and  N_17
REMARK                            x       y       z     vdW  Elec       q    Type
REMARK                         _______ _______ _______ _____ _____    ______ ____
ROOT
ATOM      1  S   UNL     1      34.702 -16.202 -21.200  0.00  0.00    -0.132 S 
ENDROOT
BRANCH   1   2
ATOM      2  C   UNL     1      34.478 -17.813 -21.986  0.00  0.00    +0.099 C 
BRANCH   2   5
ATOM      3  N   UNL     1      35.384 -20.633 -19.909  0.00  0.00    -0.319 N 
ATOM      4  N   UNL     1      36.398 -18.936 -20.919  0.00  0.00    -0.318 N 
ATOM      5  C   UNL     1      35.056 -18.904 -21.148  0.00  0.00    +0.043 C 
ATOM      6  C   UNL     1      34.398 -19.932 -20.543  0.00  0.00    +0.033 C 
ATOM      7  C   UNL     1      32.982 -20.331 -20.489  0.00  0.00    +0.048 C 
ATOM      8  C   UNL     1      36.567 -19.999 -20.163  0.00  0.00    +0.181 C 
ATOM      9  H   UNL     1      35.263 -21.447 -19.369  0.00  0.00    +0.148 HD
ATOM     10  H   UNL     1      37.084 -18.309 -21.245  0.00  0.00    +0.148 HD
ENDBRANCH   2   5
ENDBRANCH   1   2
BRANCH   1  11
ATOM     11  C   UNL     1      32.950 -15.738 -21.053  0.00  0.00    +0.079 C 
BRANCH  11  12
ATOM     12  C   UNL     1      32.630 -14.453 -21.804  0.00  0.00    +0.100 C 
BRANCH  12  13
ATOM     13  N   UNL     1      33.755 -13.943 -22.562  0.00  0.00    -0.315 N 
ATOM     14  H   UNL     1      34.636 -13.979 -22.122  0.00  0.00    +0.148 HD
BRANCH  13  16
ATOM     15  S   UNL     1      33.111 -14.353 -25.088  0.00  0.00    -0.019 S 
ATOM     16  C   UNL     1      33.720 -13.409 -23.836  0.00  0.00    +0.131 C 
BRANCH  16  17
ATOM     17  N   UNL     1      34.200 -12.118 -23.966  0.00  0.00    -0.315 N 
ATOM     18  C   UNL     1      34.198 -11.326 -25.183  0.00  0.00    +0.110 C 
ATOM     19  H   UNL     1      34.578 -11.698 -23.161  0.00  0.00    +0.148 HD
ENDBRANCH  16  17
ENDBRANCH  13  16
ENDBRANCH  12  13
ENDBRANCH  11  12
ENDBRANCH   1  11
TORSDOF 7
ENDMDL
MODEL 8
REMARK VINA RESULT:      -5.8      4.736      8.515
REMARK  Name = 1548992
REMARK  7 active torsions:
REMARK  status: ('A' for Active; 'I' for Inactive)
REMARK    1  A    between atoms: S_1  and  C_2
REMARK    2  A    between atoms: S_1  and  C_11
REMARK    3  A    between atoms: C_2  and  C_5
REMARK    4  A    between atoms: C_11  and  C_12
REMARK    5  A    between atoms: C_12  and  N_13
REMARK    6  A    between atoms: N_13  and  C_16
REMARK    7  A    between atoms: C_16  and  N_17
REMARK                            x       y       z     vdW  Elec       q    Type
REMARK                         _______ _______ _______ _____ _____    ______ ____
ROOT
ATOM      1  S   UNL     1      32.794 -11.299 -23.235  0.00  0.00    -0.132 S 
ENDROOT
BRANCH   1   2
ATOM      2  C   UNL     1      31.431 -10.660 -22.234  0.00  0.00    +0.099 C 
BRANCH   2   5
ATOM      3  N   UNL     1      32.451  -8.580 -19.455  0.00  0.00    -0.319 N 
ATOM      4  N   UNL     1      32.482  -8.499 -21.674  0.00  0.00    -0.318 N 
ATOM      5  C   UNL     1      31.920  -9.661 -21.239  0.00  0.00    +0.043 C 
ATOM      6  C   UNL     1      31.882  -9.748 -19.880  0.00  0.00    +0.033 C 
ATOM      7  C   UNL     1      31.389 -10.774 -18.947  0.00  0.00    +0.048 C 
ATOM      8  C   UNL     1      32.796  -7.864 -20.566  0.00  0.00    +0.181 C 
ATOM      9  H   UNL     1      32.588  -8.307 -18.519  0.00  0.00    +0.148 HD
ATOM     10  H   UNL     1      32.623  -8.204 -22.602  0.00  0.00    +0.148 HD
ENDBRANCH   2   5
ENDBRANCH   1   2
BRANCH   1  11
ATOM     11  C   UNL     1      32.718 -13.035 -22.701  0.00  0.00    +0.079 C 
BRANCH  11  12
ATOM     12  C   UNL     1      33.786 -13.890 -23.369  0.00  0.00    +0.100 C 
BRANCH  12  13
ATOM     13  N   UNL     1      34.508 -14.729 -22.433  0.00  0.00    -0.315 N 
ATOM     14  H   UNL     1      34.740 -14.324 -21.566  0.00  0.00    +0.148 HD
BRANCH  13  16
ATOM     15  S   UNL     1      34.869 -17.098 -21.328  0.00  0.00    -0.019 S 
ATOM     16  C   UNL     1      34.907 -16.036 -22.633  0.00  0.00    +0.131 C 
BRANCH  16  17
ATOM     17  N   UNL     1      35.308 -16.359 -23.917  0.00  0.00    -0.315 N 
ATOM     18  C   UNL     1      34.793 -17.451 -24.724  0.00  0.00    +0.110 C 
ATOM     19  H   UNL     1      36.008 -15.798 -24.320  0.00  0.00    +0.148 HD
ENDBRANCH  16  17
ENDBRANCH  13  16
ENDBRANCH  12  13
ENDBRANCH  11  12
ENDBRANCH   1  11
TORSDOF 7
ENDMDL
MODEL 9
REMARK VINA RESULT:      -5.8      2.160      6.117
REMARK  Name = 1548992
REMARK  7 active torsions:
REMARK  status: ('A' for Active; 'I' for Inactive)
REMARK    1  A    between atoms: S_1  and  C_2
REMARK    2  A    between atoms: S_1  and  C_11
REMARK    3  A    between atoms: C_2  and  C_5
REMARK    4  A    between atoms: C_11  and  C_12
REMARK    5  A    between atoms: C_12  and  N_13
REMARK    6  A    between atoms: N_13  and  C_16
REMARK    7  A    between atoms: C_16  and  N_17
REMARK                            x       y       z     vdW  Elec       q    Type
REMARK                         _______ _______ _______ _____ _____    ______ ____
ROOT
ATOM      1  S   UNL     1      34.362 -16.801 -24.524  0.00  0.00    -0.132 S 
ENDROOT
BRANCH   1   2
ATOM      2  C   UNL     1      34.868 -15.689 -23.192  0.00  0.00    +0.099 C 
BRANCH   2   5
ATOM      3  N   UNL     1      32.126 -13.586 -22.122  0.00  0.00    -0.319 N 
ATOM      4  N   UNL     1      33.766 -13.524 -23.618  0.00  0.00    -0.318 N 
ATOM      5  C   UNL     1      33.806 -14.682 -22.903  0.00  0.00    +0.043 C 
ATOM      6  C   UNL     1      32.814 -14.757 -21.973  0.00  0.00    +0.033 C 
ATOM      7  C   UNL     1      32.439 -15.774 -20.977  0.00  0.00    +0.048 C 
ATOM      8  C   UNL     1      32.734 -12.878 -23.120  0.00  0.00    +0.181 C 
ATOM      9  H   UNL     1      31.338 -13.304 -21.604  0.00  0.00    +0.148 HD
ATOM     10  H   UNL     1      34.369 -13.236 -24.341  0.00  0.00    +0.148 HD
ENDBRANCH   2   5
ENDBRANCH   1   2
BRANCH   1  11
ATOM     11  C   UNL     1      35.246 -18.291 -23.970  0.00  0.00    +0.079 C 
BRANCH  11  12
ATOM     12  C   UNL     1      35.473 -18.299 -22.465  0.00  0.00    +0.100 C 
BRANCH  12  13
ATOM     13  N   UNL     1      34.404 -18.948 -21.732  0.00  0.00    -0.315 N 
ATOM     14  H   UNL     1      33.484 -18.731 -22.010  0.00  0.00    +0.148 HD
BRANCH  13  16
ATOM     15  S   UNL     1      33.176 -20.650 -20.133  0.00  0.00    -0.019 S 
ATOM     16  C   UNL     1      34.542 -19.837 -20.684  0.00  0.00    +0.131 C 
BRANCH  16  17
ATOM     17  N   UNL     1      35.819 -19.981 -20.174  0.00  0.00    -0.315 N 
ATOM     18  C   UNL     1      36.430 -21.224 -19.738  0.00  0.00    +0.110 C 
ATOM     19  H   UNL     1      36.365 -19.166 -20.099  0.00  0.00    +0.148 HD
ENDBRANCH  16  17
ENDBRANCH  13  16
ENDBRANCH  12  13
ENDBRANCH  11  12
ENDBRANCH   1  11
TORSDOF 7
ENDMDL
