MODEL 1
REMARK VINA RESULT:      -7.8      0.000      0.000
REMARK  Name = 27901
REMARK  4 active torsions:
REMARK  status: ('A' for Active; 'I' for Inactive)
REMARK    1  A    between atoms: N_1  and  C_3
REMARK    2  A    between atoms: N_1  and  C_10
REMARK    3  A    between atoms: N_1  and  C_16
REMARK    4  A    between atoms: C_16  and  C_18
REMARK                            x       y       z     vdW  Elec       q    Type
REMARK                         _______ _______ _______ _____ _____    ______ ____
ROOT
ATOM      1  N   UNL     1      34.427 -23.796 -15.346  0.00  0.00    -0.305 N 
ENDROOT
BRANCH   1   3
ATOM      2  N   UNL     1      36.039 -22.007 -18.812  0.00  0.00    +0.386 N 
ATOM      3  C   UNL     1      34.767 -22.748 -16.284  0.00  0.00    +0.069 C 
ATOM      4  C   UNL     1      36.285 -22.666 -16.439  0.00  0.00    -0.003 C 
ATOM      5  C   UNL     1      34.112 -23.023 -17.637  0.00  0.00    -0.003 C 
ATOM      6  C   UNL     1      36.676 -21.670 -17.532  0.00  0.00    -0.076 C 
ATOM      7  C   UNL     1      34.573 -22.013 -18.689  0.00  0.00    -0.076 C 
ATOM      8  C   UNL     1      36.461 -21.076 -19.856  0.00  0.00    -0.101 C 
ATOM      9  H   UNL     1      36.335 -22.947 -19.072  0.00  0.00    -0.080 HD
ENDBRANCH   1   3
BRANCH   1  10
ATOM     10  C   UNL     1      33.143 -23.889 -14.797  0.00  0.00    +0.048 C 
ATOM     11  C   UNL     1      32.238 -22.828 -14.928  0.00  0.00    +0.015 C 
ATOM     12  C   UNL     1      32.748 -25.043 -14.110  0.00  0.00    +0.015 C 
ATOM     13  C   UNL     1      30.958 -22.920 -14.382  0.00  0.00    +0.001 C 
ATOM     14  C   UNL     1      31.467 -25.136 -13.564  0.00  0.00    +0.001 C 
ATOM     15  C   UNL     1      30.573 -24.075 -13.701  0.00  0.00    +0.000 C 
ENDBRANCH   1  10
BRANCH   1  16
ATOM     16  C   UNL     1      35.463 -24.754 -14.970  0.00  0.00    +0.124 C 
BRANCH  16  18
ATOM     17  S   UNL     1      37.814 -25.018 -13.549  0.00  0.00    -0.089 S 
ATOM     18  C   UNL     1      36.265 -24.351 -13.761  0.00  0.00    +0.027 C 
ATOM     19  C   UNL     1      35.902 -23.488 -12.772  0.00  0.00    +0.004 C 
ATOM     20  C   UNL     1      36.931 -23.363 -11.794  0.00  0.00    +0.007 C 
ATOM     21  C   UNL     1      38.027 -24.141 -12.095  0.00  0.00    +0.035 C 
ENDBRANCH  16  18
ENDBRANCH   1  16
TORSDOF 4
ENDMDL
MODEL 2
REMARK VINA RESULT:      -7.8     10.456     14.136
REMARK  Name = 27901
REMARK  4 active torsions:
REMARK  status: ('A' for Active; 'I' for Inactive)
REMARK    1  A    between atoms: N_1  and  C_3
REMARK    2  A    between atoms: N_1  and  C_10
REMARK    3  A    between atoms: N_1  and  C_16
REMARK    4  A    between atoms: C_16  and  C_18
REMARK                            x       y       z     vdW  Elec       q    Type
REMARK                         _______ _______ _______ _____ _____    ______ ____
ROOT
ATOM      1  N   UNL     1      32.944 -12.616 -22.905  0.00  0.00    -0.305 N 
ENDROOT
BRANCH   1   3
ATOM      2  N   UNL     1      33.844 -16.627 -21.950  0.00  0.00    +0.386 N 
ATOM      3  C   UNL     1      33.543 -13.728 -22.199  0.00  0.00    +0.069 C 
ATOM      4  C   UNL     1      32.448 -14.613 -21.605  0.00  0.00    -0.003 C 
ATOM      5  C   UNL     1      34.421 -14.541 -23.150  0.00  0.00    -0.003 C 
ATOM      6  C   UNL     1      33.038 -15.877 -20.978  0.00  0.00    -0.076 C 
ATOM      7  C   UNL     1      34.948 -15.806 -22.470  0.00  0.00    -0.076 C 
ATOM      8  C   UNL     1      34.360 -17.855 -21.349  0.00  0.00    -0.101 C 
ATOM      9  H   UNL     1      33.241 -16.874 -22.734  0.00  0.00    -0.080 HD
ENDBRANCH   1   3
BRANCH   1  10
ATOM     10  C   UNL     1      33.596 -12.005 -23.982  0.00  0.00    +0.048 C 
ATOM     11  C   UNL     1      34.351 -10.842 -23.784  0.00  0.00    +0.015 C 
ATOM     12  C   UNL     1      33.503 -12.548 -25.269  0.00  0.00    +0.015 C 
ATOM     13  C   UNL     1      35.003 -10.233 -24.856  0.00  0.00    +0.001 C 
ATOM     14  C   UNL     1      34.155 -11.939 -26.341  0.00  0.00    +0.001 C 
ATOM     15  C   UNL     1      34.904 -10.782 -26.135  0.00  0.00    +0.000 C 
ENDBRANCH   1  10
BRANCH   1  16
ATOM     16  C   UNL     1      31.641 -12.130 -22.458  0.00  0.00    +0.124 C 
BRANCH  16  18
ATOM     17  S   UNL     1      31.933  -9.550 -21.524  0.00  0.00    -0.089 S 
ATOM     18  C   UNL     1      31.701 -11.214 -21.265  0.00  0.00    +0.027 C 
ATOM     19  C   UNL     1      31.590 -11.552 -19.950  0.00  0.00    +0.004 C 
ATOM     20  C   UNL     1      31.699 -10.405 -19.113  0.00  0.00    +0.007 C 
ATOM     21  C   UNL     1      31.887  -9.250 -19.839  0.00  0.00    +0.035 C 
ENDBRANCH  16  18
ENDBRANCH   1  16
TORSDOF 4
ENDMDL
MODEL 3
REMARK VINA RESULT:      -7.8      2.387      5.881
REMARK  Name = 27901
REMARK  4 active torsions:
REMARK  status: ('A' for Active; 'I' for Inactive)
REMARK    1  A    between atoms: N_1  and  C_3
REMARK    2  A    between atoms: N_1  and  C_10
REMARK    3  A    between atoms: N_1  and  C_16
REMARK    4  A    between atoms: C_16  and  C_18
REMARK                            x       y       z     vdW  Elec       q    Type
REMARK                         _______ _______ _______ _____ _____    ______ ____
ROOT
ATOM      1  N   UNL     1      33.781 -23.468 -15.277  0.00  0.00    -0.305 N 
ENDROOT
BRANCH   1   3
ATOM      2  N   UNL     1      37.044 -25.208 -13.244  0.00  0.00    +0.386 N 
ATOM      3  C   UNL     1      34.521 -24.451 -14.516  0.00  0.00    +0.069 C 
ATOM      4  C   UNL     1      35.729 -24.927 -15.321  0.00  0.00    -0.003 C 
ATOM      5  C   UNL     1      34.977 -23.848 -13.187  0.00  0.00    -0.003 C 
ATOM      6  C   UNL     1      36.616 -25.856 -14.491  0.00  0.00    -0.076 C 
ATOM      7  C   UNL     1      35.887 -24.814 -12.426  0.00  0.00    -0.076 C 
ATOM      8  C   UNL     1      37.929 -26.089 -12.486  0.00  0.00    -0.101 C 
ATOM      9  H   UNL     1      37.556 -24.362 -13.490  0.00  0.00    -0.080 HD
ENDBRANCH   1   3
BRANCH   1  10
ATOM     10  C   UNL     1      34.236 -23.026 -16.525  0.00  0.00    +0.048 C 
ATOM     11  C   UNL     1      35.495 -22.425 -16.647  0.00  0.00    +0.015 C 
ATOM     12  C   UNL     1      33.438 -23.178 -17.666  0.00  0.00    +0.015 C 
ATOM     13  C   UNL     1      35.950 -21.985 -17.890  0.00  0.00    +0.001 C 
ATOM     14  C   UNL     1      33.893 -22.739 -18.909  0.00  0.00    +0.001 C 
ATOM     15  C   UNL     1      35.148 -22.142 -19.021  0.00  0.00    +0.000 C 
ENDBRANCH   1  10
BRANCH   1  16
ATOM     16  C   UNL     1      32.549 -22.931 -14.707  0.00  0.00    +0.124 C 
BRANCH  16  18
ATOM     17  S   UNL     1      30.147 -23.225 -16.035  0.00  0.00    -0.089 S 
ATOM     18  C   UNL     1      31.333 -23.784 -14.952  0.00  0.00    +0.027 C 
ATOM     19  C   UNL     1      31.041 -24.994 -14.401  0.00  0.00    +0.004 C 
ATOM     20  C   UNL     1      29.795 -25.492 -14.879  0.00  0.00    +0.007 C 
ATOM     21  C   UNL     1      29.203 -24.629 -15.775  0.00  0.00    +0.035 C 
ENDBRANCH  16  18
ENDBRANCH   1  16
TORSDOF 4
ENDMDL
MODEL 4
REMARK VINA RESULT:      -7.8      1.552      5.042
REMARK  Name = 27901
REMARK  4 active torsions:
REMARK  status: ('A' for Active; 'I' for Inactive)
REMARK    1  A    between atoms: N_1  and  C_3
REMARK    2  A    between atoms: N_1  and  C_10
REMARK    3  A    between atoms: N_1  and  C_16
REMARK    4  A    between atoms: C_16  and  C_18
REMARK                            x       y       z     vdW  Elec       q    Type
REMARK                         _______ _______ _______ _____ _____    ______ ____
ROOT
ATOM      1  N   UNL     1      34.410 -23.420 -15.538  0.00  0.00    -0.305 N 
ENDROOT
BRANCH   1   3
ATOM      2  N   UNL     1      30.352 -24.137 -14.632  0.00  0.00    +0.386 N 
ATOM      3  C   UNL     1      33.121 -24.076 -15.572  0.00  0.00    +0.069 C 
ATOM      4  C   UNL     1      32.747 -24.553 -14.169  0.00  0.00    -0.003 C 
ATOM      5  C   UNL     1      32.058 -23.114 -16.103  0.00  0.00    -0.003 C 
ATOM      6  C   UNL     1      31.327 -25.119 -14.138  0.00  0.00    -0.076 C 
ATOM      7  C   UNL     1      30.661 -23.730 -16.010  0.00  0.00    -0.076 C 
ATOM      8  C   UNL     1      28.996 -24.676 -14.549  0.00  0.00    -0.101 C 
ATOM      9  H   UNL     1      30.412 -23.310 -14.039  0.00  0.00    -0.080 HD
ENDBRANCH   1   3
BRANCH   1  10
ATOM     10  C   UNL     1      34.949 -22.821 -16.683  0.00  0.00    +0.048 C 
ATOM     11  C   UNL     1      36.235 -22.264 -16.651  0.00  0.00    +0.015 C 
ATOM     12  C   UNL     1      34.212 -22.770 -17.872  0.00  0.00    +0.015 C 
ATOM     13  C   UNL     1      36.774 -21.669 -17.791  0.00  0.00    +0.001 C 
ATOM     14  C   UNL     1      34.751 -22.175 -19.012  0.00  0.00    +0.001 C 
ATOM     15  C   UNL     1      36.032 -21.624 -18.971  0.00  0.00    +0.000 C 
ENDBRANCH   1  10
BRANCH   1  16
ATOM     16  C   UNL     1      35.151 -23.409 -14.280  0.00  0.00    +0.124 C 
BRANCH  16  18
ATOM     17  S   UNL     1      36.507 -24.983 -12.464  0.00  0.00    -0.089 S 
ATOM     18  C   UNL     1      35.986 -24.639 -14.045  0.00  0.00    +0.027 C 
ATOM     19  C   UNL     1      36.399 -25.552 -14.967  0.00  0.00    +0.004 C 
ATOM     20  C   UNL     1      37.176 -26.581 -14.361  0.00  0.00    +0.007 C 
ATOM     21  C   UNL     1      37.313 -26.394 -13.003  0.00  0.00    +0.035 C 
ENDBRANCH  16  18
ENDBRANCH   1  16
TORSDOF 4
ENDMDL
MODEL 5
REMARK VINA RESULT:      -7.8      1.254      4.819
REMARK  Name = 27901
REMARK  4 active torsions:
REMARK  status: ('A' for Active; 'I' for Inactive)
REMARK    1  A    between atoms: N_1  and  C_3
REMARK    2  A    between atoms: N_1  and  C_10
REMARK    3  A    between atoms: N_1  and  C_16
REMARK    4  A    between atoms: C_16  and  C_18
REMARK                            x       y       z     vdW  Elec       q    Type
REMARK                         _______ _______ _______ _____ _____    ______ ____
ROOT
ATOM      1  N   UNL     1      34.548 -23.708 -15.464  0.00  0.00    -0.305 N 
ENDROOT
BRANCH   1   3
ATOM      2  N   UNL     1      30.377 -24.332 -15.336  0.00  0.00    +0.386 N 
ATOM      3  C   UNL     1      33.159 -23.448 -15.154  0.00  0.00    +0.069 C 
ATOM      4  C   UNL     1      32.353 -23.341 -16.448  0.00  0.00    -0.003 C 
ATOM      5  C   UNL     1      32.600 -24.566 -14.275  0.00  0.00    -0.003 C 
ATOM      6  C   UNL     1      30.856 -23.213 -16.158  0.00  0.00    -0.076 C 
ATOM      7  C   UNL     1      31.096 -24.396 -14.055  0.00  0.00    -0.076 C 
ATOM      8  C   UNL     1      28.937 -24.221 -15.108  0.00  0.00    -0.101 C 
ATOM      9  H   UNL     1      30.563 -25.197 -15.843  0.00  0.00    -0.080 HD
ENDBRANCH   1   3
BRANCH   1  10
ATOM     10  C   UNL     1      35.238 -22.936 -16.406  0.00  0.00    +0.048 C 
ATOM     11  C   UNL     1      36.440 -22.306 -16.060  0.00  0.00    +0.015 C 
ATOM     12  C   UNL     1      34.736 -22.784 -17.704  0.00  0.00    +0.015 C 
ATOM     13  C   UNL     1      37.130 -21.538 -16.998  0.00  0.00    +0.001 C 
ATOM     14  C   UNL     1      35.426 -22.017 -18.642  0.00  0.00    +0.001 C 
ATOM     15  C   UNL     1      36.623 -21.393 -18.289  0.00  0.00    +0.000 C 
ENDBRANCH   1  10
BRANCH   1  16
ATOM     16  C   UNL     1      35.218 -24.811 -14.780  0.00  0.00    +0.124 C 
BRANCH  16  18
ATOM     17  S   UNL     1      37.696 -24.985 -13.580  0.00  0.00    -0.089 S 
ATOM     18  C   UNL     1      36.108 -24.383 -13.644  0.00  0.00    +0.027 C 
ATOM     19  C   UNL     1      35.800 -23.543 -12.618  0.00  0.00    +0.004 C 
ATOM     20  C   UNL     1      36.907 -23.380 -11.735  0.00  0.00    +0.007 C 
ATOM     21  C   UNL     1      38.003 -24.109 -12.141  0.00  0.00    +0.035 C 
ENDBRANCH  16  18
ENDBRANCH   1  16
TORSDOF 4
ENDMDL
MODEL 6
REMARK VINA RESULT:      -7.7      2.402      4.915
REMARK  Name = 27901
REMARK  4 active torsions:
REMARK  status: ('A' for Active; 'I' for Inactive)
REMARK    1  A    between atoms: N_1  and  C_3
REMARK    2  A    between atoms: N_1  and  C_10
REMARK    3  A    between atoms: N_1  and  C_16
REMARK    4  A    between atoms: C_16  and  C_18
REMARK                            x       y       z     vdW  Elec       q    Type
REMARK                         _______ _______ _______ _____ _____    ______ ____
ROOT
ATOM      1  N   UNL     1      33.657 -23.404 -16.574  0.00  0.00    -0.305 N 
ENDROOT
BRANCH   1   3
ATOM      2  N   UNL     1      37.592 -24.353 -15.382  0.00  0.00    +0.386 N 
ATOM      3  C   UNL     1      34.838 -23.436 -15.738  0.00  0.00    +0.069 C 
ATOM      4  C   UNL     1      35.175 -24.881 -15.375  0.00  0.00    -0.003 C 
ATOM      5  C   UNL     1      36.014 -22.787 -16.468  0.00  0.00    -0.003 C 
ATOM      6  C   UNL     1      36.500 -24.966 -14.615  0.00  0.00    -0.076 C 
ATOM      7  C   UNL     1      37.310 -22.938 -15.671  0.00  0.00    -0.076 C 
ATOM      8  C   UNL     1      38.859 -24.485 -14.665  0.00  0.00    -0.101 C 
ATOM      9  H   UNL     1      37.667 -24.845 -16.272  0.00  0.00    -0.080 HD
ENDBRANCH   1   3
BRANCH   1  10
ATOM     10  C   UNL     1      32.388 -23.175 -16.029  0.00  0.00    +0.048 C 
ATOM     11  C   UNL     1      32.238 -22.958 -14.654  0.00  0.00    +0.015 C 
ATOM     12  C   UNL     1      31.255 -23.161 -16.852  0.00  0.00    +0.015 C 
ATOM     13  C   UNL     1      30.974 -22.727 -14.110  0.00  0.00    +0.001 C 
ATOM     14  C   UNL     1      29.992 -22.931 -16.308  0.00  0.00    +0.001 C 
ATOM     15  C   UNL     1      29.851 -22.715 -14.937  0.00  0.00    +0.000 C 
ENDBRANCH   1  10
BRANCH   1  16
ATOM     16  C   UNL     1      33.815 -23.633 -18.008  0.00  0.00    +0.124 C 
BRANCH  16  18
ATOM     17  S   UNL     1      35.354 -21.859 -19.456  0.00  0.00    -0.089 S 
ATOM     18  C   UNL     1      33.860 -22.374 -18.832  0.00  0.00    +0.027 C 
ATOM     19  C   UNL     1      32.821 -21.556 -19.159  0.00  0.00    +0.004 C 
ATOM     20  C   UNL     1      33.259 -20.458 -19.953  0.00  0.00    +0.007 C 
ATOM     21  C   UNL     1      34.615 -20.501 -20.190  0.00  0.00    +0.035 C 
ENDBRANCH  16  18
ENDBRANCH   1  16
TORSDOF 4
ENDMDL
MODEL 7
REMARK VINA RESULT:      -7.5     14.220     16.665
REMARK  Name = 27901
REMARK  4 active torsions:
REMARK  status: ('A' for Active; 'I' for Inactive)
REMARK    1  A    between atoms: N_1  and  C_3
REMARK    2  A    between atoms: N_1  and  C_10
REMARK    3  A    between atoms: N_1  and  C_16
REMARK    4  A    between atoms: C_16  and  C_18
REMARK                            x       y       z     vdW  Elec       q    Type
REMARK                         _______ _______ _______ _____ _____    ______ ____
ROOT
ATOM      1  N   UNL     1      32.927  -9.535 -23.166  0.00  0.00    -0.305 N 
ENDROOT
BRANCH   1   3
ATOM      2  N   UNL     1      31.637  -5.638 -24.142  0.00  0.00    +0.386 N 
ATOM      3  C   UNL     1      32.474  -8.437 -23.991  0.00  0.00    +0.069 C 
ATOM      4  C   UNL     1      31.096  -7.972 -23.522  0.00  0.00    -0.003 C 
ATOM      5  C   UNL     1      33.473  -7.282 -23.920  0.00  0.00    -0.003 C 
ATOM      6  C   UNL     1      30.650  -6.718 -24.275  0.00  0.00    -0.076 C 
ATOM      7  C   UNL     1      32.949  -6.052 -24.663  0.00  0.00    -0.076 C 
ATOM      8  C   UNL     1      31.174  -4.432 -24.826  0.00  0.00    -0.101 C 
ATOM      9  H   UNL     1      31.745  -5.431 -23.150  0.00  0.00    -0.080 HD
ENDBRANCH   1   3
BRANCH   1  10
ATOM     10  C   UNL     1      32.260  -9.878 -21.983  0.00  0.00    +0.048 C 
ATOM     11  C   UNL     1      32.480  -9.145 -20.810  0.00  0.00    +0.015 C 
ATOM     12  C   UNL     1      31.366 -10.955 -21.959  0.00  0.00    +0.015 C 
ATOM     13  C   UNL     1      31.815  -9.483 -19.632  0.00  0.00    +0.001 C 
ATOM     14  C   UNL     1      30.700 -11.293 -20.781  0.00  0.00    +0.001 C 
ATOM     15  C   UNL     1      30.925 -10.558 -19.618  0.00  0.00    +0.000 C 
ENDBRANCH   1  10
BRANCH   1  16
ATOM     16  C   UNL     1      34.112 -10.278 -23.586  0.00  0.00    +0.124 C 
BRANCH  16  18
ATOM     17  S   UNL     1      33.554 -12.978 -23.695  0.00  0.00    -0.089 S 
ATOM     18  C   UNL     1      33.816 -11.477 -24.447  0.00  0.00    +0.027 C 
ATOM     19  C   UNL     1      33.726 -11.523 -25.805  0.00  0.00    +0.004 C 
ATOM     20  C   UNL     1      33.431 -12.841 -26.257  0.00  0.00    +0.007 C 
ATOM     21  C   UNL     1      33.310 -13.731 -25.213  0.00  0.00    +0.035 C 
ENDBRANCH  16  18
ENDBRANCH   1  16
TORSDOF 4
ENDMDL
MODEL 8
REMARK VINA RESULT:      -7.5      5.651      9.934
REMARK  Name = 27901
REMARK  4 active torsions:
REMARK  status: ('A' for Active; 'I' for Inactive)
REMARK    1  A    between atoms: N_1  and  C_3
REMARK    2  A    between atoms: N_1  and  C_10
REMARK    3  A    between atoms: N_1  and  C_16
REMARK    4  A    between atoms: C_16  and  C_18
REMARK                            x       y       z     vdW  Elec       q    Type
REMARK                         _______ _______ _______ _____ _____    ______ ____
ROOT
ATOM      1  N   UNL     1      34.885 -18.419 -21.736  0.00  0.00    -0.305 N 
ENDROOT
BRANCH   1   3
ATOM      2  N   UNL     1      34.478 -21.548 -18.934  0.00  0.00    +0.386 N 
ATOM      3  C   UNL     1      34.764 -19.773 -21.242  0.00  0.00    +0.069 C 
ATOM      4  C   UNL     1      35.931 -20.088 -20.306  0.00  0.00    -0.003 C 
ATOM      5  C   UNL     1      33.435 -19.945 -20.505  0.00  0.00    -0.003 C 
ATOM      6  C   UNL     1      35.758 -21.458 -19.649  0.00  0.00    -0.076 C 
ATOM      7  C   UNL     1      33.345 -21.321 -19.844  0.00  0.00    -0.076 C 
ATOM      8  C   UNL     1      34.350 -22.844 -18.272  0.00  0.00    -0.101 C 
ATOM      9  H   UNL     1      34.462 -20.815 -18.225  0.00  0.00    -0.080 HD
ENDBRANCH   1   3
BRANCH   1  10
ATOM     10  C   UNL     1      34.759 -18.130 -23.100  0.00  0.00    +0.048 C 
ATOM     11  C   UNL     1      34.390 -19.134 -24.004  0.00  0.00    +0.015 C 
ATOM     12  C   UNL     1      34.999 -16.835 -23.576  0.00  0.00    +0.015 C 
ATOM     13  C   UNL     1      34.262 -18.847 -25.363  0.00  0.00    +0.001 C 
ATOM     14  C   UNL     1      34.871 -16.548 -24.935  0.00  0.00    +0.001 C 
ATOM     15  C   UNL     1      34.503 -17.554 -25.828  0.00  0.00    +0.000 C 
ENDBRANCH   1  10
BRANCH   1  16
ATOM     16  C   UNL     1      35.159 -17.351 -20.777  0.00  0.00    +0.124 C 
BRANCH  16  18
ATOM     17  S   UNL     1      34.654 -14.640 -20.854  0.00  0.00    -0.089 S 
ATOM     18  C   UNL     1      34.129 -16.254 -20.765  0.00  0.00    +0.027 C 
ATOM     19  C   UNL     1      32.775 -16.385 -20.688  0.00  0.00    +0.004 C 
ATOM     20  C   UNL     1      32.133 -15.114 -20.702  0.00  0.00    +0.007 C 
ATOM     21  C   UNL     1      33.038 -14.079 -20.790  0.00  0.00    +0.035 C 
ENDBRANCH  16  18
ENDBRANCH   1  16
TORSDOF 4
ENDMDL
MODEL 9
REMARK VINA RESULT:      -7.5      1.915      4.381
REMARK  Name = 27901
REMARK  4 active torsions:
REMARK  status: ('A' for Active; 'I' for Inactive)
REMARK    1  A    between atoms: N_1  and  C_3
REMARK    2  A    between atoms: N_1  and  C_10
REMARK    3  A    between atoms: N_1  and  C_16
REMARK    4  A    between atoms: C_16  and  C_18
REMARK                            x       y       z     vdW  Elec       q    Type
REMARK                         _______ _______ _______ _____ _____    ______ ____
ROOT
ATOM      1  N   UNL     1      34.946 -23.464 -15.310  0.00  0.00    -0.305 N 
ENDROOT
BRANCH   1   3
ATOM      2  N   UNL     1      35.535 -21.297 -18.882  0.00  0.00    +0.386 N 
ATOM      3  C   UNL     1      35.341 -23.210 -16.678  0.00  0.00    +0.069 C 
ATOM      4  C   UNL     1      34.123 -22.784 -17.497  0.00  0.00    -0.003 C 
ATOM      5  C   UNL     1      36.413 -22.121 -16.720  0.00  0.00    -0.003 C 
ATOM      6  C   UNL     1      34.527 -22.366 -18.912  0.00  0.00    -0.076 C 
ATOM      7  C   UNL     1      36.743 -21.726 -18.161  0.00  0.00    -0.076 C 
ATOM      8  C   UNL     1      35.874 -20.875 -20.240  0.00  0.00    -0.101 C 
ATOM      9  H   UNL     1      35.136 -20.503 -18.383  0.00  0.00    -0.080 HD
ENDBRANCH   1   3
BRANCH   1  10
ATOM     10  C   UNL     1      35.669 -24.344 -14.497  0.00  0.00    +0.048 C 
ATOM     11  C   UNL     1      35.880 -24.047 -13.144  0.00  0.00    +0.015 C 
ATOM     12  C   UNL     1      36.189 -25.533 -15.025  0.00  0.00    +0.015 C 
ATOM     13  C   UNL     1      36.598 -24.925 -12.333  0.00  0.00    +0.001 C 
ATOM     14  C   UNL     1      36.907 -26.410 -14.213  0.00  0.00    +0.001 C 
ATOM     15  C   UNL     1      37.112 -26.106 -12.868  0.00  0.00    +0.000 C 
ENDBRANCH   1  10
BRANCH   1  16
ATOM     16  C   UNL     1      33.758 -22.788 -14.793  0.00  0.00    +0.124 C 
BRANCH  16  18
ATOM     17  S   UNL     1      31.222 -23.350 -15.723  0.00  0.00    -0.089 S 
ATOM     18  C   UNL     1      32.540 -23.668 -14.699  0.00  0.00    +0.027 C 
ATOM     19  C   UNL     1      32.344 -24.730 -13.869  0.00  0.00    +0.004 C 
ATOM     20  C   UNL     1      31.060 -25.313 -14.073  0.00  0.00    +0.007 C 
ATOM     21  C   UNL     1      30.346 -24.661 -15.054  0.00  0.00    +0.035 C 
ENDBRANCH  16  18
ENDBRANCH   1  16
TORSDOF 4
ENDMDL
