MODEL 1
REMARK VINA RESULT:      -8.0      0.000      0.000
REMARK  Name = 4909
REMARK  2 active torsions:
REMARK  status: ('A' for Active; 'I' for Inactive)
REMARK    1  A    between atoms: C_5  and  C_11
REMARK    2  A    between atoms: C_5  and  C_17
REMARK                            x       y       z     vdW  Elec       q    Type
REMARK                         _______ _______ _______ _____ _____    ______ ____
ROOT
ATOM      1  O   UNL     1      36.453 -25.715 -11.610  0.00  0.00    -0.274 OA
ATOM      2  O   UNL     1      38.454 -23.505 -15.084  0.00  0.00    -0.274 OA
ATOM      3  N   UNL     1      36.774 -26.837 -13.583  0.00  0.00    -0.287 N 
ATOM      4  N   UNL     1      37.830 -25.692 -15.381  0.00  0.00    -0.287 N 
ATOM      5  C   UNL     1      36.663 -24.373 -13.652  0.00  0.00    +0.156 C 
ATOM      6  C   UNL     1      36.626 -25.687 -12.828  0.00  0.00    +0.235 C 
ATOM      7  C   UNL     1      37.746 -24.458 -14.759  0.00  0.00    +0.235 C 
ATOM      8  C   UNL     1      36.963 -26.780 -15.010  0.00  0.00    +0.186 C 
ATOM      9  H   UNL     1      36.751 -27.714 -13.135  0.00  0.00    +0.151 HD
ATOM     10  H   UNL     1      38.495 -25.827 -16.093  0.00  0.00    +0.151 HD
ENDROOT
BRANCH   5  11
ATOM     11  C   UNL     1      35.271 -24.046 -14.231  0.00  0.00    -0.006 C 
ATOM     12  C   UNL     1      34.141 -24.228 -13.443  0.00  0.00    -0.003 C 
ATOM     13  C   UNL     1      35.162 -23.572 -15.532  0.00  0.00    -0.003 C 
ATOM     14  C   UNL     1      32.882 -23.933 -13.965  0.00  0.00    -0.000 C 
ATOM     15  C   UNL     1      33.904 -23.276 -16.054  0.00  0.00    -0.000 C 
ATOM     16  C   UNL     1      32.763 -23.456 -15.271  0.00  0.00    -0.000 C 
ENDBRANCH   5  11
BRANCH   5  17
ATOM     17  C   UNL     1      37.047 -23.216 -12.703  0.00  0.00    +0.022 C 
ATOM     18  C   UNL     1      38.299 -23.544 -11.918  0.00  0.00    +0.001 C 
ENDBRANCH   5  17
TORSDOF 2
ENDMDL
MODEL 2
REMARK VINA RESULT:      -7.8      1.457      2.307
REMARK  Name = 4909
REMARK  2 active torsions:
REMARK  status: ('A' for Active; 'I' for Inactive)
REMARK    1  A    between atoms: C_5  and  C_11
REMARK    2  A    between atoms: C_5  and  C_17
REMARK                            x       y       z     vdW  Elec       q    Type
REMARK                         _______ _______ _______ _____ _____    ______ ____
ROOT
ATOM      1  O   UNL     1      36.431 -25.732 -11.621  0.00  0.00    -0.274 OA
ATOM      2  O   UNL     1      40.361 -24.848 -13.795  0.00  0.00    -0.274 OA
ATOM      3  N   UNL     1      36.993 -27.016 -13.435  0.00  0.00    -0.287 N 
ATOM      4  N   UNL     1      39.044 -26.566 -14.552  0.00  0.00    -0.287 N 
ATOM      5  C   UNL     1      37.970 -24.756 -13.262  0.00  0.00    +0.156 C 
ATOM      6  C   UNL     1      37.062 -25.866 -12.669  0.00  0.00    +0.235 C 
ATOM      7  C   UNL     1      39.253 -25.377 -13.874  0.00  0.00    +0.235 C 
ATOM      8  C   UNL     1      37.731 -27.145 -14.665  0.00  0.00    +0.186 C 
ATOM      9  H   UNL     1      36.429 -27.764 -13.131  0.00  0.00    +0.151 HD
ATOM     10  H   UNL     1      39.810 -27.024 -14.967  0.00  0.00    +0.151 HD
ENDROOT
BRANCH   5  11
ATOM     11  C   UNL     1      37.197 -23.902 -14.289  0.00  0.00    -0.006 C 
ATOM     12  C   UNL     1      37.891 -23.259 -15.307  0.00  0.00    -0.003 C 
ATOM     13  C   UNL     1      35.817 -23.785 -14.184  0.00  0.00    -0.003 C 
ATOM     14  C   UNL     1      37.193 -22.487 -16.234  0.00  0.00    -0.000 C 
ATOM     15  C   UNL     1      35.119 -23.013 -15.112  0.00  0.00    -0.000 C 
ATOM     16  C   UNL     1      35.807 -22.364 -16.138  0.00  0.00    -0.000 C 
ENDBRANCH   5  11
BRANCH   5  17
ATOM     17  C   UNL     1      38.400 -23.816 -12.115  0.00  0.00    +0.022 C 
ATOM     18  C   UNL     1      37.294 -22.845 -11.759  0.00  0.00    +0.001 C 
ENDBRANCH   5  17
TORSDOF 2
ENDMDL
MODEL 3
REMARK VINA RESULT:      -7.1      2.112      3.354
REMARK  Name = 4909
REMARK  2 active torsions:
REMARK  status: ('A' for Active; 'I' for Inactive)
REMARK    1  A    between atoms: C_5  and  C_11
REMARK    2  A    between atoms: C_5  and  C_17
REMARK                            x       y       z     vdW  Elec       q    Type
REMARK                         _______ _______ _______ _____ _____    ______ ____
ROOT
ATOM      1  O   UNL     1      38.946 -22.856 -11.709  0.00  0.00    -0.274 OA
ATOM      2  O   UNL     1      36.976 -26.845 -12.787  0.00  0.00    -0.274 OA
ATOM      3  N   UNL     1      36.776 -23.216 -11.066  0.00  0.00    -0.287 N 
ATOM      4  N   UNL     1      35.760 -25.296 -11.612  0.00  0.00    -0.287 N 
ATOM      5  C   UNL     1      37.646 -24.496 -12.988  0.00  0.00    +0.156 C 
ATOM      6  C   UNL     1      37.880 -23.451 -11.865  0.00  0.00    +0.235 C 
ATOM      7  C   UNL     1      36.787 -25.674 -12.460  0.00  0.00    +0.235 C 
ATOM      8  C   UNL     1      35.534 -23.914 -11.276  0.00  0.00    +0.186 C 
ATOM      9  H   UNL     1      36.840 -22.557 -10.337  0.00  0.00    +0.151 HD
ATOM     10  H   UNL     1      35.171 -25.987 -11.232  0.00  0.00    +0.151 HD
ENDROOT
BRANCH   5  11
ATOM     11  C   UNL     1      37.016 -23.835 -14.233  0.00  0.00    -0.006 C 
ATOM     12  C   UNL     1      35.771 -24.261 -14.678  0.00  0.00    -0.003 C 
ATOM     13  C   UNL     1      37.701 -22.823 -14.893  0.00  0.00    -0.003 C 
ATOM     14  C   UNL     1      35.202 -23.665 -15.803  0.00  0.00    -0.000 C 
ATOM     15  C   UNL     1      37.131 -22.226 -16.017  0.00  0.00    -0.000 C 
ATOM     16  C   UNL     1      35.881 -22.647 -16.473  0.00  0.00    -0.000 C 
ENDBRANCH   5  11
BRANCH   5  17
ATOM     17  C   UNL     1      39.017 -25.065 -13.416  0.00  0.00    +0.022 C 
ATOM     18  C   UNL     1      38.922 -25.778 -14.748  0.00  0.00    +0.001 C 
ENDBRANCH   5  17
TORSDOF 2
ENDMDL
MODEL 4
REMARK VINA RESULT:      -7.1      2.122      3.576
REMARK  Name = 4909
REMARK  2 active torsions:
REMARK  status: ('A' for Active; 'I' for Inactive)
REMARK    1  A    between atoms: C_5  and  C_11
REMARK    2  A    between atoms: C_5  and  C_17
REMARK                            x       y       z     vdW  Elec       q    Type
REMARK                         _______ _______ _______ _____ _____    ______ ____
ROOT
ATOM      1  O   UNL     1      39.167 -25.578 -13.099  0.00  0.00    -0.274 OA
ATOM      2  O   UNL     1      34.750 -25.031 -12.027  0.00  0.00    -0.274 OA
ATOM      3  N   UNL     1      38.549 -23.716 -11.915  0.00  0.00    -0.287 N 
ATOM      4  N   UNL     1      36.256 -23.443 -11.344  0.00  0.00    -0.287 N 
ATOM      5  C   UNL     1      36.838 -24.835 -13.297  0.00  0.00    +0.156 C 
ATOM      6  C   UNL     1      38.296 -24.774 -12.769  0.00  0.00    +0.235 C 
ATOM      7  C   UNL     1      35.838 -24.474 -12.167  0.00  0.00    +0.235 C 
ATOM      8  C   UNL     1      37.517 -22.779 -11.553  0.00  0.00    +0.186 C 
ATOM      9  H   UNL     1      39.454 -23.601 -11.545  0.00  0.00    +0.151 HD
ATOM     10  H   UNL     1      35.678 -23.156 -10.600  0.00  0.00    +0.151 HD
ENDROOT
BRANCH   5  11
ATOM     11  C   UNL     1      36.661 -23.930 -14.534  0.00  0.00    -0.006 C 
ATOM     12  C   UNL     1      35.385 -23.674 -15.019  0.00  0.00    -0.003 C 
ATOM     13  C   UNL     1      37.779 -23.380 -15.148  0.00  0.00    -0.003 C 
ATOM     14  C   UNL     1      35.224 -22.857 -16.137  0.00  0.00    -0.000 C 
ATOM     15  C   UNL     1      37.619 -22.562 -16.265  0.00  0.00    -0.000 C 
ATOM     16  C   UNL     1      36.341 -22.300 -16.761  0.00  0.00    -0.000 C 
ENDBRANCH   5  11
BRANCH   5  17
ATOM     17  C   UNL     1      36.544 -26.284 -13.744  0.00  0.00    +0.022 C 
ATOM     18  C   UNL     1      36.947 -26.504 -15.186  0.00  0.00    +0.001 C 
ENDBRANCH   5  17
TORSDOF 2
ENDMDL
MODEL 5
REMARK VINA RESULT:      -6.9      1.765      3.800
REMARK  Name = 4909
REMARK  2 active torsions:
REMARK  status: ('A' for Active; 'I' for Inactive)
REMARK    1  A    between atoms: C_5  and  C_11
REMARK    2  A    between atoms: C_5  and  C_17
REMARK                            x       y       z     vdW  Elec       q    Type
REMARK                         _______ _______ _______ _____ _____    ______ ____
ROOT
ATOM      1  O   UNL     1      38.122 -22.865 -16.014  0.00  0.00    -0.274 OA
ATOM      2  O   UNL     1      36.050 -26.892 -15.341  0.00  0.00    -0.274 OA
ATOM      3  N   UNL     1      39.350 -24.600 -15.156  0.00  0.00    -0.287 N 
ATOM      4  N   UNL     1      38.275 -26.696 -14.823  0.00  0.00    -0.287 N 
ATOM      5  C   UNL     1      36.901 -24.646 -14.850  0.00  0.00    +0.156 C 
ATOM      6  C   UNL     1      38.163 -23.938 -15.413  0.00  0.00    +0.235 C 
ATOM      7  C   UNL     1      37.010 -26.181 -15.045  0.00  0.00    +0.235 C 
ATOM      8  C   UNL     1      39.374 -25.849 -14.438  0.00  0.00    +0.186 C 
ATOM      9  H   UNL     1      40.197 -24.209 -15.471  0.00  0.00    +0.151 HD
ATOM     10  H   UNL     1      38.426 -27.663 -14.930  0.00  0.00    +0.151 HD
ENDROOT
BRANCH   5  11
ATOM     11  C   UNL     1      36.671 -24.267 -13.372  0.00  0.00    -0.006 C 
ATOM     12  C   UNL     1      37.383 -23.212 -12.815  0.00  0.00    -0.003 C 
ATOM     13  C   UNL     1      35.753 -24.984 -12.614  0.00  0.00    -0.003 C 
ATOM     14  C   UNL     1      37.175 -22.869 -11.480  0.00  0.00    -0.000 C 
ATOM     15  C   UNL     1      35.545 -24.641 -11.279  0.00  0.00    -0.000 C 
ATOM     16  C   UNL     1      36.256 -23.583 -10.711  0.00  0.00    -0.000 C 
ENDBRANCH   5  11
BRANCH   5  17
ATOM     17  C   UNL     1      35.672 -24.153 -15.645  0.00  0.00    +0.022 C 
ATOM     18  C   UNL     1      35.166 -22.831 -15.108  0.00  0.00    +0.001 C 
ENDBRANCH   5  17
TORSDOF 2
ENDMDL
MODEL 6
REMARK VINA RESULT:      -6.7      1.804      2.413
REMARK  Name = 4909
REMARK  2 active torsions:
REMARK  status: ('A' for Active; 'I' for Inactive)
REMARK    1  A    between atoms: C_5  and  C_11
REMARK    2  A    between atoms: C_5  and  C_17
REMARK                            x       y       z     vdW  Elec       q    Type
REMARK                         _______ _______ _______ _____ _____    ______ ____
ROOT
ATOM      1  O   UNL     1      36.811 -27.387 -13.385  0.00  0.00    -0.274 OA
ATOM      2  O   UNL     1      38.656 -23.527 -11.755  0.00  0.00    -0.274 OA
ATOM      3  N   UNL     1      38.764 -26.627 -14.314  0.00  0.00    -0.287 N 
ATOM      4  N   UNL     1      39.729 -24.631 -13.454  0.00  0.00    -0.287 N 
ATOM      5  C   UNL     1      37.303 -24.993 -13.181  0.00  0.00    +0.156 C 
ATOM      6  C   UNL     1      37.583 -26.456 -13.615  0.00  0.00    +0.235 C 
ATOM      7  C   UNL     1      38.612 -24.311 -12.702  0.00  0.00    +0.235 C 
ATOM      8  C   UNL     1      39.645 -25.521 -14.584  0.00  0.00    +0.186 C 
ATOM      9  H   UNL     1      39.008 -27.526 -14.635  0.00  0.00    +0.151 HD
ATOM     10  H   UNL     1      40.600 -24.240 -13.213  0.00  0.00    +0.151 HD
ENDROOT
BRANCH   5  11
ATOM     11  C   UNL     1      36.622 -24.201 -14.317  0.00  0.00    -0.006 C 
ATOM     12  C   UNL     1      35.399 -24.633 -14.815  0.00  0.00    -0.003 C 
ATOM     13  C   UNL     1      37.238 -23.066 -14.828  0.00  0.00    -0.003 C 
ATOM     14  C   UNL     1      34.784 -23.919 -15.842  0.00  0.00    -0.000 C 
ATOM     15  C   UNL     1      36.622 -22.351 -15.854  0.00  0.00    -0.000 C 
ATOM     16  C   UNL     1      35.394 -22.777 -16.362  0.00  0.00    -0.000 C 
ENDBRANCH   5  11
BRANCH   5  17
ATOM     17  C   UNL     1      36.321 -25.019 -11.989  0.00  0.00    +0.022 C 
ATOM     18  C   UNL     1      35.644 -23.677 -11.808  0.00  0.00    +0.001 C 
ENDBRANCH   5  17
TORSDOF 2
ENDMDL
MODEL 7
REMARK VINA RESULT:      -6.6      2.449      3.450
REMARK  Name = 4909
REMARK  2 active torsions:
REMARK  status: ('A' for Active; 'I' for Inactive)
REMARK    1  A    between atoms: C_5  and  C_11
REMARK    2  A    between atoms: C_5  and  C_17
REMARK                            x       y       z     vdW  Elec       q    Type
REMARK                         _______ _______ _______ _____ _____    ______ ____
ROOT
ATOM      1  O   UNL     1      36.915 -23.074 -12.511  0.00  0.00    -0.274 OA
ATOM      2  O   UNL     1      35.956 -26.492 -15.401  0.00  0.00    -0.274 OA
ATOM      3  N   UNL     1      34.724 -23.461 -13.062  0.00  0.00    -0.287 N 
ATOM      4  N   UNL     1      34.228 -25.248 -14.550  0.00  0.00    -0.287 N 
ATOM      5  C   UNL     1      36.470 -24.221 -14.632  0.00  0.00    +0.156 C 
ATOM      6  C   UNL     1      36.086 -23.537 -13.293  0.00  0.00    +0.235 C 
ATOM      7  C   UNL     1      35.553 -25.444 -14.896  0.00  0.00    +0.235 C 
ATOM      8  C   UNL     1      33.772 -23.998 -13.999  0.00  0.00    +0.186 C 
ATOM      9  H   UNL     1      34.399 -23.030 -12.239  0.00  0.00    +0.151 HD
ATOM     10  H   UNL     1      33.582 -25.979 -14.686  0.00  0.00    +0.151 HD
ENDROOT
BRANCH   5  11
ATOM     11  C   UNL     1      36.435 -23.211 -15.797  0.00  0.00    -0.006 C 
ATOM     12  C   UNL     1      37.470 -22.294 -15.941  0.00  0.00    -0.003 C 
ATOM     13  C   UNL     1      35.372 -23.229 -16.691  0.00  0.00    -0.003 C 
ATOM     14  C   UNL     1      37.439 -21.381 -16.994  0.00  0.00    -0.000 C 
ATOM     15  C   UNL     1      35.341 -22.316 -17.744  0.00  0.00    -0.000 C 
ATOM     16  C   UNL     1      36.375 -21.391 -17.896  0.00  0.00    -0.000 C 
ENDBRANCH   5  11
BRANCH   5  17
ATOM     17  C   UNL     1      37.922 -24.736 -14.515  0.00  0.00    +0.022 C 
ATOM     18  C   UNL     1      38.076 -25.680 -13.342  0.00  0.00    +0.001 C 
ENDBRANCH   5  17
TORSDOF 2
ENDMDL
MODEL 8
REMARK VINA RESULT:      -6.4      2.246      3.669
REMARK  Name = 4909
REMARK  2 active torsions:
REMARK  status: ('A' for Active; 'I' for Inactive)
REMARK    1  A    between atoms: C_5  and  C_11
REMARK    2  A    between atoms: C_5  and  C_17
REMARK                            x       y       z     vdW  Elec       q    Type
REMARK                         _______ _______ _______ _____ _____    ______ ____
ROOT
ATOM      1  O   UNL     1      35.359 -26.233 -15.551  0.00  0.00    -0.274 OA
ATOM      2  O   UNL     1      38.827 -23.250 -15.728  0.00  0.00    -0.274 OA
ATOM      3  N   UNL     1      34.885 -24.022 -15.924  0.00  0.00    -0.287 N 
ATOM      4  N   UNL     1      36.690 -22.477 -16.032  0.00  0.00    -0.287 N 
ATOM      5  C   UNL     1      36.999 -24.581 -14.780  0.00  0.00    +0.156 C 
ATOM      6  C   UNL     1      35.684 -25.050 -15.457  0.00  0.00    +0.235 C 
ATOM      7  C   UNL     1      37.616 -23.392 -15.563  0.00  0.00    +0.235 C 
ATOM      8  C   UNL     1      35.280 -22.643 -15.791  0.00  0.00    +0.186 C 
ATOM      9  H   UNL     1      34.027 -24.237 -16.357  0.00  0.00    +0.151 HD
ATOM     10  H   UNL     1      37.003 -21.695 -16.542  0.00  0.00    +0.151 HD
ENDROOT
BRANCH   5  11
ATOM     11  C   UNL     1      36.760 -24.233 -13.296  0.00  0.00    -0.006 C 
ATOM     12  C   UNL     1      37.396 -23.129 -12.740  0.00  0.00    -0.003 C 
ATOM     13  C   UNL     1      35.913 -25.026 -12.532  0.00  0.00    -0.003 C 
ATOM     14  C   UNL     1      37.181 -22.815 -11.399  0.00  0.00    -0.000 C 
ATOM     15  C   UNL     1      35.697 -24.711 -11.191  0.00  0.00    -0.000 C 
ATOM     16  C   UNL     1      36.331 -23.605 -10.624  0.00  0.00    -0.000 C 
ENDBRANCH   5  11
BRANCH   5  17
ATOM     17  C   UNL     1      38.009 -25.749 -14.820  0.00  0.00    +0.022 C 
ATOM     18  C   UNL     1      39.102 -25.562 -13.789  0.00  0.00    +0.001 C 
ENDBRANCH   5  17
TORSDOF 2
ENDMDL
MODEL 9
REMARK VINA RESULT:      -6.3     16.834     18.669
REMARK  Name = 4909
REMARK  2 active torsions:
REMARK  status: ('A' for Active; 'I' for Inactive)
REMARK    1  A    between atoms: C_5  and  C_11
REMARK    2  A    between atoms: C_5  and  C_17
REMARK                            x       y       z     vdW  Elec       q    Type
REMARK                         _______ _______ _______ _____ _____    ______ ____
ROOT
ATOM      1  O   UNL     1      30.283  -7.985 -24.369  0.00  0.00    -0.274 OA
ATOM      2  O   UNL     1      34.519  -7.572 -22.683  0.00  0.00    -0.274 OA
ATOM      3  N   UNL     1      30.646  -6.485 -22.674  0.00  0.00    -0.287 N 
ATOM      4  N   UNL     1      32.851  -6.260 -21.812  0.00  0.00    -0.287 N 
ATOM      5  C   UNL     1      32.214  -8.377 -22.909  0.00  0.00    +0.156 C 
ATOM      6  C   UNL     1      30.961  -7.612 -23.412  0.00  0.00    +0.235 C 
ATOM      7  C   UNL     1      33.321  -7.378 -22.480  0.00  0.00    +0.235 C 
ATOM      8  C   UNL     1      31.448  -6.076 -21.550  0.00  0.00    +0.186 C 
ATOM      9  H   UNL     1      29.858  -5.951 -22.924  0.00  0.00    +0.151 HD
ATOM     10  H   UNL     1      33.492  -5.577 -21.509  0.00  0.00    +0.151 HD
ENDROOT
BRANCH   5  11
ATOM     11  C   UNL     1      31.844  -9.353 -21.773  0.00  0.00    -0.006 C 
ATOM     12  C   UNL     1      32.301  -9.107 -20.483  0.00  0.00    -0.003 C 
ATOM     13  C   UNL     1      31.059 -10.465 -22.050  0.00  0.00    -0.003 C 
ATOM     14  C   UNL     1      31.967  -9.989 -19.456  0.00  0.00    -0.000 C 
ATOM     15  C   UNL     1      30.725 -11.346 -21.022  0.00  0.00    -0.000 C 
ATOM     16  C   UNL     1      31.179 -11.108 -19.724  0.00  0.00    -0.000 C 
ENDBRANCH   5  11
BRANCH   5  17
ATOM     17  C   UNL     1      32.768  -9.223 -24.077  0.00  0.00    +0.022 C 
ATOM     18  C   UNL     1      33.756 -10.258 -23.582  0.00  0.00    +0.001 C 
ENDBRANCH   5  17
TORSDOF 2
ENDMDL
