MODEL 1
REMARK VINA RESULT:      -4.0      0.000      0.000
REMARK  Name = 4755801
REMARK  3 active torsions:
REMARK  status: ('A' for Active; 'I' for Inactive)
REMARK    1  A    between atoms: C_1  and  N_2
REMARK    2  A    between atoms: C_1  and  C_6
REMARK    3  A    between atoms: C_6  and  C_9
REMARK                            x       y       z     vdW  Elec       q    Type
REMARK                         _______ _______ _______ _____ _____    ______ ____
ROOT
ATOM      1  C   UNL     1      37.795 -24.757 -14.697  0.00  0.00    -0.074 C 
ENDROOT
BRANCH   1   2
ATOM      2  N   UNL     1      38.295 -23.799 -15.716  0.00  0.00    +0.381 N 
ATOM      3  H   UNL     1      39.148 -23.356 -15.376  0.00  0.00    -0.089 HD
ATOM      4  H   UNL     1      37.586 -23.087 -15.888  0.00  0.00    -0.089 HD
ATOM      5  H   UNL     1      38.493 -24.299 -16.583  0.00  0.00    -0.089 HD
ENDBRANCH   1   2
BRANCH   1   6
ATOM      6  C   UNL     1      38.879 -25.770 -14.371  0.00  0.00    +0.090 C 
BRANCH   6   9
ATOM      7  O   UNL     1      40.627 -26.117 -15.908  0.00  0.00    -0.246 OA
ATOM      8  O   UNL     1      40.957 -24.618 -14.216  0.00  0.00    -0.246 OA
ATOM      9  C   UNL     1      40.294 -25.464 -14.876  0.00  0.00    +0.363 C 
ENDBRANCH   6   9
ENDBRANCH   1   6
TORSDOF 3
ENDMDL
MODEL 2
REMARK VINA RESULT:      -3.9     10.642     11.297
REMARK  Name = 4755801
REMARK  3 active torsions:
REMARK  status: ('A' for Active; 'I' for Inactive)
REMARK    1  A    between atoms: C_1  and  N_2
REMARK    2  A    between atoms: C_1  and  C_6
REMARK    3  A    between atoms: C_6  and  C_9
REMARK                            x       y       z     vdW  Elec       q    Type
REMARK                         _______ _______ _______ _____ _____    ______ ____
ROOT
ATOM      1  C   UNL     1      30.199 -23.086 -15.623  0.00  0.00    -0.074 C 
ENDROOT
BRANCH   1   2
ATOM      2  N   UNL     1      30.657 -22.638 -16.962  0.00  0.00    +0.381 N 
ATOM      3  H   UNL     1      30.024 -21.922 -17.316  0.00  0.00    -0.089 HD
ATOM      4  H   UNL     1      30.665 -23.432 -17.601  0.00  0.00    -0.089 HD
ATOM      5  H   UNL     1      31.599 -22.252 -16.887  0.00  0.00    -0.089 HD
ENDBRANCH   1   2
BRANCH   1   6
ATOM      6  C   UNL     1      28.699 -23.328 -15.649  0.00  0.00    +0.090 C 
BRANCH   6   9
ATOM      7  O   UNL     1      27.688 -23.838 -17.711  0.00  0.00    -0.246 OA
ATOM      8  O   UNL     1      27.677 -21.664 -17.011  0.00  0.00    -0.246 OA
ATOM      9  C   UNL     1      27.945 -22.892 -16.910  0.00  0.00    +0.363 C 
ENDBRANCH   6   9
ENDBRANCH   1   6
TORSDOF 3
ENDMDL
MODEL 3
REMARK VINA RESULT:      -3.8     10.747     11.125
REMARK  Name = 4755801
REMARK  3 active torsions:
REMARK  status: ('A' for Active; 'I' for Inactive)
REMARK    1  A    between atoms: C_1  and  N_2
REMARK    2  A    between atoms: C_1  and  C_6
REMARK    3  A    between atoms: C_6  and  C_9
REMARK                            x       y       z     vdW  Elec       q    Type
REMARK                         _______ _______ _______ _____ _____    ______ ____
ROOT
ATOM      1  C   UNL     1      29.873 -24.919 -15.568  0.00  0.00    -0.074 C 
ENDROOT
BRANCH   1   2
ATOM      2  N   UNL     1      28.924 -25.353 -14.513  0.00  0.00    +0.381 N 
ATOM      3  H   UNL     1      29.430 -25.868 -13.792  0.00  0.00    -0.089 HD
ATOM      4  H   UNL     1      28.211 -25.955 -14.924  0.00  0.00    -0.089 HD
ATOM      5  H   UNL     1      28.480 -24.534 -14.097  0.00  0.00    -0.089 HD
ENDBRANCH   1   2
BRANCH   1   6
ATOM      6  C   UNL     1      29.627 -23.460 -15.910  0.00  0.00    +0.090 C 
BRANCH   6   9
ATOM      7  O   UNL     1      27.880 -24.182 -17.311  0.00  0.00    -0.246 OA
ATOM      8  O   UNL     1      28.257 -21.938 -17.125  0.00  0.00    -0.246 OA
ATOM      9  C   UNL     1      28.475 -23.155 -16.874  0.00  0.00    +0.363 C 
ENDBRANCH   6   9
ENDBRANCH   1   6
TORSDOF 3
ENDMDL
MODEL 4
REMARK VINA RESULT:      -3.7     10.380     10.709
REMARK  Name = 4755801
REMARK  3 active torsions:
REMARK  status: ('A' for Active; 'I' for Inactive)
REMARK    1  A    between atoms: C_1  and  N_2
REMARK    2  A    between atoms: C_1  and  C_6
REMARK    3  A    between atoms: C_6  and  C_9
REMARK                            x       y       z     vdW  Elec       q    Type
REMARK                         _______ _______ _______ _____ _____    ______ ____
ROOT
ATOM      1  C   UNL     1      41.869 -13.397 -17.212  0.00  0.00    -0.074 C 
ENDROOT
BRANCH   1   2
ATOM      2  N   UNL     1      41.997 -13.187 -15.748  0.00  0.00    +0.381 N 
ATOM      3  H   UNL     1      42.228 -12.211 -15.564  0.00  0.00    -0.089 HD
ATOM      4  H   UNL     1      42.736 -13.787 -15.382  0.00  0.00    -0.089 HD
ATOM      5  H   UNL     1      41.114 -13.418 -15.292  0.00  0.00    -0.089 HD
ENDBRANCH   1   2
BRANCH   1   6
ATOM      6  C   UNL     1      41.503 -14.844 -17.492  0.00  0.00    +0.090 C 
BRANCH   6   9
ATOM      7  O   UNL     1      40.613 -16.110 -15.719  0.00  0.00    -0.246 OA
ATOM      8  O   UNL     1      42.851 -16.273 -16.147  0.00  0.00    -0.246 OA
ATOM      9  C   UNL     1      41.681 -15.843 -16.343  0.00  0.00    +0.363 C 
ENDBRANCH   6   9
ENDBRANCH   1   6
TORSDOF 3
ENDMDL
MODEL 5
REMARK VINA RESULT:      -3.7      3.048      3.384
REMARK  Name = 4755801
REMARK  3 active torsions:
REMARK  status: ('A' for Active; 'I' for Inactive)
REMARK    1  A    between atoms: C_1  and  N_2
REMARK    2  A    between atoms: C_1  and  C_6
REMARK    3  A    between atoms: C_6  and  C_9
REMARK                            x       y       z     vdW  Elec       q    Type
REMARK                         _______ _______ _______ _____ _____    ______ ____
ROOT
ATOM      1  C   UNL     1      35.967 -25.454 -14.903  0.00  0.00    -0.074 C 
ENDROOT
BRANCH   1   2
ATOM      2  N   UNL     1      36.211 -26.909 -15.070  0.00  0.00    +0.381 N 
ATOM      3  H   UNL     1      36.590 -27.292 -14.204  0.00  0.00    -0.089 HD
ATOM      4  H   UNL     1      36.876 -27.057 -15.828  0.00  0.00    -0.089 HD
ATOM      5  H   UNL     1      35.332 -27.377 -15.292  0.00  0.00    -0.089 HD
ENDBRANCH   1   2
BRANCH   1   6
ATOM      6  C   UNL     1      36.839 -24.913 -13.783  0.00  0.00    +0.090 C 
BRANCH   6   9
ATOM      7  O   UNL     1      38.777 -26.179 -13.361  0.00  0.00    -0.246 OA
ATOM      8  O   UNL     1      36.998 -26.424 -11.949  0.00  0.00    -0.246 OA
ATOM      9  C   UNL     1      37.608 -25.939 -12.941  0.00  0.00    +0.363 C 
ENDBRANCH   6   9
ENDBRANCH   1   6
TORSDOF 3
ENDMDL
MODEL 6
REMARK VINA RESULT:      -3.7      2.512      2.876
REMARK  Name = 4755801
REMARK  3 active torsions:
REMARK  status: ('A' for Active; 'I' for Inactive)
REMARK    1  A    between atoms: C_1  and  N_2
REMARK    2  A    between atoms: C_1  and  C_6
REMARK    3  A    between atoms: C_6  and  C_9
REMARK                            x       y       z     vdW  Elec       q    Type
REMARK                         _______ _______ _______ _____ _____    ______ ____
ROOT
ATOM      1  C   UNL     1      37.335 -24.149 -14.214  0.00  0.00    -0.074 C 
ENDROOT
BRANCH   1   2
ATOM      2  N   UNL     1      38.111 -24.147 -15.480  0.00  0.00    +0.381 N 
ATOM      3  H   UNL     1      39.100 -24.279 -15.272  0.00  0.00    -0.089 HD
ATOM      4  H   UNL     1      37.979 -23.256 -15.957  0.00  0.00    -0.089 HD
ATOM      5  H   UNL     1      37.785 -24.906 -16.079  0.00  0.00    -0.089 HD
ENDBRANCH   1   2
BRANCH   1   6
ATOM      6  C   UNL     1      36.792 -25.542 -13.948  0.00  0.00    +0.090 C 
BRANCH   6   9
ATOM      7  O   UNL     1      36.337 -26.864 -15.841  0.00  0.00    -0.246 OA
ATOM      8  O   UNL     1      38.302 -27.208 -14.729  0.00  0.00    -0.246 OA
ATOM      9  C   UNL     1      37.192 -26.646 -14.933  0.00  0.00    +0.363 C 
ENDBRANCH   6   9
ENDBRANCH   1   6
TORSDOF 3
ENDMDL
MODEL 7
REMARK VINA RESULT:      -3.5      7.894      8.387
REMARK  Name = 4755801
REMARK  3 active torsions:
REMARK  status: ('A' for Active; 'I' for Inactive)
REMARK    1  A    between atoms: C_1  and  N_2
REMARK    2  A    between atoms: C_1  and  C_6
REMARK    3  A    between atoms: C_6  and  C_9
REMARK                            x       y       z     vdW  Elec       q    Type
REMARK                         _______ _______ _______ _____ _____    ______ ____
ROOT
ATOM      1  C   UNL     1      34.180 -20.440 -20.420  0.00  0.00    -0.074 C 
ENDROOT
BRANCH   1   2
ATOM      2  N   UNL     1      32.698 -20.450 -20.499  0.00  0.00    +0.381 N 
ATOM      3  H   UNL     1      32.408 -20.286 -21.463  0.00  0.00    -0.089 HD
ATOM      4  H   UNL     1      32.321 -19.716 -19.900  0.00  0.00    -0.089 HD
ATOM      5  H   UNL     1      32.347 -21.356 -20.189  0.00  0.00    -0.089 HD
ENDBRANCH   1   2
BRANCH   1   6
ATOM      6  C   UNL     1      34.647 -21.470 -19.407  0.00  0.00    +0.090 C 
BRANCH   6   9
ATOM      7  O   UNL     1      32.697 -22.356 -18.433  0.00  0.00    -0.246 OA
ATOM      8  O   UNL     1      34.049 -23.765 -19.617  0.00  0.00    -0.246 OA
ATOM      9  C   UNL     1      33.709 -22.652 -19.132  0.00  0.00    +0.363 C 
ENDBRANCH   6   9
ENDBRANCH   1   6
TORSDOF 3
ENDMDL
MODEL 8
REMARK VINA RESULT:      -3.5      3.066      3.569
REMARK  Name = 4755801
REMARK  3 active torsions:
REMARK  status: ('A' for Active; 'I' for Inactive)
REMARK    1  A    between atoms: C_1  and  N_2
REMARK    2  A    between atoms: C_1  and  C_6
REMARK    3  A    between atoms: C_6  and  C_9
REMARK                            x       y       z     vdW  Elec       q    Type
REMARK                         _______ _______ _______ _____ _____    ______ ____
ROOT
ATOM      1  C   UNL     1      39.774 -25.276 -14.359  0.00  0.00    -0.074 C 
ENDROOT
BRANCH   1   2
ATOM      2  N   UNL     1      40.551 -26.504 -14.059  0.00  0.00    +0.381 N 
ATOM      3  H   UNL     1      41.545 -26.278 -14.030  0.00  0.00    -0.089 HD
ATOM      4  H   UNL     1      40.381 -27.200 -14.784  0.00  0.00    -0.089 HD
ATOM      5  H   UNL     1      40.261 -26.877 -13.154  0.00  0.00    -0.089 HD
ENDBRANCH   1   2
BRANCH   1   6
ATOM      6  C   UNL     1      38.688 -25.087 -13.314  0.00  0.00    +0.090 C 
BRANCH   6   9
ATOM      7  O   UNL     1      36.969 -26.150 -12.108  0.00  0.00    -0.246 OA
ATOM      8  O   UNL     1      37.625 -27.070 -14.093  0.00  0.00    -0.246 OA
ATOM      9  C   UNL     1      37.660 -26.216 -13.166  0.00  0.00    +0.363 C 
ENDBRANCH   6   9
ENDBRANCH   1   6
TORSDOF 3
ENDMDL
MODEL 9
REMARK VINA RESULT:      -3.4      3.256      3.667
REMARK  Name = 4755801
REMARK  3 active torsions:
REMARK  status: ('A' for Active; 'I' for Inactive)
REMARK    1  A    between atoms: C_1  and  N_2
REMARK    2  A    between atoms: C_1  and  C_6
REMARK    3  A    between atoms: C_6  and  C_9
REMARK                            x       y       z     vdW  Elec       q    Type
REMARK                         _______ _______ _______ _____ _____    ______ ____
ROOT
ATOM      1  C   UNL     1      38.518 -25.035 -14.250  0.00  0.00    -0.074 C 
ENDROOT
BRANCH   1   2
ATOM      2  N   UNL     1      38.216 -26.442 -13.886  0.00  0.00    +0.381 N 
ATOM      3  H   UNL     1      37.228 -26.632 -14.054  0.00  0.00    -0.089 HD
ATOM      4  H   UNL     1      38.428 -26.590 -12.899  0.00  0.00    -0.089 HD
ATOM      5  H   UNL     1      38.784 -27.071 -14.454  0.00  0.00    -0.089 HD
ENDBRANCH   1   2
BRANCH   1   6
ATOM      6  C   UNL     1      37.623 -24.097 -13.460  0.00  0.00    +0.090 C 
BRANCH   6   9
ATOM      7  O   UNL     1      37.689 -24.889 -11.245  0.00  0.00    -0.246 OA
ATOM      8  O   UNL     1      38.457 -22.778 -11.661  0.00  0.00    -0.246 OA
ATOM      9  C   UNL     1      37.961 -23.894 -11.978  0.00  0.00    +0.363 C 
ENDBRANCH   6   9
ENDBRANCH   1   6
TORSDOF 3
ENDMDL
